MODEL 1
REMARK VINA RESULT:      -6.4      0.000      0.000
REMARK  Name = 
REMARK  15 active torsions:
REMARK  status: ('A' for Active; 'I' for Inactive)
REMARK    1  A    between atoms: C_2  and  O_3
REMARK    2  A    between atoms: C_2  and  C_4
REMARK    3  A    between atoms: C_2  and  C_8
REMARK    4  A    between atoms: C_4  and  C_5
REMARK    5  A    between atoms: C_5  and  O_6
REMARK    6  A    between atoms: N_10  and  C_11
REMARK    7  A    between atoms: C_11  and  C_13
REMARK    8  A    between atoms: C_11  and  C_21
REMARK    9  A    between atoms: C_13  and  C_14
REMARK   10  A    between atoms: C_14  and  C_15
REMARK   11  A    between atoms: N_23  and  C_24
REMARK   12  A    between atoms: C_24  and  C_25
REMARK   13  A    between atoms: C_25  and  C_26
REMARK   14  A    between atoms: C_26  and  C_27
REMARK   15  A    between atoms: C_26  and  C_28
REMARK                            x       y       z     vdW  Elec       q    Type
REMARK                         _______ _______ _______ _____ _____    ______ ____
ROOT
ATOM      1  C   UNL     1       8.502  -2.947  23.118  0.00  0.00    +0.159 C 
ENDROOT
BRANCH   1   3
ATOM      2  C   UNL     1       8.620  -4.863  24.711  0.00  0.00    +0.243 C 
ATOM      3  N   UNL     1       8.400  -3.530  24.457  0.00  0.00    -0.302 N 
ATOM      4  H   UNL     1       8.024  -2.911  25.168  0.00  0.00    +0.150 HD
ATOM      5  O   UNL     1       8.986  -5.660  23.858  0.00  0.00    -0.273 OA
BRANCH   2   6
ATOM      6  C   UNL     1       8.381  -5.254  26.183  0.00  0.00    +0.210 C 
BRANCH   6   7
ATOM      7  O   UNL     1       9.437  -4.803  27.045  0.00  0.00    -0.382 OA
ATOM      8  H   UNL     1       9.539  -3.839  26.914  0.00  0.00    +0.210 HD
ENDBRANCH   6   7
BRANCH   6   9
ATOM      9  C   UNL     1       7.084  -4.638  26.684  0.00  0.00    +0.161 C 
BRANCH   9  10
ATOM     10  C   UNL     1       6.455  -5.415  27.811  0.00  0.00    +0.308 C 
ATOM     11  O   UNL     1       5.361  -5.131  28.279  0.00  0.00    -0.251 OA
BRANCH  10  12
ATOM     12  O   UNL     1       7.232  -6.382  28.346  0.00  0.00    -0.481 OA
ATOM     13  H   UNL     1       7.092  -7.268  27.931  0.00  0.00    +0.295 HD
ENDBRANCH  10  12
ENDBRANCH   9  10
ENDBRANCH   6   9
ENDBRANCH   2   6
ENDBRANCH   1   3
BRANCH   1  14
ATOM     14  C   UNL     1       9.596  -1.870  23.237  0.00  0.00    +0.233 C 
ATOM     15  N   UNL     1       9.498  -1.067  24.350  0.00  0.00    -0.314 N 
ATOM     16  H   UNL     1       8.657  -1.100  24.914  0.00  0.00    +0.149 HD
ATOM     17  O   UNL     1      10.500  -1.777  22.407  0.00  0.00    -0.274 OA
BRANCH  15  18
ATOM     18  C   UNL     1      10.460  -0.023  24.630  0.00  0.00    +0.104 C 
BRANCH  18  19
ATOM     19  C   UNL     1       9.844   1.375  24.556  0.00  0.00    +0.022 C 
BRANCH  19  20
ATOM     20  C   UNL     1      10.402   2.268  23.430  0.00  0.00    -0.016 C 
ATOM     21  C   UNL     1       9.935   3.711  23.636  0.00  0.00    +0.007 C 
ATOM     22  C   UNL     1       9.986   1.786  22.039  0.00  0.00    +0.007 C 
ENDBRANCH  19  20
ENDBRANCH  18  19
ENDBRANCH  15  18
ENDBRANCH   1  14
BRANCH   1  23
ATOM     23  C   UNL     1       7.158  -2.337  22.697  0.00  0.00    +0.036 C 
BRANCH  23  24
ATOM     24  C   UNL     1       6.232  -3.330  21.989  0.00  0.00    +0.037 C 
BRANCH  24  25
ATOM     25  C   UNL     1       5.433  -4.146  22.972  0.00  0.00    -0.047 A 
ATOM     26  C   UNL     1       4.630  -3.519  23.932  0.00  0.00    +0.003 A 
ATOM     27  C   UNL     1       3.875  -4.279  24.826  0.00  0.00    +0.000 A 
ATOM     28  C   UNL     1       3.915  -5.671  24.767  0.00  0.00    +0.000 A 
ATOM     29  C   UNL     1       4.710  -6.305  23.816  0.00  0.00    +0.000 A 
ATOM     30  C   UNL     1       5.465  -5.546  22.920  0.00  0.00    +0.003 A 
ENDBRANCH  24  25
ENDBRANCH  23  24
ENDBRANCH   1  23
TORSDOF 13
ENDMDL
MODEL 2
REMARK VINA RESULT:      -6.4      1.950      3.647
REMARK  Name = 
REMARK  15 active torsions:
REMARK  status: ('A' for Active; 'I' for Inactive)
REMARK    1  A    between atoms: C_2  and  O_3
REMARK    2  A    between atoms: C_2  and  C_4
REMARK    3  A    between atoms: C_2  and  C_8
REMARK    4  A    between atoms: C_4  and  C_5
REMARK    5  A    between atoms: C_5  and  O_6
REMARK    6  A    between atoms: N_10  and  C_11
REMARK    7  A    between atoms: C_11  and  C_13
REMARK    8  A    between atoms: C_11  and  C_21
REMARK    9  A    between atoms: C_13  and  C_14
REMARK   10  A    between atoms: C_14  and  C_15
REMARK   11  A    between atoms: N_23  and  C_24
REMARK   12  A    between atoms: C_24  and  C_25
REMARK   13  A    between atoms: C_25  and  C_26
REMARK   14  A    between atoms: C_26  and  C_27
REMARK   15  A    between atoms: C_26  and  C_28
REMARK                            x       y       z     vdW  Elec       q    Type
REMARK                         _______ _______ _______ _____ _____    ______ ____
ROOT
ATOM      1  C   UNL     1       8.114  -2.797  22.800  0.00  0.00    +0.159 C 
ENDROOT
BRANCH   1   3
ATOM      2  C   UNL     1       8.445  -4.912  24.081  0.00  0.00    +0.243 C 
ATOM      3  N   UNL     1       8.655  -3.562  23.925  0.00  0.00    -0.302 N 
ATOM      4  H   UNL     1       9.086  -3.005  24.656  0.00  0.00    +0.150 HD
ATOM      5  O   UNL     1       7.850  -5.601  23.264  0.00  0.00    -0.273 OA
BRANCH   2   6
ATOM      6  C   UNL     1       9.052  -5.479  25.380  0.00  0.00    +0.210 C 
BRANCH   6   7
ATOM      7  O   UNL     1      10.487  -5.447  25.371  0.00  0.00    -0.382 OA
ATOM      8  H   UNL     1      10.795  -5.610  26.286  0.00  0.00    +0.210 HD
ENDBRANCH   6   7
BRANCH   6   9
ATOM      9  C   UNL     1       8.580  -4.668  26.576  0.00  0.00    +0.161 C 
BRANCH   9  10
ATOM     10  C   UNL     1       7.281  -5.164  27.155  0.00  0.00    +0.308 C 
ATOM     11  O   UNL     1       6.205  -4.636  26.912  0.00  0.00    -0.251 OA
BRANCH  10  12
ATOM     12  O   UNL     1       7.398  -6.167  28.052  0.00  0.00    -0.481 OA
ATOM     13  H   UNL     1       7.847  -5.892  28.888  0.00  0.00    +0.295 HD
ENDBRANCH  10  12
ENDBRANCH   9  10
ENDBRANCH   6   9
ENDBRANCH   2   6
ENDBRANCH   1   3
BRANCH   1  14
ATOM     14  C   UNL     1       9.229  -1.805  22.422  0.00  0.00    +0.233 C 
ATOM     15  N   UNL     1       8.787  -0.600  21.926  0.00  0.00    -0.314 N 
ATOM     16  H   UNL     1       7.811  -0.494  21.676  0.00  0.00    +0.149 HD
ATOM     17  O   UNL     1      10.417  -2.076  22.594  0.00  0.00    -0.274 OA
BRANCH  15  18
ATOM     18  C   UNL     1       9.701   0.456  21.548  0.00  0.00    +0.104 C 
BRANCH  18  19
ATOM     19  C   UNL     1       9.291   1.815  22.116  0.00  0.00    +0.022 C 
BRANCH  19  20
ATOM     20  C   UNL     1      10.236   2.375  23.198  0.00  0.00    -0.016 C 
ATOM     21  C   UNL     1      10.401   1.350  24.322  0.00  0.00    +0.007 C 
ATOM     22  C   UNL     1       9.741   3.701  23.779  0.00  0.00    +0.007 C 
ENDBRANCH  19  20
ENDBRANCH  18  19
ENDBRANCH  15  18
ENDBRANCH   1  14
BRANCH   1  23
ATOM     23  C   UNL     1       6.831  -2.067  23.219  0.00  0.00    +0.036 C 
BRANCH  23  24
ATOM     24  C   UNL     1       6.753  -1.781  24.721  0.00  0.00    +0.037 C 
BRANCH  24  25
ATOM     25  C   UNL     1       6.791  -0.302  25.009  0.00  0.00    -0.047 A 
ATOM     26  C   UNL     1       6.253   0.615  24.099  0.00  0.00    +0.003 A 
ATOM     27  C   UNL     1       6.272   1.982  24.381  0.00  0.00    +0.000 A 
ATOM     28  C   UNL     1       6.826   2.442  25.573  0.00  0.00    +0.000 A 
ATOM     29  C   UNL     1       7.363   1.538  26.486  0.00  0.00    +0.000 A 
ATOM     30  C   UNL     1       7.345   0.171  26.207  0.00  0.00    +0.003 A 
ENDBRANCH  24  25
ENDBRANCH  23  24
ENDBRANCH   1  23
TORSDOF 13
ENDMDL
MODEL 3
REMARK VINA RESULT:      -6.4      2.701      6.759
REMARK  Name = 
REMARK  15 active torsions:
REMARK  status: ('A' for Active; 'I' for Inactive)
REMARK    1  A    between atoms: C_2  and  O_3
REMARK    2  A    between atoms: C_2  and  C_4
REMARK    3  A    between atoms: C_2  and  C_8
REMARK    4  A    between atoms: C_4  and  C_5
REMARK    5  A    between atoms: C_5  and  O_6
REMARK    6  A    between atoms: N_10  and  C_11
REMARK    7  A    between atoms: C_11  and  C_13
REMARK    8  A    between atoms: C_11  and  C_21
REMARK    9  A    between atoms: C_13  and  C_14
REMARK   10  A    between atoms: C_14  and  C_15
REMARK   11  A    between atoms: N_23  and  C_24
REMARK   12  A    between atoms: C_24  and  C_25
REMARK   13  A    between atoms: C_25  and  C_26
REMARK   14  A    between atoms: C_26  and  C_27
REMARK   15  A    between atoms: C_26  and  C_28
REMARK                            x       y       z     vdW  Elec       q    Type
REMARK                         _______ _______ _______ _____ _____    ______ ____
ROOT
ATOM      1  C   UNL     1       9.298  -0.859  24.524  0.00  0.00    +0.159 C 
ENDROOT
BRANCH   1   3
ATOM      2  C   UNL     1      10.507   1.205  23.818  0.00  0.00    +0.243 C 
ATOM      3  N   UNL     1       9.413   0.375  23.746  0.00  0.00    -0.302 N 
ATOM      4  H   UNL     1       8.572   0.650  23.248  0.00  0.00    +0.150 HD
ATOM      5  O   UNL     1      11.503   0.951  24.481  0.00  0.00    -0.273 OA
BRANCH   2   6
ATOM      6  C   UNL     1      10.366   2.480  22.963  0.00  0.00    +0.210 C 
BRANCH   6   7
ATOM      7  O   UNL     1      10.017   2.188  21.602  0.00  0.00    -0.382 OA
ATOM      8  H   UNL     1      10.581   2.740  21.024  0.00  0.00    +0.210 HD
ENDBRANCH   6   7
BRANCH   6   9
ATOM      9  C   UNL     1       9.278   3.376  23.535  0.00  0.00    +0.161 C 
BRANCH   9  10
ATOM     10  C   UNL     1       8.017   3.378  22.711  0.00  0.00    +0.308 C 
ATOM     11  O   UNL     1       7.282   2.404  22.627  0.00  0.00    -0.251 OA
BRANCH  10  12
ATOM     12  O   UNL     1       7.809   4.496  21.982  0.00  0.00    -0.481 OA
ATOM     13  H   UNL     1       6.879   4.826  22.033  0.00  0.00    +0.295 HD
ENDBRANCH  10  12
ENDBRANCH   9  10
ENDBRANCH   6   9
ENDBRANCH   2   6
ENDBRANCH   1   3
BRANCH   1  14
ATOM     14  C   UNL     1       9.172  -1.979  23.475  0.00  0.00    +0.233 C 
ATOM     15  N   UNL     1       7.882  -2.371  23.199  0.00  0.00    -0.314 N 
ATOM     16  H   UNL     1       7.128  -2.050  23.794  0.00  0.00    +0.149 HD
ATOM     17  O   UNL     1      10.162  -2.448  22.913  0.00  0.00    -0.274 OA
BRANCH  15  18
ATOM     18  C   UNL     1       7.583  -3.391  22.217  0.00  0.00    +0.104 C 
BRANCH  18  19
ATOM     19  C   UNL     1       7.492  -4.787  22.835  0.00  0.00    +0.022 C 
BRANCH  19  20
ATOM     20  C   UNL     1       6.170  -5.530  22.559  0.00  0.00    -0.016 C 
ATOM     21  C   UNL     1       6.092  -5.916  21.080  0.00  0.00    +0.007 C 
ATOM     22  C   UNL     1       4.941  -4.703  22.940  0.00  0.00    +0.007 C 
ENDBRANCH  19  20
ENDBRANCH  18  19
ENDBRANCH  15  18
ENDBRANCH   1  14
BRANCH   1  23
ATOM     23  C   UNL     1       8.064  -0.803  25.436  0.00  0.00    +0.036 C 
BRANCH  23  24
ATOM     24  C   UNL     1       8.223  -1.602  26.731  0.00  0.00    +0.037 C 
BRANCH  24  25
ATOM     25  C   UNL     1       7.637  -2.985  26.608  0.00  0.00    -0.047 A 
ATOM     26  C   UNL     1       8.469  -4.106  26.515  0.00  0.00    +0.003 A 
ATOM     27  C   UNL     1       7.921  -5.387  26.423  0.00  0.00    +0.000 A 
ATOM     28  C   UNL     1       6.538  -5.556  26.426  0.00  0.00    +0.000 A 
ATOM     29  C   UNL     1       5.701  -4.448  26.520  0.00  0.00    +0.000 A 
ATOM     30  C   UNL     1       6.247  -3.167  26.612  0.00  0.00    +0.003 A 
ENDBRANCH  24  25
ENDBRANCH  23  24
ENDBRANCH   1  23
TORSDOF 13
ENDMDL
MODEL 4
REMARK VINA RESULT:      -6.4      2.418      5.355
REMARK  Name = 
REMARK  15 active torsions:
REMARK  status: ('A' for Active; 'I' for Inactive)
REMARK    1  A    between atoms: C_2  and  O_3
REMARK    2  A    between atoms: C_2  and  C_4
REMARK    3  A    between atoms: C_2  and  C_8
REMARK    4  A    between atoms: C_4  and  C_5
REMARK    5  A    between atoms: C_5  and  O_6
REMARK    6  A    between atoms: N_10  and  C_11
REMARK    7  A    between atoms: C_11  and  C_13
REMARK    8  A    between atoms: C_11  and  C_21
REMARK    9  A    between atoms: C_13  and  C_14
REMARK   10  A    between atoms: C_14  and  C_15
REMARK   11  A    between atoms: N_23  and  C_24
REMARK   12  A    between atoms: C_24  and  C_25
REMARK   13  A    between atoms: C_25  and  C_26
REMARK   14  A    between atoms: C_26  and  C_27
REMARK   15  A    between atoms: C_26  and  C_28
REMARK                            x       y       z     vdW  Elec       q    Type
REMARK                         _______ _______ _______ _____ _____    ______ ____
ROOT
ATOM      1  C   UNL     1       8.914  -3.464  24.469  0.00  0.00    +0.159 C 
ENDROOT
BRANCH   1   3
ATOM      2  C   UNL     1       7.686  -4.945  22.882  0.00  0.00    +0.243 C 
ATOM      3  N   UNL     1       7.895  -3.709  23.447  0.00  0.00    -0.302 N 
ATOM      4  H   UNL     1       7.440  -2.878  23.084  0.00  0.00    +0.150 HD
ATOM      5  O   UNL     1       8.282  -5.956  23.230  0.00  0.00    -0.273 OA
BRANCH   2   6
ATOM      6  C   UNL     1       6.610  -4.939  21.778  0.00  0.00    +0.210 C 
BRANCH   6   7
ATOM      7  O   UNL     1       5.894  -6.181  21.708  0.00  0.00    -0.382 OA
ATOM      8  H   UNL     1       5.032  -6.005  21.279  0.00  0.00    +0.210 HD
ENDBRANCH   6   7
BRANCH   6   9
ATOM      9  C   UNL     1       5.596  -3.837  22.041  0.00  0.00    +0.161 C 
BRANCH   9  10
ATOM     10  C   UNL     1       4.595  -4.194  23.108  0.00  0.00    +0.308 C 
ATOM     11  O   UNL     1       3.593  -4.858  22.879  0.00  0.00    -0.251 OA
BRANCH  10  12
ATOM     12  O   UNL     1       4.820  -3.636  24.318  0.00  0.00    -0.481 OA
ATOM     13  H   UNL     1       5.368  -2.815  24.271  0.00  0.00    +0.295 HD
ENDBRANCH  10  12
ENDBRANCH   9  10
ENDBRANCH   6   9
ENDBRANCH   2   6
ENDBRANCH   1   3
BRANCH   1  14
ATOM     14  C   UNL     1       8.162  -2.772  25.620  0.00  0.00    +0.233 C 
ATOM     15  N   UNL     1       8.675  -1.550  25.994  0.00  0.00    -0.314 N 
ATOM     16  H   UNL     1       9.578  -1.261  25.638  0.00  0.00    +0.149 HD
ATOM     17  O   UNL     1       7.161  -3.275  26.129  0.00  0.00    -0.274 OA
BRANCH  15  18
ATOM     18  C   UNL     1       8.072  -0.753  27.041  0.00  0.00    +0.104 C 
BRANCH  18  19
ATOM     19  C   UNL     1       7.025   0.222  26.503  0.00  0.00    +0.022 C 
BRANCH  19  20
ATOM     20  C   UNL     1       7.414   0.929  25.190  0.00  0.00    -0.016 C 
ATOM     21  C   UNL     1       7.490   2.441  25.419  0.00  0.00    +0.007 C 
ATOM     22  C   UNL     1       6.438   0.630  24.051  0.00  0.00    +0.007 C 
ENDBRANCH  19  20
ENDBRANCH  18  19
ENDBRANCH  15  18
ENDBRANCH   1  14
BRANCH   1  23
ATOM     23  C   UNL     1      10.028  -2.569  23.907  0.00  0.00    +0.036 C 
BRANCH  23  24
ATOM     24  C   UNL     1       9.633  -1.834  22.624  0.00  0.00    +0.037 C 
BRANCH  24  25
ATOM     25  C   UNL     1       9.891  -0.352  22.729  0.00  0.00    -0.047 A 
ATOM     26  C   UNL     1       9.399   0.527  21.757  0.00  0.00    +0.003 A 
ATOM     27  C   UNL     1       9.623   1.900  21.871  0.00  0.00    +0.000 A 
ATOM     28  C   UNL     1      10.336   2.405  22.956  0.00  0.00    +0.000 A 
ATOM     29  C   UNL     1      10.828   1.539  23.930  0.00  0.00    +0.000 A 
ATOM     30  C   UNL     1      10.606   0.166  23.818  0.00  0.00    +0.003 A 
ENDBRANCH  24  25
ENDBRANCH  23  24
ENDBRANCH   1  23
TORSDOF 13
ENDMDL
MODEL 5
REMARK VINA RESULT:      -6.3      2.836      5.562
REMARK  Name = 
REMARK  15 active torsions:
REMARK  status: ('A' for Active; 'I' for Inactive)
REMARK    1  A    between atoms: C_2  and  O_3
REMARK    2  A    between atoms: C_2  and  C_4
REMARK    3  A    between atoms: C_2  and  C_8
REMARK    4  A    between atoms: C_4  and  C_5
REMARK    5  A    between atoms: C_5  and  O_6
REMARK    6  A    between atoms: N_10  and  C_11
REMARK    7  A    between atoms: C_11  and  C_13
REMARK    8  A    between atoms: C_11  and  C_21
REMARK    9  A    between atoms: C_13  and  C_14
REMARK   10  A    between atoms: C_14  and  C_15
REMARK   11  A    between atoms: N_23  and  C_24
REMARK   12  A    between atoms: C_24  and  C_25
REMARK   13  A    between atoms: C_25  and  C_26
REMARK   14  A    between atoms: C_26  and  C_27
REMARK   15  A    between atoms: C_26  and  C_28
REMARK                            x       y       z     vdW  Elec       q    Type
REMARK                         _______ _______ _______ _____ _____    ______ ____
ROOT
ATOM      1  C   UNL     1       7.217  -2.616  24.999  0.00  0.00    +0.159 C 
ENDROOT
BRANCH   1   3
ATOM      2  C   UNL     1       6.597  -4.973  24.470  0.00  0.00    +0.243 C 
ATOM      3  N   UNL     1       7.075  -3.745  24.079  0.00  0.00    -0.302 N 
ATOM      4  H   UNL     1       7.479  -3.604  23.158  0.00  0.00    +0.150 HD
ATOM      5  O   UNL     1       6.186  -5.208  25.598  0.00  0.00    -0.273 OA
BRANCH   2   6
ATOM      6  C   UNL     1       6.609  -6.023  23.341  0.00  0.00    +0.210 C 
BRANCH   6   7
ATOM      7  O   UNL     1       5.290  -6.482  23.009  0.00  0.00    -0.382 OA
ATOM      8  H   UNL     1       4.873  -6.813  23.830  0.00  0.00    +0.210 HD
ENDBRANCH   6   7
BRANCH   6   9
ATOM      9  C   UNL     1       7.221  -5.431  22.082  0.00  0.00    +0.161 C 
BRANCH   9  10
ATOM     10  C   UNL     1       6.194  -5.020  21.059  0.00  0.00    +0.308 C 
ATOM     11  O   UNL     1       5.962  -5.678  20.055  0.00  0.00    -0.251 OA
BRANCH  10  12
ATOM     12  O   UNL     1       5.624  -3.814  21.271  0.00  0.00    -0.481 OA
ATOM     13  H   UNL     1       4.679  -3.874  21.553  0.00  0.00    +0.295 HD
ENDBRANCH  10  12
ENDBRANCH   9  10
ENDBRANCH   6   9
ENDBRANCH   2   6
ENDBRANCH   1   3
BRANCH   1  14
ATOM     14  C   UNL     1       6.530  -1.436  24.288  0.00  0.00    +0.233 C 
ATOM     15  N   UNL     1       6.412  -0.294  25.046  0.00  0.00    -0.314 N 
ATOM     16  H   UNL     1       6.608  -0.334  26.039  0.00  0.00    +0.149 HD
ATOM     17  O   UNL     1       6.155  -1.520  23.119  0.00  0.00    -0.274 OA
BRANCH  15  18
ATOM     18  C   UNL     1       5.816   0.917  24.523  0.00  0.00    +0.104 C 
BRANCH  18  19
ATOM     19  C   UNL     1       6.843   1.834  23.858  0.00  0.00    +0.022 C 
BRANCH  19  20
ATOM     20  C   UNL     1       6.351   2.531  22.574  0.00  0.00    -0.016 C 
ATOM     21  C   UNL     1       7.317   3.657  22.195  0.00  0.00    +0.007 C 
ATOM     22  C   UNL     1       4.936   3.094  22.718  0.00  0.00    +0.007 C 
ENDBRANCH  19  20
ENDBRANCH  18  19
ENDBRANCH  15  18
ENDBRANCH   1  14
BRANCH   1  23
ATOM     23  C   UNL     1       8.701  -2.325  25.263  0.00  0.00    +0.036 C 
BRANCH  23  24
ATOM     24  C   UNL     1       9.557  -2.316  23.993  0.00  0.00    +0.037 C 
BRANCH  24  25
ATOM     25  C   UNL     1       9.837  -0.912  23.521  0.00  0.00    -0.047 A 
ATOM     26  C   UNL     1       9.569  -0.538  22.199  0.00  0.00    +0.003 A 
ATOM     27  C   UNL     1       9.810   0.769  21.773  0.00  0.00    +0.000 A 
ATOM     28  C   UNL     1      10.318   1.712  22.665  0.00  0.00    +0.000 A 
ATOM     29  C   UNL     1      10.586   1.351  23.982  0.00  0.00    +0.000 A 
ATOM     30  C   UNL     1      10.346   0.045  24.411  0.00  0.00    +0.003 A 
ENDBRANCH  24  25
ENDBRANCH  23  24
ENDBRANCH   1  23
TORSDOF 13
ENDMDL
MODEL 6
REMARK VINA RESULT:      -6.1      1.942      6.417
REMARK  Name = 
REMARK  15 active torsions:
REMARK  status: ('A' for Active; 'I' for Inactive)
REMARK    1  A    between atoms: C_2  and  O_3
REMARK    2  A    between atoms: C_2  and  C_4
REMARK    3  A    between atoms: C_2  and  C_8
REMARK    4  A    between atoms: C_4  and  C_5
REMARK    5  A    between atoms: C_5  and  O_6
REMARK    6  A    between atoms: N_10  and  C_11
REMARK    7  A    between atoms: C_11  and  C_13
REMARK    8  A    between atoms: C_11  and  C_21
REMARK    9  A    between atoms: C_13  and  C_14
REMARK   10  A    between atoms: C_14  and  C_15
REMARK   11  A    between atoms: N_23  and  C_24
REMARK   12  A    between atoms: C_24  and  C_25
REMARK   13  A    between atoms: C_25  and  C_26
REMARK   14  A    between atoms: C_26  and  C_27
REMARK   15  A    between atoms: C_26  and  C_28
REMARK                            x       y       z     vdW  Elec       q    Type
REMARK                         _______ _______ _______ _____ _____    ______ ____
ROOT
ATOM      1  C   UNL     1       7.453  -2.243  22.781  0.00  0.00    +0.159 C 
ENDROOT
BRANCH   1   3
ATOM      2  C   UNL     1       6.549  -2.307  25.105  0.00  0.00    +0.243 C 
ATOM      3  N   UNL     1       7.499  -2.671  24.180  0.00  0.00    -0.302 N 
ATOM      4  H   UNL     1       8.352  -3.146  24.457  0.00  0.00    +0.150 HD
ATOM      5  O   UNL     1       5.552  -1.655  24.826  0.00  0.00    -0.273 OA
BRANCH   2   6
ATOM      6  C   UNL     1       6.852  -2.819  26.527  0.00  0.00    +0.210 C 
BRANCH   6   7
ATOM      7  O   UNL     1       5.880  -3.772  26.982  0.00  0.00    -0.382 OA
ATOM      8  H   UNL     1       5.261  -3.943  26.243  0.00  0.00    +0.210 HD
ENDBRANCH   6   7
BRANCH   6   9
ATOM      9  C   UNL     1       8.212  -3.497  26.562  0.00  0.00    +0.161 C 
BRANCH   9  10
ATOM     10  C   UNL     1       8.140  -4.985  26.337  0.00  0.00    +0.308 C 
ATOM     11  O   UNL     1       8.094  -5.482  25.220  0.00  0.00    -0.251 OA
BRANCH  10  12
ATOM     12  O   UNL     1       8.017  -5.729  27.457  0.00  0.00    -0.481 OA
ATOM     13  H   UNL     1       8.574  -5.402  28.205  0.00  0.00    +0.295 HD
ENDBRANCH  10  12
ENDBRANCH   9  10
ENDBRANCH   6   9
ENDBRANCH   2   6
ENDBRANCH   1   3
BRANCH   1  14
ATOM     14  C   UNL     1       6.631  -3.327  22.061  0.00  0.00    +0.233 C 
ATOM     15  N   UNL     1       7.044  -4.618  22.299  0.00  0.00    -0.314 N 
ATOM     16  H   UNL     1       7.928  -4.779  22.766  0.00  0.00    +0.149 HD
ATOM     17  O   UNL     1       5.662  -3.040  21.360  0.00  0.00    -0.274 OA
BRANCH  15  18
ATOM     18  C   UNL     1       6.364  -5.759  21.724  0.00  0.00    +0.104 C 
BRANCH  18  19
ATOM     19  C   UNL     1       5.556  -6.542  22.759  0.00  0.00    +0.022 C 
BRANCH  19  20
ATOM     20  C   UNL     1       4.915  -5.679  23.865  0.00  0.00    -0.016 C 
ATOM     21  C   UNL     1       4.709  -6.523  25.125  0.00  0.00    +0.007 C 
ATOM     22  C   UNL     1       3.581  -5.068  23.432  0.00  0.00    +0.007 C 
ENDBRANCH  19  20
ENDBRANCH  18  19
ENDBRANCH  15  18
ENDBRANCH   1  14
BRANCH   1  23
ATOM     23  C   UNL     1       8.874  -2.141  22.207  0.00  0.00    +0.036 C 
BRANCH  23  24
ATOM     24  C   UNL     1       9.128  -0.846  21.431  0.00  0.00    +0.037 C 
BRANCH  24  25
ATOM     25  C   UNL     1       9.748   0.214  22.305  0.00  0.00    -0.047 A 
ATOM     26  C   UNL     1       9.725   1.559  21.918  0.00  0.00    +0.003 A 
ATOM     27  C   UNL     1      10.280   2.539  22.741  0.00  0.00    +0.000 A 
ATOM     28  C   UNL     1      10.860   2.184  23.958  0.00  0.00    +0.000 A 
ATOM     29  C   UNL     1      10.887   0.850  24.353  0.00  0.00    +0.000 A 
ATOM     30  C   UNL     1      10.332  -0.133  23.531  0.00  0.00    +0.003 A 
ENDBRANCH  24  25
ENDBRANCH  23  24
ENDBRANCH   1  23
TORSDOF 13
ENDMDL
MODEL 7
REMARK VINA RESULT:      -6.1      2.548      5.527
REMARK  Name = 
REMARK  15 active torsions:
REMARK  status: ('A' for Active; 'I' for Inactive)
REMARK    1  A    between atoms: C_2  and  O_3
REMARK    2  A    between atoms: C_2  and  C_4
REMARK    3  A    between atoms: C_2  and  C_8
REMARK    4  A    between atoms: C_4  and  C_5
REMARK    5  A    between atoms: C_5  and  O_6
REMARK    6  A    between atoms: N_10  and  C_11
REMARK    7  A    between atoms: C_11  and  C_13
REMARK    8  A    between atoms: C_11  and  C_21
REMARK    9  A    between atoms: C_13  and  C_14
REMARK   10  A    between atoms: C_14  and  C_15
REMARK   11  A    between atoms: N_23  and  C_24
REMARK   12  A    between atoms: C_24  and  C_25
REMARK   13  A    between atoms: C_25  and  C_26
REMARK   14  A    between atoms: C_26  and  C_27
REMARK   15  A    between atoms: C_26  and  C_28
REMARK                            x       y       z     vdW  Elec       q    Type
REMARK                         _______ _______ _______ _____ _____    ______ ____
ROOT
ATOM      1  C   UNL     1       8.719  -3.061  25.249  0.00  0.00    +0.159 C 
ENDROOT
BRANCH   1   3
ATOM      2  C   UNL     1       7.167  -4.977  24.872  0.00  0.00    +0.243 C 
ATOM      3  N   UNL     1       7.676  -3.757  24.493  0.00  0.00    -0.302 N 
ATOM      4  H   UNL     1       7.446  -3.343  23.596  0.00  0.00    +0.150 HD
ATOM      5  O   UNL     1       7.489  -5.551  25.903  0.00  0.00    -0.273 OA
BRANCH   2   6
ATOM      6  C   UNL     1       6.132  -5.543  23.879  0.00  0.00    +0.210 C 
BRANCH   6   7
ATOM      7  O   UNL     1       5.050  -4.631  23.640  0.00  0.00    -0.382 OA
ATOM      8  H   UNL     1       4.213  -5.118  23.780  0.00  0.00    +0.210 HD
ENDBRANCH   6   7
BRANCH   6   9
ATOM      9  C   UNL     1       6.794  -5.833  22.541  0.00  0.00    +0.161 C 
BRANCH   9  10
ATOM     10  C   UNL     1       6.322  -4.925  21.436  0.00  0.00    +0.308 C 
ATOM     11  O   UNL     1       5.861  -5.348  20.385  0.00  0.00    -0.251 OA
BRANCH  10  12
ATOM     12  O   UNL     1       6.545  -3.608  21.640  0.00  0.00    -0.481 OA
ATOM     13  H   UNL     1       6.649  -3.097  20.800  0.00  0.00    +0.295 HD
ENDBRANCH  10  12
ENDBRANCH   9  10
ENDBRANCH   6   9
ENDBRANCH   2   6
ENDBRANCH   1   3
BRANCH   1  14
ATOM     14  C   UNL     1       8.007  -1.856  25.891  0.00  0.00    +0.233 C 
ATOM     15  N   UNL     1       6.755  -1.588  25.385  0.00  0.00    -0.314 N 
ATOM     16  H   UNL     1       6.451  -2.055  24.539  0.00  0.00    +0.149 HD
ATOM     17  O   UNL     1       8.521  -1.219  26.809  0.00  0.00    -0.274 OA
BRANCH  15  18
ATOM     18  C   UNL     1       5.937  -0.508  25.894  0.00  0.00    +0.104 C 
BRANCH  18  19
ATOM     19  C   UNL     1       5.662   0.564  24.839  0.00  0.00    +0.022 C 
BRANCH  19  20
ATOM     20  C   UNL     1       6.899   1.374  24.402  0.00  0.00    -0.016 C 
ATOM     21  C   UNL     1       7.502   2.089  25.613  0.00  0.00    +0.007 C 
ATOM     22  C   UNL     1       6.575   2.394  23.310  0.00  0.00    +0.007 C 
ENDBRANCH  19  20
ENDBRANCH  18  19
ENDBRANCH  15  18
ENDBRANCH   1  14
BRANCH   1  23
ATOM     23  C   UNL     1       9.847  -2.611  24.310  0.00  0.00    +0.036 C 
BRANCH  23  24
ATOM     24  C   UNL     1       9.346  -1.918  23.040  0.00  0.00    +0.037 C 
BRANCH  24  25
ATOM     25  C   UNL     1       9.759  -0.469  22.996  0.00  0.00    -0.047 A 
ATOM     26  C   UNL     1       9.484   0.316  21.871  0.00  0.00    +0.003 A 
ATOM     27  C   UNL     1       9.849   1.663  21.844  0.00  0.00    +0.000 A 
ATOM     28  C   UNL     1      10.488   2.236  22.942  0.00  0.00    +0.000 A 
ATOM     29  C   UNL     1      10.764   1.464  24.068  0.00  0.00    +0.000 A 
ATOM     30  C   UNL     1      10.400   0.117  24.097  0.00  0.00    +0.003 A 
ENDBRANCH  24  25
ENDBRANCH  23  24
ENDBRANCH   1  23
TORSDOF 13
ENDMDL
MODEL 8
REMARK VINA RESULT:      -6.0      2.500      6.332
REMARK  Name = 
REMARK  15 active torsions:
REMARK  status: ('A' for Active; 'I' for Inactive)
REMARK    1  A    between atoms: C_2  and  O_3
REMARK    2  A    between atoms: C_2  and  C_4
REMARK    3  A    between atoms: C_2  and  C_8
REMARK    4  A    between atoms: C_4  and  C_5
REMARK    5  A    between atoms: C_5  and  O_6
REMARK    6  A    between atoms: N_10  and  C_11
REMARK    7  A    between atoms: C_11  and  C_13
REMARK    8  A    between atoms: C_11  and  C_21
REMARK    9  A    between atoms: C_13  and  C_14
REMARK   10  A    between atoms: C_14  and  C_15
REMARK   11  A    between atoms: N_23  and  C_24
REMARK   12  A    between atoms: C_24  and  C_25
REMARK   13  A    between atoms: C_25  and  C_26
REMARK   14  A    between atoms: C_26  and  C_27
REMARK   15  A    between atoms: C_26  and  C_28
REMARK                            x       y       z     vdW  Elec       q    Type
REMARK                         _______ _______ _______ _____ _____    ______ ____
ROOT
ATOM      1  C   UNL     1       9.276  -1.403  25.361  0.00  0.00    +0.159 C 
ENDROOT
BRANCH   1   3
ATOM      2  C   UNL     1       9.878   0.934  24.731  0.00  0.00    +0.243 C 
ATOM      3  N   UNL     1       8.933  -0.024  25.012  0.00  0.00    -0.302 N 
ATOM      4  H   UNL     1       7.952   0.216  25.120  0.00  0.00    +0.150 HD
ATOM      5  O   UNL     1      11.079   0.702  24.681  0.00  0.00    -0.273 OA
BRANCH   2   6
ATOM      6  C   UNL     1       9.277   2.328  24.463  0.00  0.00    +0.210 C 
BRANCH   6   7
ATOM      7  O   UNL     1      10.179   3.181  23.744  0.00  0.00    -0.382 OA
ATOM      8  H   UNL     1      10.854   2.613  23.320  0.00  0.00    +0.210 HD
ENDBRANCH   6   7
BRANCH   6   9
ATOM      9  C   UNL     1       8.007   2.201  23.638  0.00  0.00    +0.161 C 
BRANCH   9  10
ATOM     10  C   UNL     1       8.098   2.884  22.298  0.00  0.00    +0.308 C 
ATOM     11  O   UNL     1       7.498   3.919  22.043  0.00  0.00    -0.251 OA
BRANCH  10  12
ATOM     12  O   UNL     1       8.801   2.215  21.359  0.00  0.00    -0.481 OA
ATOM     13  H   UNL     1       9.510   1.640  21.739  0.00  0.00    +0.295 HD
ENDBRANCH  10  12
ENDBRANCH   9  10
ENDBRANCH   6   9
ENDBRANCH   2   6
ENDBRANCH   1   3
BRANCH   1  14
ATOM     14  C   UNL     1       9.179  -2.184  24.037  0.00  0.00    +0.233 C 
ATOM     15  N   UNL     1       7.987  -2.038  23.366  0.00  0.00    -0.314 N 
ATOM     16  H   UNL     1       7.205  -1.596  23.834  0.00  0.00    +0.149 HD
ATOM     17  O   UNL     1      10.123  -2.851  23.613  0.00  0.00    -0.274 OA
BRANCH  15  18
ATOM     18  C   UNL     1       7.739  -2.681  22.093  0.00  0.00    +0.104 C 
BRANCH  18  19
ATOM     19  C   UNL     1       6.435  -3.480  22.085  0.00  0.00    +0.022 C 
BRANCH  19  20
ATOM     20  C   UNL     1       6.615  -5.008  21.997  0.00  0.00    -0.016 C 
ATOM     21  C   UNL     1       5.286  -5.704  22.303  0.00  0.00    +0.007 C 
ATOM     22  C   UNL     1       7.698  -5.527  22.944  0.00  0.00    +0.007 C 
ENDBRANCH  19  20
ENDBRANCH  18  19
ENDBRANCH  15  18
ENDBRANCH   1  14
BRANCH   1  23
ATOM     23  C   UNL     1       8.294  -1.949  26.407  0.00  0.00    +0.036 C 
BRANCH  23  24
ATOM     24  C   UNL     1       8.349  -3.471  26.562  0.00  0.00    +0.037 C 
BRANCH  24  25
ATOM     25  C   UNL     1       7.005  -4.105  26.311  0.00  0.00    -0.047 A 
ATOM     26  C   UNL     1       5.928  -3.334  25.859  0.00  0.00    +0.003 A 
ATOM     27  C   UNL     1       4.691  -3.930  25.607  0.00  0.00    +0.000 A 
ATOM     28  C   UNL     1       4.522  -5.300  25.801  0.00  0.00    +0.000 A 
ATOM     29  C   UNL     1       5.588  -6.076  26.249  0.00  0.00    +0.000 A 
ATOM     30  C   UNL     1       6.826  -5.482  26.501  0.00  0.00    +0.003 A 
ENDBRANCH  24  25
ENDBRANCH  23  24
ENDBRANCH   1  23
TORSDOF 13
ENDMDL
MODEL 9
REMARK VINA RESULT:      -5.9      2.120      6.553
REMARK  Name = 
REMARK  15 active torsions:
REMARK  status: ('A' for Active; 'I' for Inactive)
REMARK    1  A    between atoms: C_2  and  O_3
REMARK    2  A    between atoms: C_2  and  C_4
REMARK    3  A    between atoms: C_2  and  C_8
REMARK    4  A    between atoms: C_4  and  C_5
REMARK    5  A    between atoms: C_5  and  O_6
REMARK    6  A    between atoms: N_10  and  C_11
REMARK    7  A    between atoms: C_11  and  C_13
REMARK    8  A    between atoms: C_11  and  C_21
REMARK    9  A    between atoms: C_13  and  C_14
REMARK   10  A    between atoms: C_14  and  C_15
REMARK   11  A    between atoms: N_23  and  C_24
REMARK   12  A    between atoms: C_24  and  C_25
REMARK   13  A    between atoms: C_25  and  C_26
REMARK   14  A    between atoms: C_26  and  C_27
REMARK   15  A    between atoms: C_26  and  C_28
REMARK                            x       y       z     vdW  Elec       q    Type
REMARK                         _______ _______ _______ _____ _____    ______ ____
ROOT
ATOM      1  C   UNL     1       8.714  -1.699  25.402  0.00  0.00    +0.159 C 
ENDROOT
BRANCH   1   3
ATOM      2  C   UNL     1      10.013  -0.509  23.637  0.00  0.00    +0.243 C 
ATOM      3  N   UNL     1       9.074  -1.443  24.007  0.00  0.00    -0.302 N 
ATOM      4  H   UNL     1       8.490  -1.908  23.319  0.00  0.00    +0.150 HD
ATOM      5  O   UNL     1      10.673   0.138  24.438  0.00  0.00    -0.273 OA
BRANCH   2   6
ATOM      6  C   UNL     1      10.167  -0.369  22.109  0.00  0.00    +0.210 C 
BRANCH   6   7
ATOM      7  O   UNL     1      10.198  -1.640  21.445  0.00  0.00    -0.382 OA
ATOM      8  H   UNL     1       9.826  -1.518  20.548  0.00  0.00    +0.210 HD
ENDBRANCH   6   7
BRANCH   6   9
ATOM      9  C   UNL     1       9.002   0.423  21.535  0.00  0.00    +0.161 C 
BRANCH   9  10
ATOM     10  C   UNL     1       9.100   1.902  21.803  0.00  0.00    +0.308 C 
ATOM     11  O   UNL     1       8.121   2.597  22.035  0.00  0.00    -0.251 OA
BRANCH  10  12
ATOM     12  O   UNL     1      10.335   2.431  21.659  0.00  0.00    -0.481 OA
ATOM     13  H   UNL     1      11.045   1.879  22.070  0.00  0.00    +0.295 HD
ENDBRANCH  10  12
ENDBRANCH   9  10
ENDBRANCH   6   9
ENDBRANCH   2   6
ENDBRANCH   1   3
BRANCH   1  14
ATOM     14  C   UNL     1       8.695  -3.233  25.532  0.00  0.00    +0.233 C 
ATOM     15  N   UNL     1       7.978  -3.714  26.604  0.00  0.00    -0.314 N 
ATOM     16  H   UNL     1       7.664  -3.070  27.320  0.00  0.00    +0.149 HD
ATOM     17  O   UNL     1       9.256  -3.955  24.709  0.00  0.00    -0.274 OA
BRANCH  15  18
ATOM     18  C   UNL     1       7.836  -5.131  26.858  0.00  0.00    +0.104 C 
BRANCH  18  19
ATOM     19  C   UNL     1       6.570  -5.713  26.228  0.00  0.00    +0.022 C 
BRANCH  19  20
ATOM     20  C   UNL     1       5.508  -6.194  27.236  0.00  0.00    -0.016 C 
ATOM     21  C   UNL     1       4.373  -6.904  26.494  0.00  0.00    +0.007 C 
ATOM     22  C   UNL     1       4.937  -5.050  28.076  0.00  0.00    +0.007 C 
ENDBRANCH  19  20
ENDBRANCH  18  19
ENDBRANCH  15  18
ENDBRANCH   1  14
BRANCH   1  23
ATOM     23  C   UNL     1       7.340  -1.092  25.718  0.00  0.00    +0.036 C 
BRANCH  23  24
ATOM     24  C   UNL     1       6.459  -0.895  24.481  0.00  0.00    +0.037 C 
BRANCH  24  25
ATOM     25  C   UNL     1       5.616  -2.112  24.199  0.00  0.00    -0.047 A 
ATOM     26  C   UNL     1       5.838  -2.882  23.052  0.00  0.00    +0.003 A 
ATOM     27  C   UNL     1       5.068  -4.020  22.806  0.00  0.00    +0.000 A 
ATOM     28  C   UNL     1       4.074  -4.399  23.706  0.00  0.00    +0.000 A 
ATOM     29  C   UNL     1       3.846  -3.641  24.851  0.00  0.00    +0.000 A 
ATOM     30  C   UNL     1       4.614  -2.502  25.099  0.00  0.00    +0.003 A 
ENDBRANCH  24  25
ENDBRANCH  23  24
ENDBRANCH   1  23
TORSDOF 13
ENDMDL
