MODEL 1
REMARK VINA RESULT:      -3.9      0.000      0.000
REMARK  Name = 
REMARK  6 active torsions:
REMARK  status: ('A' for Active; 'I' for Inactive)
REMARK    1  A    between atoms: C_1  and  C_2
REMARK    2  A    between atoms: C_3  and  N_4
REMARK    3  A    between atoms: C_3  and  C_5
REMARK    4  A    between atoms: C_5  and  C_6
REMARK    5  A    between atoms: C_6  and  C_7
REMARK    6  A    between atoms: C_7  and  O_8
REMARK                            x       y       z     vdW  Elec       q    Type
REMARK                         _______ _______ _______ _____ _____    ______ ____
ROOT
ATOM      1  C   UNL     1       8.573   4.078  23.455  0.00  0.00    +0.037 C 
ATOM      2  C   UNL     1       9.422   2.954  23.959  0.00  0.00    -0.012 C 
ATOM      3  C   UNL     1      10.096   2.085  23.189  0.00  0.00    -0.002 C 
ENDROOT
BRANCH   3   4
ATOM      4  N   UNL     1      10.106   2.141  21.808  0.00  0.00    -0.361 N 
ATOM      5  H   UNL     1       9.386   2.767  21.438  0.00  0.00    +0.142 HD
ATOM      6  H   UNL     1       9.981   1.219  21.381  0.00  0.00    +0.142 HD
ENDBRANCH   3   4
BRANCH   3   7
ATOM      7  C   UNL     1      10.803   0.886  23.796  0.00  0.00    +0.061 C 
BRANCH   7   8
ATOM      8  C   UNL     1       9.937  -0.369  23.808  0.00  0.00    +0.126 C 
BRANCH   8   9
ATOM      9  C   UNL     1      10.201  -1.402  22.733  0.00  0.00    +0.305 C 
ATOM     10  O   UNL     1      10.477  -2.563  23.014  0.00  0.00    -0.251 OA
BRANCH   9  11
ATOM     11  O   UNL     1      10.037  -1.024  21.452  0.00  0.00    -0.481 OA
ATOM     12  H   UNL     1      10.034  -0.057  21.272  0.00  0.00    +0.295 HD
ENDBRANCH   9  11
ENDBRANCH   8   9
ENDBRANCH   7   8
ENDBRANCH   3   7
TORSDOF 5
ENDMDL
MODEL 2
REMARK VINA RESULT:      -3.8      1.916      2.075
REMARK  Name = 
REMARK  6 active torsions:
REMARK  status: ('A' for Active; 'I' for Inactive)
REMARK    1  A    between atoms: C_1  and  C_2
REMARK    2  A    between atoms: C_3  and  N_4
REMARK    3  A    between atoms: C_3  and  C_5
REMARK    4  A    between atoms: C_5  and  C_6
REMARK    5  A    between atoms: C_6  and  C_7
REMARK    6  A    between atoms: C_7  and  O_8
REMARK                            x       y       z     vdW  Elec       q    Type
REMARK                         _______ _______ _______ _____ _____    ______ ____
ROOT
ATOM      1  C   UNL     1       7.400   3.087  22.089  0.00  0.00    +0.037 C 
ATOM      2  C   UNL     1       7.856   1.674  21.897  0.00  0.00    -0.012 C 
ATOM      3  C   UNL     1       9.129   1.289  21.709  0.00  0.00    -0.002 C 
ENDROOT
BRANCH   3   4
ATOM      4  N   UNL     1      10.195   2.167  21.693  0.00  0.00    -0.361 N 
ATOM      5  H   UNL     1      10.102   2.881  20.966  0.00  0.00    +0.142 HD
ATOM      6  H   UNL     1      11.091   1.688  21.562  0.00  0.00    +0.142 HD
ENDBRANCH   3   4
BRANCH   3   7
ATOM      7  C   UNL     1       9.467  -0.152  21.371  0.00  0.00    +0.061 C 
BRANCH   7   8
ATOM      8  C   UNL     1       8.899  -1.147  22.378  0.00  0.00    +0.126 C 
BRANCH   8   9
ATOM      9  C   UNL     1       9.812  -1.595  23.499  0.00  0.00    +0.305 C 
ATOM     10  O   UNL     1      10.241  -2.742  23.555  0.00  0.00    -0.251 OA
BRANCH   9  11
ATOM     11  O   UNL     1      10.209  -0.666  24.387  0.00  0.00    -0.481 OA
ATOM     12  H   UNL     1       9.867  -0.755  25.305  0.00  0.00    +0.295 HD
ENDBRANCH   9  11
ENDBRANCH   8   9
ENDBRANCH   7   8
ENDBRANCH   3   7
TORSDOF 5
ENDMDL
MODEL 3
REMARK VINA RESULT:      -3.7      2.363      2.625
REMARK  Name = 
REMARK  6 active torsions:
REMARK  status: ('A' for Active; 'I' for Inactive)
REMARK    1  A    between atoms: C_1  and  C_2
REMARK    2  A    between atoms: C_3  and  N_4
REMARK    3  A    between atoms: C_3  and  C_5
REMARK    4  A    between atoms: C_5  and  C_6
REMARK    5  A    between atoms: C_6  and  C_7
REMARK    6  A    between atoms: C_7  and  O_8
REMARK                            x       y       z     vdW  Elec       q    Type
REMARK                         _______ _______ _______ _____ _____    ______ ____
ROOT
ATOM      1  C   UNL     1       7.273   2.884  21.855  0.00  0.00    +0.037 C 
ATOM      2  C   UNL     1       7.944   1.558  22.028  0.00  0.00    -0.012 C 
ATOM      3  C   UNL     1       9.267   1.341  21.946  0.00  0.00    -0.002 C 
ENDROOT
BRANCH   3   4
ATOM      4  N   UNL     1      10.189   2.343  21.710  0.00  0.00    -0.361 N 
ATOM      5  H   UNL     1       9.990   2.861  20.850  0.00  0.00    +0.142 HD
ATOM      6  H   UNL     1      11.146   1.985  21.656  0.00  0.00    +0.142 HD
ENDBRANCH   3   4
BRANCH   3   7
ATOM      7  C   UNL     1       9.832  -0.068  21.983  0.00  0.00    +0.061 C 
BRANCH   7   8
ATOM      8  C   UNL     1       9.959  -0.618  23.400  0.00  0.00    +0.126 C 
BRANCH   8   9
ATOM      9  C   UNL     1      10.402   0.347  24.480  0.00  0.00    +0.305 C 
ATOM     10  O   UNL     1      11.492   0.905  24.433  0.00  0.00    -0.251 OA
BRANCH   9  11
ATOM     11  O   UNL     1       9.519   0.640  25.452  0.00  0.00    -0.481 OA
ATOM     12  H   UNL     1       8.754   0.031  25.555  0.00  0.00    +0.295 HD
ENDBRANCH   9  11
ENDBRANCH   8   9
ENDBRANCH   7   8
ENDBRANCH   3   7
TORSDOF 5
ENDMDL
MODEL 4
REMARK VINA RESULT:      -3.6      3.217      4.784
REMARK  Name = 
REMARK  6 active torsions:
REMARK  status: ('A' for Active; 'I' for Inactive)
REMARK    1  A    between atoms: C_1  and  C_2
REMARK    2  A    between atoms: C_3  and  N_4
REMARK    3  A    between atoms: C_3  and  C_5
REMARK    4  A    between atoms: C_5  and  C_6
REMARK    5  A    between atoms: C_6  and  C_7
REMARK    6  A    between atoms: C_7  and  O_8
REMARK                            x       y       z     vdW  Elec       q    Type
REMARK                         _______ _______ _______ _____ _____    ______ ____
ROOT
ATOM      1  C   UNL     1       6.228  -3.490  21.982  0.00  0.00    +0.037 C 
ATOM      2  C   UNL     1       7.500  -2.782  22.330  0.00  0.00    -0.012 C 
ATOM      3  C   UNL     1       7.589  -1.510  22.752  0.00  0.00    -0.002 C 
ENDROOT
BRANCH   3   4
ATOM      4  N   UNL     1       6.491  -0.693  22.943  0.00  0.00    -0.361 N 
ATOM      5  H   UNL     1       5.863  -0.689  22.134  0.00  0.00    +0.142 HD
ATOM      6  H   UNL     1       6.756   0.273  23.149  0.00  0.00    +0.142 HD
ENDBRANCH   3   4
BRANCH   3   7
ATOM      7  C   UNL     1       8.938  -0.838  22.930  0.00  0.00    +0.061 C 
BRANCH   7   8
ATOM      8  C   UNL     1       9.421  -0.134  21.666  0.00  0.00    +0.126 C 
BRANCH   8   9
ATOM      9  C   UNL     1       9.111   1.341  21.533  0.00  0.00    +0.305 C 
ATOM     10  O   UNL     1       7.956   1.751  21.478  0.00  0.00    -0.251 OA
BRANCH   9  11
ATOM     11  O   UNL     1      10.146   2.201  21.567  0.00  0.00    -0.481 OA
ATOM     12  H   UNL     1      10.996   1.857  21.922  0.00  0.00    +0.295 HD
ENDBRANCH   9  11
ENDBRANCH   8   9
ENDBRANCH   7   8
ENDBRANCH   3   7
TORSDOF 5
ENDMDL
MODEL 5
REMARK VINA RESULT:      -3.6      3.082      4.633
REMARK  Name = 
REMARK  6 active torsions:
REMARK  status: ('A' for Active; 'I' for Inactive)
REMARK    1  A    between atoms: C_1  and  C_2
REMARK    2  A    between atoms: C_3  and  N_4
REMARK    3  A    between atoms: C_3  and  C_5
REMARK    4  A    between atoms: C_5  and  C_6
REMARK    5  A    between atoms: C_6  and  C_7
REMARK    6  A    between atoms: C_7  and  O_8
REMARK                            x       y       z     vdW  Elec       q    Type
REMARK                         _______ _______ _______ _____ _____    ______ ____
ROOT
ATOM      1  C   UNL     1       9.022  -3.883  24.669  0.00  0.00    +0.037 C 
ATOM      2  C   UNL     1       9.784  -2.782  24.000  0.00  0.00    -0.012 C 
ATOM      3  C   UNL     1       9.328  -2.025  22.990  0.00  0.00    -0.002 C 
ENDROOT
BRANCH   3   4
ATOM      4  N   UNL     1       8.062  -2.158  22.451  0.00  0.00    -0.361 N 
ATOM      5  H   UNL     1       7.737  -1.298  22.000  0.00  0.00    +0.142 HD
ATOM      6  H   UNL     1       7.369  -2.437  23.150  0.00  0.00    +0.142 HD
ENDBRANCH   3   4
BRANCH   3   7
ATOM      7  C   UNL     1      10.237  -1.038  22.279  0.00  0.00    +0.061 C 
BRANCH   7   8
ATOM      8  C   UNL     1       9.472  -0.066  21.385  0.00  0.00    +0.126 C 
BRANCH   8   9
ATOM      9  C   UNL     1       9.252   1.334  21.915  0.00  0.00    +0.305 C 
ATOM     10  O   UNL     1       8.314   1.598  22.659  0.00  0.00    -0.251 OA
BRANCH   9  11
ATOM     11  O   UNL     1      10.174   2.267  21.612  0.00  0.00    -0.481 OA
ATOM     12  H   UNL     1       9.847   3.183  21.466  0.00  0.00    +0.295 HD
ENDBRANCH   9  11
ENDBRANCH   8   9
ENDBRANCH   7   8
ENDBRANCH   3   7
TORSDOF 5
ENDMDL
MODEL 6
REMARK VINA RESULT:      -3.5      3.526      5.469
REMARK  Name = 
REMARK  6 active torsions:
REMARK  status: ('A' for Active; 'I' for Inactive)
REMARK    1  A    between atoms: C_1  and  C_2
REMARK    2  A    between atoms: C_3  and  N_4
REMARK    3  A    between atoms: C_3  and  C_5
REMARK    4  A    between atoms: C_5  and  C_6
REMARK    5  A    between atoms: C_6  and  C_7
REMARK    6  A    between atoms: C_7  and  O_8
REMARK                            x       y       z     vdW  Elec       q    Type
REMARK                         _______ _______ _______ _____ _____    ______ ____
ROOT
ATOM      1  C   UNL     1       7.103  -5.893  22.367  0.00  0.00    +0.037 C 
ATOM      2  C   UNL     1       7.714  -4.943  23.349  0.00  0.00    -0.012 C 
ATOM      3  C   UNL     1       7.761  -3.608  23.210  0.00  0.00    -0.002 C 
ENDROOT
BRANCH   3   4
ATOM      4  N   UNL     1       7.219  -2.936  22.131  0.00  0.00    -0.361 N 
ATOM      5  H   UNL     1       7.900  -2.327  21.668  0.00  0.00    +0.142 HD
ATOM      6  H   UNL     1       6.408  -2.369  22.393  0.00  0.00    +0.142 HD
ENDBRANCH   3   4
BRANCH   3   7
ATOM      7  C   UNL     1       8.540  -2.747  24.188  0.00  0.00    +0.061 C 
BRANCH   7   8
ATOM      8  C   UNL     1       9.980  -2.506  23.749  0.00  0.00    +0.126 C 
BRANCH   8   9
ATOM      9  C   UNL     1      10.230  -1.359  22.793  0.00  0.00    +0.305 C 
ATOM     10  O   UNL     1      10.631  -0.270  23.189  0.00  0.00    -0.251 OA
BRANCH   9  11
ATOM     11  O   UNL     1      10.081  -1.601  21.477  0.00  0.00    -0.481 OA
ATOM     12  H   UNL     1       9.331  -1.152  21.026  0.00  0.00    +0.295 HD
ENDBRANCH   9  11
ENDBRANCH   8   9
ENDBRANCH   7   8
ENDBRANCH   3   7
TORSDOF 5
ENDMDL
MODEL 7
REMARK VINA RESULT:      -3.4      4.374      5.494
REMARK  Name = 
REMARK  6 active torsions:
REMARK  status: ('A' for Active; 'I' for Inactive)
REMARK    1  A    between atoms: C_1  and  C_2
REMARK    2  A    between atoms: C_3  and  N_4
REMARK    3  A    between atoms: C_3  and  C_5
REMARK    4  A    between atoms: C_5  and  C_6
REMARK    5  A    between atoms: C_6  and  C_7
REMARK    6  A    between atoms: C_7  and  O_8
REMARK                            x       y       z     vdW  Elec       q    Type
REMARK                         _______ _______ _______ _____ _____    ______ ____
ROOT
ATOM      1  C   UNL     1       9.458  -1.100  21.677  0.00  0.00    +0.037 C 
ATOM      2  C   UNL     1       8.483  -2.019  22.344  0.00  0.00    -0.012 C 
ATOM      3  C   UNL     1       8.747  -2.790  23.411  0.00  0.00    -0.002 C 
ENDROOT
BRANCH   3   4
ATOM      4  N   UNL     1       9.972  -2.809  24.051  0.00  0.00    -0.361 N 
ATOM      5  H   UNL     1      10.588  -2.053  23.737  0.00  0.00    +0.142 HD
ATOM      6  H   UNL     1      10.463  -3.698  23.923  0.00  0.00    +0.142 HD
ENDBRANCH   3   4
BRANCH   3   7
ATOM      7  C   UNL     1       7.734  -3.801  23.916  0.00  0.00    +0.061 C 
BRANCH   7   8
ATOM      8  C   UNL     1       8.379  -5.100  24.388  0.00  0.00    +0.126 C 
BRANCH   8   9
ATOM      9  C   UNL     1       8.483  -5.319  25.882  0.00  0.00    +0.305 C 
ATOM     10  O   UNL     1       7.565  -5.821  26.522  0.00  0.00    -0.251 OA
BRANCH   9  11
ATOM     11  O   UNL     1       9.654  -5.023  26.475  0.00  0.00    -0.481 OA
ATOM     12  H   UNL     1       9.910  -5.573  27.249  0.00  0.00    +0.295 HD
ENDBRANCH   9  11
ENDBRANCH   8   9
ENDBRANCH   7   8
ENDBRANCH   3   7
TORSDOF 5
ENDMDL
MODEL 8
REMARK VINA RESULT:      -3.4      2.674      3.920
REMARK  Name = 
REMARK  6 active torsions:
REMARK  status: ('A' for Active; 'I' for Inactive)
REMARK    1  A    between atoms: C_1  and  C_2
REMARK    2  A    between atoms: C_3  and  N_4
REMARK    3  A    between atoms: C_3  and  C_5
REMARK    4  A    between atoms: C_5  and  C_6
REMARK    5  A    between atoms: C_6  and  C_7
REMARK    6  A    between atoms: C_7  and  O_8
REMARK                            x       y       z     vdW  Elec       q    Type
REMARK                         _______ _______ _______ _____ _____    ______ ____
ROOT
ATOM      1  C   UNL     1       7.427  -2.183  25.416  0.00  0.00    +0.037 C 
ATOM      2  C   UNL     1       8.615  -1.515  24.799  0.00  0.00    -0.012 C 
ATOM      3  C   UNL     1       9.341  -0.540  25.370  0.00  0.00    -0.002 C 
ENDROOT
BRANCH   3   4
ATOM      4  N   UNL     1       9.086  -0.043  26.634  0.00  0.00    -0.361 N 
ATOM      5  H   UNL     1       8.172   0.414  26.697  0.00  0.00    +0.142 HD
ATOM      6  H   UNL     1       9.800   0.623  26.942  0.00  0.00    +0.142 HD
ENDBRANCH   3   4
BRANCH   3   7
ATOM      7  C   UNL     1      10.432   0.178  24.597  0.00  0.00    +0.061 C 
BRANCH   7   8
ATOM      8  C   UNL     1       9.897   1.320  23.739  0.00  0.00    +0.126 C 
BRANCH   8   9
ATOM      9  C   UNL     1      10.022   1.176  22.238  0.00  0.00    +0.305 C 
ATOM     10  O   UNL     1       9.893   0.089  21.686  0.00  0.00    -0.251 OA
BRANCH   9  11
ATOM     11  O   UNL     1      10.192   2.299  21.516  0.00  0.00    -0.481 OA
ATOM     12  H   UNL     1       9.852   3.134  21.909  0.00  0.00    +0.295 HD
ENDBRANCH   9  11
ENDBRANCH   8   9
ENDBRANCH   7   8
ENDBRANCH   3   7
TORSDOF 5
ENDMDL
MODEL 9
REMARK VINA RESULT:      -3.3      3.790      4.794
REMARK  Name = 
REMARK  6 active torsions:
REMARK  status: ('A' for Active; 'I' for Inactive)
REMARK    1  A    between atoms: C_1  and  C_2
REMARK    2  A    between atoms: C_3  and  N_4
REMARK    3  A    between atoms: C_3  and  C_5
REMARK    4  A    between atoms: C_5  and  C_6
REMARK    5  A    between atoms: C_6  and  C_7
REMARK    6  A    between atoms: C_7  and  O_8
REMARK                            x       y       z     vdW  Elec       q    Type
REMARK                         _______ _______ _______ _____ _____    ______ ____
ROOT
ATOM      1  C   UNL     1      10.373   0.395  24.908  0.00  0.00    +0.037 C 
ATOM      2  C   UNL     1       9.411  -0.735  25.099  0.00  0.00    -0.012 C 
ATOM      3  C   UNL     1       8.870  -1.104  26.271  0.00  0.00    -0.002 C 
ENDROOT
BRANCH   3   4
ATOM      4  N   UNL     1       9.125  -0.454  27.464  0.00  0.00    -0.361 N 
ATOM      5  H   UNL     1       8.686  -0.920  28.264  0.00  0.00    +0.142 HD
ATOM      6  H   UNL     1       8.814   0.521  27.450  0.00  0.00    +0.142 HD
ENDBRANCH   3   4
BRANCH   3   7
ATOM      7  C   UNL     1       8.025  -2.360  26.382  0.00  0.00    +0.061 C 
BRANCH   7   8
ATOM      8  C   UNL     1       8.296  -3.357  25.260  0.00  0.00    +0.126 C 
BRANCH   8   9
ATOM      9  C   UNL     1       9.210  -4.522  25.574  0.00  0.00    +0.305 C 
ATOM     10  O   UNL     1      10.164  -4.800  24.855  0.00  0.00    -0.251 OA
BRANCH   9  11
ATOM     11  O   UNL     1       8.993  -5.192  26.721  0.00  0.00    -0.481 OA
ATOM     12  H   UNL     1       8.823  -6.157  26.644  0.00  0.00    +0.295 HD
ENDBRANCH   9  11
ENDBRANCH   8   9
ENDBRANCH   7   8
ENDBRANCH   3   7
TORSDOF 5
ENDMDL
