MODEL 1
REMARK VINA RESULT:      -5.8      0.000      0.000
REMARK  Name = 
REMARK  3 active torsions:
REMARK  status: ('A' for Active; 'I' for Inactive)
REMARK    1  A    between atoms: O_1  and  C_2
REMARK    2  A    between atoms: C_2  and  C_4
REMARK    3  A    between atoms: C_4  and  O_5
REMARK                            x       y       z     vdW  Elec       q    Type
REMARK                         _______ _______ _______ _____ _____    ______ ____
ROOT
ATOM      1  C   UNL     1       9.088  -4.851  24.843  0.00  0.00    +0.330 C 
ATOM      2  C   UNL     1       8.916  -3.374  24.639  0.00  0.00    +0.063 C 
ATOM      3  C   UNL     1       8.136  -2.867  23.679  0.00  0.00    +0.014 C 
ATOM      4  C   UNL     1       7.439  -3.810  22.817  0.00  0.00    +0.017 A 
ATOM      5  C   UNL     1       7.692  -5.181  22.936  0.00  0.00    +0.132 A 
ATOM      6  C   UNL     1       7.042  -6.092  22.102  0.00  0.00    +0.046 A 
ATOM      7  C   UNL     1       6.127  -5.640  21.153  0.00  0.00    +0.004 A 
ATOM      8  C   UNL     1       5.866  -4.276  21.031  0.00  0.00    +0.001 A 
ATOM      9  C   UNL     1       6.524  -3.361  21.859  0.00  0.00    +0.011 A 
ATOM     10  O   UNL     1       8.585  -5.712  23.826  0.00  0.00    -0.447 OA
ENDROOT
BRANCH   1  11
ATOM     11  C   UNL     1       8.472  -5.267  26.222  0.00  0.00    +0.382 C 
ATOM     12  O   UNL     1       7.405  -5.841  26.400  0.00  0.00    -0.243 OA
BRANCH  11  13
ATOM     13  O   UNL     1       9.277  -4.889  27.262  0.00  0.00    -0.476 OA
ATOM     14  H   UNL     1       8.703  -4.817  28.062  0.00  0.00    +0.295 HD
ENDBRANCH  11  13
ENDBRANCH   1  11
BRANCH   1  15
ATOM     15  O   UNL     1      10.503  -5.088  24.934  0.00  0.00    -0.344 OA
ATOM     16  H   UNL     1      10.567  -6.046  24.760  0.00  0.00    +0.215 HD
ENDBRANCH   1  15
TORSDOF 3
ENDMDL
MODEL 2
REMARK VINA RESULT:      -5.5      2.113      3.844
REMARK  Name = 
REMARK  3 active torsions:
REMARK  status: ('A' for Active; 'I' for Inactive)
REMARK    1  A    between atoms: O_1  and  C_2
REMARK    2  A    between atoms: C_2  and  C_4
REMARK    3  A    between atoms: C_4  and  O_5
REMARK                            x       y       z     vdW  Elec       q    Type
REMARK                         _______ _______ _______ _____ _____    ______ ____
ROOT
ATOM      1  C   UNL     1       8.118  -3.812  25.096  0.00  0.00    +0.330 C 
ATOM      2  C   UNL     1       7.555  -4.092  23.733  0.00  0.00    +0.063 C 
ATOM      3  C   UNL     1       7.816  -3.320  22.674  0.00  0.00    +0.014 C 
ATOM      4  C   UNL     1       8.686  -2.172  22.883  0.00  0.00    +0.017 A 
ATOM      5  C   UNL     1       9.115  -1.849  24.175  0.00  0.00    +0.132 A 
ATOM      6  C   UNL     1       9.934  -0.739  24.388  0.00  0.00    +0.046 A 
ATOM      7  C   UNL     1      10.340   0.046  23.311  0.00  0.00    +0.004 A 
ATOM      8  C   UNL     1       9.922  -0.273  22.020  0.00  0.00    +0.001 A 
ATOM      9  C   UNL     1       9.092  -1.377  21.806  0.00  0.00    +0.011 A 
ATOM     10  O   UNL     1       8.752  -2.551  25.292  0.00  0.00    -0.447 OA
ENDROOT
BRANCH   1  11
ATOM     11  C   UNL     1       9.108  -4.955  25.502  0.00  0.00    +0.382 C 
ATOM     12  O   UNL     1      10.239  -5.128  25.067  0.00  0.00    -0.243 OA
BRANCH  11  13
ATOM     13  O   UNL     1       8.547  -5.796  26.424  0.00  0.00    -0.476 OA
ATOM     14  H   UNL     1       8.672  -5.381  27.311  0.00  0.00    +0.295 HD
ENDBRANCH  11  13
ENDBRANCH   1  11
BRANCH   1  15
ATOM     15  O   UNL     1       7.013  -3.875  26.015  0.00  0.00    -0.344 OA
ATOM     16  H   UNL     1       6.248  -3.707  25.434  0.00  0.00    +0.215 HD
ENDBRANCH   1  15
TORSDOF 3
ENDMDL
MODEL 3
REMARK VINA RESULT:      -5.5      2.275      3.941
REMARK  Name = 
REMARK  3 active torsions:
REMARK  status: ('A' for Active; 'I' for Inactive)
REMARK    1  A    between atoms: O_1  and  C_2
REMARK    2  A    between atoms: C_2  and  C_4
REMARK    3  A    between atoms: C_4  and  O_5
REMARK                            x       y       z     vdW  Elec       q    Type
REMARK                         _______ _______ _______ _____ _____    ______ ____
ROOT
ATOM      1  C   UNL     1       9.109  -4.349  25.153  0.00  0.00    +0.330 C 
ATOM      2  C   UNL     1       8.598  -3.531  26.304  0.00  0.00    +0.063 C 
ATOM      3  C   UNL     1       8.607  -2.195  26.296  0.00  0.00    +0.014 C 
ATOM      4  C   UNL     1       9.137  -1.537  25.111  0.00  0.00    +0.017 A 
ATOM      5  C   UNL     1       9.716  -2.300  24.091  0.00  0.00    +0.132 A 
ATOM      6  C   UNL     1      10.244  -1.677  22.959  0.00  0.00    +0.046 A 
ATOM      7  C   UNL     1      10.183  -0.290  22.833  0.00  0.00    +0.004 A 
ATOM      8  C   UNL     1       9.602   0.476  23.842  0.00  0.00    +0.001 A 
ATOM      9  C   UNL     1       9.083  -0.146  24.982  0.00  0.00    +0.011 A 
ATOM     10  O   UNL     1       9.835  -3.662  24.138  0.00  0.00    -0.447 OA
ENDROOT
BRANCH   1  11
ATOM     11  C   UNL     1       7.923  -5.134  24.497  0.00  0.00    +0.382 C 
ATOM     12  O   UNL     1       6.828  -5.353  25.000  0.00  0.00    -0.243 OA
BRANCH  11  13
ATOM     13  O   UNL     1       8.255  -5.590  23.251  0.00  0.00    -0.476 OA
ATOM     14  H   UNL     1       8.015  -4.880  22.608  0.00  0.00    +0.295 HD
ENDBRANCH  11  13
ENDBRANCH   1  11
BRANCH   1  15
ATOM     15  O   UNL     1       9.996  -5.332  25.713  0.00  0.00    -0.344 OA
ATOM     16  H   UNL     1       9.525  -5.604  26.523  0.00  0.00    +0.215 HD
ENDBRANCH   1  15
TORSDOF 3
ENDMDL
MODEL 4
REMARK VINA RESULT:      -5.5      2.860      4.341
REMARK  Name = 
REMARK  3 active torsions:
REMARK  status: ('A' for Active; 'I' for Inactive)
REMARK    1  A    between atoms: O_1  and  C_2
REMARK    2  A    between atoms: C_2  and  C_4
REMARK    3  A    between atoms: C_4  and  O_5
REMARK                            x       y       z     vdW  Elec       q    Type
REMARK                         _______ _______ _______ _____ _____    ______ ____
ROOT
ATOM      1  C   UNL     1       9.790  -1.707  22.943  0.00  0.00    +0.330 C 
ATOM      2  C   UNL     1       8.377  -1.634  22.442  0.00  0.00    +0.063 C 
ATOM      3  C   UNL     1       7.413  -2.446  22.887  0.00  0.00    +0.014 C 
ATOM      4  C   UNL     1       7.779  -3.426  23.898  0.00  0.00    +0.017 A 
ATOM      5  C   UNL     1       9.118  -3.568  24.277  0.00  0.00    +0.132 A 
ATOM      6  C   UNL     1       9.483  -4.519  25.232  0.00  0.00    +0.046 A 
ATOM      7  C   UNL     1       8.510  -5.323  25.823  0.00  0.00    +0.004 A 
ATOM      8  C   UNL     1       7.173  -5.183  25.455  0.00  0.00    +0.001 A 
ATOM      9  C   UNL     1       6.808  -4.239  24.490  0.00  0.00    +0.011 A 
ATOM     10  O   UNL     1      10.141  -2.836  23.738  0.00  0.00    -0.447 OA
ENDROOT
BRANCH   1  11
ATOM     11  C   UNL     1      10.141  -0.396  23.724  0.00  0.00    +0.382 C 
ATOM     12  O   UNL     1      10.208  -0.269  24.940  0.00  0.00    -0.243 OA
BRANCH  11  13
ATOM     13  O   UNL     1      10.356   0.650  22.870  0.00  0.00    -0.476 OA
ATOM     14  H   UNL     1      10.652   1.417  23.419  0.00  0.00    +0.295 HD
ENDBRANCH  11  13
ENDBRANCH   1  11
BRANCH   1  15
ATOM     15  O   UNL     1      10.634  -1.734  21.779  0.00  0.00    -0.344 OA
ATOM     16  H   UNL     1      10.278  -1.000  21.244  0.00  0.00    +0.215 HD
ENDBRANCH   1  15
TORSDOF 3
ENDMDL
MODEL 5
REMARK VINA RESULT:      -5.4      3.201      4.321
REMARK  Name = 
REMARK  3 active torsions:
REMARK  status: ('A' for Active; 'I' for Inactive)
REMARK    1  A    between atoms: O_1  and  C_2
REMARK    2  A    between atoms: C_2  and  C_4
REMARK    3  A    between atoms: C_4  and  O_5
REMARK                            x       y       z     vdW  Elec       q    Type
REMARK                         _______ _______ _______ _____ _____    ______ ____
ROOT
ATOM      1  C   UNL     1       8.685  -1.008  23.167  0.00  0.00    +0.330 C 
ATOM      2  C   UNL     1       9.448  -1.889  24.114  0.00  0.00    +0.063 C 
ATOM      3  C   UNL     1       9.181  -3.191  24.258  0.00  0.00    +0.014 C 
ATOM      4  C   UNL     1       8.104  -3.745  23.450  0.00  0.00    +0.017 A 
ATOM      5  C   UNL     1       7.322  -2.900  22.656  0.00  0.00    +0.132 A 
ATOM      6  C   UNL     1       6.276  -3.419  21.892  0.00  0.00    +0.046 A 
ATOM      7  C   UNL     1       6.015  -4.788  21.906  0.00  0.00    +0.004 A 
ATOM      8  C   UNL     1       6.793  -5.638  22.690  0.00  0.00    +0.001 A 
ATOM      9  C   UNL     1       7.834  -5.118  23.464  0.00  0.00    +0.011 A 
ATOM     10  O   UNL     1       7.496  -1.544  22.595  0.00  0.00    -0.447 OA
ENDROOT
BRANCH   1  11
ATOM     11  C   UNL     1       9.635  -0.520  22.022  0.00  0.00    +0.382 C 
ATOM     12  O   UNL     1       9.783   0.635  21.642  0.00  0.00    -0.243 OA
BRANCH  11  13
ATOM     13  O   UNL     1      10.301  -1.567  21.446  0.00  0.00    -0.476 OA
ATOM     14  H   UNL     1      10.534  -1.292  20.526  0.00  0.00    +0.295 HD
ENDBRANCH  11  13
ENDBRANCH   1  11
BRANCH   1  15
ATOM     15  O   UNL     1       8.303   0.160  23.915  0.00  0.00    -0.344 OA
ATOM     16  H   UNL     1       7.343   0.210  23.748  0.00  0.00    +0.215 HD
ENDBRANCH   1  15
TORSDOF 3
ENDMDL
MODEL 6
REMARK VINA RESULT:      -5.3      6.910      8.698
REMARK  Name = 
REMARK  3 active torsions:
REMARK  status: ('A' for Active; 'I' for Inactive)
REMARK    1  A    between atoms: O_1  and  C_2
REMARK    2  A    between atoms: C_2  and  C_4
REMARK    3  A    between atoms: C_4  and  O_5
REMARK                            x       y       z     vdW  Elec       q    Type
REMARK                         _______ _______ _______ _____ _____    ______ ____
ROOT
ATOM      1  C   UNL     1       9.874   1.189  23.359  0.00  0.00    +0.330 C 
ATOM      2  C   UNL     1       8.593   1.699  23.952  0.00  0.00    +0.063 C 
ATOM      3  C   UNL     1       8.407   2.986  24.263  0.00  0.00    +0.014 C 
ATOM      4  C   UNL     1       9.508   3.902  24.002  0.00  0.00    +0.017 A 
ATOM      5  C   UNL     1      10.737   3.405  23.557  0.00  0.00    +0.132 A 
ATOM      6  C   UNL     1      11.804   4.273  23.322  0.00  0.00    +0.046 A 
ATOM      7  C   UNL     1      11.644   5.644  23.515  0.00  0.00    +0.004 A 
ATOM      8  C   UNL     1      10.420   6.148  23.953  0.00  0.00    +0.001 A 
ATOM      9  C   UNL     1       9.354   5.278  24.200  0.00  0.00    +0.011 A 
ATOM     10  O   UNL     1      10.990   2.075  23.357  0.00  0.00    -0.447 OA
ENDROOT
BRANCH   1  11
ATOM     11  C   UNL     1       9.614   0.684  21.899  0.00  0.00    +0.382 C 
ATOM     12  O   UNL     1       9.841  -0.438  21.466  0.00  0.00    -0.243 OA
BRANCH  11  13
ATOM     13  O   UNL     1       9.101   1.678  21.112  0.00  0.00    -0.476 OA
ATOM     14  H   UNL     1       8.151   1.460  20.952  0.00  0.00    +0.295 HD
ENDBRANCH  11  13
ENDBRANCH   1  11
BRANCH   1  15
ATOM     15  O   UNL     1      10.253   0.038  24.133  0.00  0.00    -0.344 OA
ATOM     16  H   UNL     1      11.225   0.113  24.160  0.00  0.00    +0.215 HD
ENDBRANCH   1  15
TORSDOF 3
ENDMDL
MODEL 7
REMARK VINA RESULT:      -5.3      3.456      5.105
REMARK  Name = 
REMARK  3 active torsions:
REMARK  status: ('A' for Active; 'I' for Inactive)
REMARK    1  A    between atoms: O_1  and  C_2
REMARK    2  A    between atoms: C_2  and  C_4
REMARK    3  A    between atoms: C_4  and  O_5
REMARK                            x       y       z     vdW  Elec       q    Type
REMARK                         _______ _______ _______ _____ _____    ______ ____
ROOT
ATOM      1  C   UNL     1       9.153  -2.541  24.026  0.00  0.00    +0.330 C 
ATOM      2  C   UNL     1       8.979  -1.885  25.364  0.00  0.00    +0.063 C 
ATOM      3  C   UNL     1       9.101  -0.566  25.540  0.00  0.00    +0.014 C 
ATOM      4  C   UNL     1       9.412   0.238  24.368  0.00  0.00    +0.017 A 
ATOM      5  C   UNL     1       9.687  -0.388  23.147  0.00  0.00    +0.132 A 
ATOM      6  C   UNL     1      10.006   0.374  22.022  0.00  0.00    +0.046 A 
ATOM      7  C   UNL     1      10.038   1.765  22.106  0.00  0.00    +0.004 A 
ATOM      8  C   UNL     1       9.760   2.395  23.318  0.00  0.00    +0.001 A 
ATOM      9  C   UNL     1       9.451   1.634  24.449  0.00  0.00    +0.011 A 
ATOM     10  O   UNL     1       9.696  -1.745  22.976  0.00  0.00    -0.447 OA
ENDROOT
BRANCH   1  11
ATOM     11  C   UNL     1       7.790  -3.152  23.557  0.00  0.00    +0.382 C 
ATOM     12  O   UNL     1       7.602  -3.830  22.554  0.00  0.00    -0.243 OA
BRANCH  11  13
ATOM     13  O   UNL     1       6.775  -2.821  24.412  0.00  0.00    -0.476 OA
ATOM     14  H   UNL     1       6.688  -3.561  25.060  0.00  0.00    +0.295 HD
ENDBRANCH  11  13
ENDBRANCH   1  11
BRANCH   1  15
ATOM     15  O   UNL     1      10.054  -3.644  24.226  0.00  0.00    -0.344 OA
ATOM     16  H   UNL     1      10.667  -3.554  23.472  0.00  0.00    +0.215 HD
ENDBRANCH   1  15
TORSDOF 3
ENDMDL
MODEL 8
REMARK VINA RESULT:      -5.2      3.937      5.692
REMARK  Name = 
REMARK  3 active torsions:
REMARK  status: ('A' for Active; 'I' for Inactive)
REMARK    1  A    between atoms: O_1  and  C_2
REMARK    2  A    between atoms: C_2  and  C_4
REMARK    3  A    between atoms: C_4  and  O_5
REMARK                            x       y       z     vdW  Elec       q    Type
REMARK                         _______ _______ _______ _____ _____    ______ ____
ROOT
ATOM      1  C   UNL     1       8.222  -1.810  23.053  0.00  0.00    +0.330 C 
ATOM      2  C   UNL     1       8.936  -1.587  21.752  0.00  0.00    +0.063 C 
ATOM      3  C   UNL     1       9.555  -0.439  21.459  0.00  0.00    +0.014 C 
ATOM      4  C   UNL     1       9.521   0.614  22.463  0.00  0.00    +0.017 A 
ATOM      5  C   UNL     1       8.759   0.444  23.624  0.00  0.00    +0.132 A 
ATOM      6  C   UNL     1       8.704   1.455  24.584  0.00  0.00    +0.046 A 
ATOM      7  C   UNL     1       9.421   2.636  24.397  0.00  0.00    +0.004 A 
ATOM      8  C   UNL     1      10.186   2.810  23.245  0.00  0.00    +0.001 A 
ATOM      9  C   UNL     1      10.234   1.802  22.277  0.00  0.00    +0.011 A 
ATOM     10  O   UNL     1       8.011  -0.672  23.883  0.00  0.00    -0.447 OA
ENDROOT
BRANCH   1  11
ATOM     11  C   UNL     1       8.962  -2.919  23.876  0.00  0.00    +0.382 C 
ATOM     12  O   UNL     1       8.440  -3.766  24.589  0.00  0.00    -0.243 OA
BRANCH  11  13
ATOM     13  O   UNL     1      10.319  -2.830  23.726  0.00  0.00    -0.476 OA
ATOM     14  H   UNL     1      10.616  -3.656  23.273  0.00  0.00    +0.295 HD
ENDBRANCH  11  13
ENDBRANCH   1  11
BRANCH   1  15
ATOM     15  O   UNL     1       6.925  -2.336  22.722  0.00  0.00    -0.344 OA
ATOM     16  H   UNL     1       7.130  -3.257  22.474  0.00  0.00    +0.215 HD
ENDBRANCH   1  15
TORSDOF 3
ENDMDL
MODEL 9
REMARK VINA RESULT:      -5.2      2.954      4.646
REMARK  Name = 
REMARK  3 active torsions:
REMARK  status: ('A' for Active; 'I' for Inactive)
REMARK    1  A    between atoms: O_1  and  C_2
REMARK    2  A    between atoms: C_2  and  C_4
REMARK    3  A    between atoms: C_4  and  O_5
REMARK                            x       y       z     vdW  Elec       q    Type
REMARK                         _______ _______ _______ _____ _____    ______ ____
ROOT
ATOM      1  C   UNL     1       7.360  -3.455  22.984  0.00  0.00    +0.330 C 
ATOM      2  C   UNL     1       6.345  -2.656  23.750  0.00  0.00    +0.063 C 
ATOM      3  C   UNL     1       6.335  -1.319  23.752  0.00  0.00    +0.014 C 
ATOM      4  C   UNL     1       7.359  -0.642  22.970  0.00  0.00    +0.017 A 
ATOM      5  C   UNL     1       8.370  -1.387  22.353  0.00  0.00    +0.132 A 
ATOM      6  C   UNL     1       9.367  -0.745  21.617  0.00  0.00    +0.046 A 
ATOM      7  C   UNL     1       9.352   0.642  21.481  0.00  0.00    +0.004 A 
ATOM      8  C   UNL     1       8.344   1.390  22.088  0.00  0.00    +0.001 A 
ATOM      9  C   UNL     1       7.351   0.750  22.835  0.00  0.00    +0.011 A 
ATOM     10  O   UNL     1       8.474  -2.748  22.447  0.00  0.00    -0.447 OA
ENDROOT
BRANCH   1  11
ATOM     11  C   UNL     1       6.650  -4.248  21.836  0.00  0.00    +0.382 C 
ATOM     12  O   UNL     1       5.700  -3.864  21.166  0.00  0.00    -0.243 OA
BRANCH  11  13
ATOM     13  O   UNL     1       7.212  -5.482  21.661  0.00  0.00    -0.476 OA
ATOM     14  H   UNL     1       6.796  -5.879  20.858  0.00  0.00    +0.295 HD
ENDBRANCH  11  13
ENDBRANCH   1  11
BRANCH   1  15
ATOM     15  O   UNL     1       7.885  -4.432  23.900  0.00  0.00    -0.344 OA
ATOM     16  H   UNL     1       8.575  -4.870  23.366  0.00  0.00    +0.215 HD
ENDBRANCH   1  15
TORSDOF 3
ENDMDL
