MODEL 1
REMARK VINA RESULT:      -6.1      0.000      0.000
REMARK  Name = 
REMARK  17 active torsions:
REMARK  status: ('A' for Active; 'I' for Inactive)
REMARK    1  A    between atoms: C_2  and  O_3
REMARK    2  A    between atoms: C_2  and  C_4
REMARK    3  A    between atoms: C_2  and  C_29
REMARK    4  A    between atoms: C_4  and  C_5
REMARK    5  A    between atoms: C_5  and  C_6
REMARK    6  A    between atoms: C_8  and  C_10
REMARK    7  A    between atoms: C_17  and  O_19
REMARK    8  A    between atoms: O_19  and  C_20
REMARK    9  A    between atoms: C_20  and  C_22
REMARK   10  A    between atoms: C_22  and  C_24
REMARK   11  A    between atoms: C_22  and  C_25
REMARK   12  A    between atoms: C_25  and  C_26
REMARK   13  A    between atoms: C_29  and  C_30
REMARK   14  A    between atoms: C_30  and  O_32
REMARK   15  A    between atoms: C_30  and  C_33
REMARK   16  A    between atoms: C_33  and  C_34
REMARK   17  A    between atoms: C_34  and  O_35
REMARK                            x       y       z     vdW  Elec       q    Type
REMARK                         _______ _______ _______ _____ _____    ______ ____
ROOT
ATOM      1  C   UNL     1       6.540  -4.372  23.519  0.00  0.00    +0.007 C 
ATOM      2  C   UNL     1       6.442  -5.325  24.774  0.00  0.00    +0.063 C 
ATOM      3  C   UNL     1       5.062  -5.998  24.875  0.00  0.00    -0.045 C 
ATOM      4  C   UNL     1       4.549  -6.441  26.033  0.00  0.00    -0.023 C 
ATOM      5  C   UNL     1       5.222  -6.249  27.344  0.00  0.00    +0.031 C 
ATOM      6  C   UNL     1       5.985  -4.943  27.355  0.00  0.00    +0.049 C 
ATOM      7  C   UNL     1       4.296  -6.213  23.669  0.00  0.00    -0.000 C 
ATOM      8  C   UNL     1       4.701  -5.808  22.467  0.00  0.00    -0.023 C 
ATOM      9  C   UNL     1       6.907  -4.695  26.140  0.00  0.00    +0.184 C 
ATOM     10  C   UNL     1       5.979  -5.065  22.229  0.00  0.00    +0.012 C 
ATOM     11  C   UNL     1       6.967  -6.013  21.536  0.00  0.00    +0.012 C 
ENDROOT
BRANCH   1  12
ATOM     12  C   UNL     1       7.948  -3.744  23.220  0.00  0.00    +0.007 C 
BRANCH  12  13
ATOM     13  C   UNL     1       7.775  -2.357  22.551  0.00  0.00    +0.032 C 
BRANCH  13  14
ATOM     14  C   UNL     1       8.987  -1.420  22.507  0.00  0.00    +0.117 C 
BRANCH  14  15
ATOM     15  O   UNL     1       9.804  -1.727  21.371  0.00  0.00    -0.392 OA
ATOM     16  H   UNL     1      10.720  -1.482  21.581  0.00  0.00    +0.210 HD
ENDBRANCH  14  15
BRANCH  14  17
ATOM     17  C   UNL     1       8.558   0.056  22.328  0.00  0.00    +0.063 C 
BRANCH  17  18
ATOM     18  C   UNL     1       9.690   1.050  22.039  0.00  0.00    +0.128 C 
BRANCH  18  19
ATOM     19  O   UNL     1       9.185   2.181  21.318  0.00  0.00    -0.391 OA
ATOM     20  H   UNL     1       8.331   2.438  21.723  0.00  0.00    +0.210 HD
ENDBRANCH  18  19
BRANCH  18  21
ATOM     21  C   UNL     1      10.344   1.560  23.327  0.00  0.00    +0.151 C 
BRANCH  21  22
ATOM     22  C   UNL     1      10.251   3.059  23.502  0.00  0.00    +0.307 C 
ATOM     23  O   UNL     1       9.316   3.605  24.068  0.00  0.00    -0.251 OA
BRANCH  22  24
ATOM     24  O   UNL     1      11.234   3.767  22.903  0.00  0.00    -0.481 OA
ATOM     25  H   UNL     1      10.961   4.688  22.674  0.00  0.00    +0.295 HD
ENDBRANCH  22  24
ENDBRANCH  21  22
ENDBRANCH  18  21
ENDBRANCH  17  18
ENDBRANCH  14  17
ENDBRANCH  13  14
ENDBRANCH  12  13
ENDBRANCH   1  12
BRANCH   9  26
ATOM     26  O   UNL     1       7.024  -3.258  26.018  0.00  0.00    -0.461 OA
BRANCH  26  27
ATOM     27  C   UNL     1       8.157  -2.673  26.492  0.00  0.00    +0.310 C 
ATOM     28  O   UNL     1       9.177  -3.271  26.805  0.00  0.00    -0.251 OA
BRANCH  27  29
ATOM     29  C   UNL     1       8.024  -1.157  26.534  0.00  0.00    +0.094 C 
ATOM     30  C   UNL     1       9.336  -0.525  26.078  0.00  0.00    +0.019 C 
BRANCH  29  31
ATOM     31  C   UNL     1       6.843  -0.621  25.706  0.00  0.00    +0.011 C 
ATOM     32  C   UNL     1       6.854   0.898  25.604  0.00  0.00    +0.004 C 
ENDBRANCH  29  31
ENDBRANCH  27  29
ENDBRANCH  26  27
ENDBRANCH   9  26
TORSDOF 14
ENDMDL
MODEL 2
REMARK VINA RESULT:      -6.1      1.884      3.246
REMARK  Name = 
REMARK  17 active torsions:
REMARK  status: ('A' for Active; 'I' for Inactive)
REMARK    1  A    between atoms: C_2  and  O_3
REMARK    2  A    between atoms: C_2  and  C_4
REMARK    3  A    between atoms: C_2  and  C_29
REMARK    4  A    between atoms: C_4  and  C_5
REMARK    5  A    between atoms: C_5  and  C_6
REMARK    6  A    between atoms: C_8  and  C_10
REMARK    7  A    between atoms: C_17  and  O_19
REMARK    8  A    between atoms: O_19  and  C_20
REMARK    9  A    between atoms: C_20  and  C_22
REMARK   10  A    between atoms: C_22  and  C_24
REMARK   11  A    between atoms: C_22  and  C_25
REMARK   12  A    between atoms: C_25  and  C_26
REMARK   13  A    between atoms: C_29  and  C_30
REMARK   14  A    between atoms: C_30  and  O_32
REMARK   15  A    between atoms: C_30  and  C_33
REMARK   16  A    between atoms: C_33  and  C_34
REMARK   17  A    between atoms: C_34  and  O_35
REMARK                            x       y       z     vdW  Elec       q    Type
REMARK                         _______ _______ _______ _____ _____    ______ ____
ROOT
ATOM      1  C   UNL     1       6.985  -3.318  24.843  0.00  0.00    +0.007 C 
ATOM      2  C   UNL     1       6.485  -4.813  24.760  0.00  0.00    +0.063 C 
ATOM      3  C   UNL     1       5.162  -4.932  23.984  0.00  0.00    -0.045 C 
ATOM      4  C   UNL     1       4.296  -5.941  24.168  0.00  0.00    -0.023 C 
ATOM      5  C   UNL     1       4.487  -6.995  25.199  0.00  0.00    +0.031 C 
ATOM      6  C   UNL     1       5.182  -6.421  26.413  0.00  0.00    +0.049 C 
ATOM      7  C   UNL     1       4.849  -3.948  22.974  0.00  0.00    -0.000 C 
ATOM      8  C   UNL     1       5.628  -2.900  22.712  0.00  0.00    -0.023 C 
ATOM      9  C   UNL     1       6.455  -5.593  26.128  0.00  0.00    +0.184 C 
ATOM     10  C   UNL     1       6.901  -2.609  23.446  0.00  0.00    +0.012 C 
ATOM     11  C   UNL     1       8.077  -2.908  22.509  0.00  0.00    +0.012 C 
ENDROOT
BRANCH   1  12
ATOM     12  C   UNL     1       8.401  -3.083  25.478  0.00  0.00    +0.007 C 
BRANCH  12  13
ATOM     13  C   UNL     1       8.403  -1.762  26.288  0.00  0.00    +0.032 C 
BRANCH  13  14
ATOM     14  C   UNL     1       9.126  -0.549  25.691  0.00  0.00    +0.117 C 
BRANCH  14  15
ATOM     15  O   UNL     1       9.969  -0.964  24.609  0.00  0.00    -0.392 OA
ATOM     16  H   UNL     1       9.801  -0.379  23.852  0.00  0.00    +0.210 HD
ENDBRANCH  14  15
BRANCH  14  17
ATOM     17  C   UNL     1       8.128   0.462  25.078  0.00  0.00    +0.063 C 
BRANCH  17  18
ATOM     18  C   UNL     1       8.747   1.728  24.472  0.00  0.00    +0.128 C 
BRANCH  18  19
ATOM     19  O   UNL     1      10.166   1.735  24.679  0.00  0.00    -0.391 OA
ATOM     20  H   UNL     1      10.396   2.563  25.147  0.00  0.00    +0.210 HD
ENDBRANCH  18  19
BRANCH  18  21
ATOM     21  C   UNL     1       8.485   1.827  22.967  0.00  0.00    +0.151 C 
BRANCH  21  22
ATOM     22  C   UNL     1       9.670   1.425  22.118  0.00  0.00    +0.307 C 
ATOM     23  O   UNL     1      10.005   0.261  21.951  0.00  0.00    -0.251 OA
BRANCH  22  24
ATOM     24  O   UNL     1      10.398   2.454  21.627  0.00  0.00    -0.481 OA
ATOM     25  H   UNL     1      10.371   2.509  20.642  0.00  0.00    +0.295 HD
ENDBRANCH  22  24
ENDBRANCH  21  22
ENDBRANCH  18  21
ENDBRANCH  17  18
ENDBRANCH  14  17
ENDBRANCH  13  14
ENDBRANCH  12  13
ENDBRANCH   1  12
BRANCH   9  26
ATOM     26  O   UNL     1       6.584  -4.671  27.236  0.00  0.00    -0.461 OA
BRANCH  26  27
ATOM     27  C   UNL     1       5.871  -4.935  28.364  0.00  0.00    +0.310 C 
ATOM     28  O   UNL     1       6.230  -5.684  29.262  0.00  0.00    -0.251 OA
BRANCH  27  29
ATOM     29  C   UNL     1       4.580  -4.131  28.407  0.00  0.00    +0.094 C 
ATOM     30  C   UNL     1       4.135  -3.969  29.857  0.00  0.00    +0.019 C 
BRANCH  29  31
ATOM     31  C   UNL     1       4.686  -2.762  27.712  0.00  0.00    +0.011 C 
ATOM     32  C   UNL     1       3.761  -2.653  26.508  0.00  0.00    +0.004 C 
ENDBRANCH  29  31
ENDBRANCH  27  29
ENDBRANCH  26  27
ENDBRANCH   9  26
TORSDOF 14
ENDMDL
MODEL 3
REMARK VINA RESULT:      -5.9      1.847      4.365
REMARK  Name = 
REMARK  17 active torsions:
REMARK  status: ('A' for Active; 'I' for Inactive)
REMARK    1  A    between atoms: C_2  and  O_3
REMARK    2  A    between atoms: C_2  and  C_4
REMARK    3  A    between atoms: C_2  and  C_29
REMARK    4  A    between atoms: C_4  and  C_5
REMARK    5  A    between atoms: C_5  and  C_6
REMARK    6  A    between atoms: C_8  and  C_10
REMARK    7  A    between atoms: C_17  and  O_19
REMARK    8  A    between atoms: O_19  and  C_20
REMARK    9  A    between atoms: C_20  and  C_22
REMARK   10  A    between atoms: C_22  and  C_24
REMARK   11  A    between atoms: C_22  and  C_25
REMARK   12  A    between atoms: C_25  and  C_26
REMARK   13  A    between atoms: C_29  and  C_30
REMARK   14  A    between atoms: C_30  and  O_32
REMARK   15  A    between atoms: C_30  and  C_33
REMARK   16  A    between atoms: C_33  and  C_34
REMARK   17  A    between atoms: C_34  and  O_35
REMARK                            x       y       z     vdW  Elec       q    Type
REMARK                         _______ _______ _______ _____ _____    ______ ____
ROOT
ATOM      1  C   UNL     1       5.400  -3.420  25.849  0.00  0.00    +0.007 C 
ATOM      2  C   UNL     1       4.311  -4.441  25.334  0.00  0.00    +0.063 C 
ATOM      3  C   UNL     1       4.604  -5.877  25.804  0.00  0.00    -0.045 C 
ATOM      4  C   UNL     1       4.162  -6.963  25.151  0.00  0.00    -0.023 C 
ATOM      5  C   UNL     1       3.420  -6.890  23.865  0.00  0.00    +0.031 C 
ATOM      6  C   UNL     1       3.906  -5.714  23.046  0.00  0.00    +0.049 C 
ATOM      7  C   UNL     1       5.344  -6.077  27.028  0.00  0.00    -0.000 C 
ATOM      8  C   UNL     1       5.839  -5.075  27.753  0.00  0.00    -0.023 C 
ATOM      9  C   UNL     1       3.987  -4.365  23.794  0.00  0.00    +0.184 C 
ATOM     10  C   UNL     1       5.707  -3.632  27.372  0.00  0.00    +0.012 C 
ATOM     11  C   UNL     1       4.698  -2.974  28.322  0.00  0.00    +0.012 C 
ENDROOT
BRANCH   1  12
ATOM     12  C   UNL     1       5.131  -1.900  25.563  0.00  0.00    +0.007 C 
BRANCH  12  13
ATOM     13  C   UNL     1       6.439  -1.091  25.745  0.00  0.00    +0.032 C 
BRANCH  13  14
ATOM     14  C   UNL     1       7.490  -1.155  24.629  0.00  0.00    +0.117 C 
BRANCH  14  15
ATOM     15  O   UNL     1       6.854  -1.043  23.350  0.00  0.00    -0.392 OA
ATOM     16  H   UNL     1       5.932  -0.772  23.493  0.00  0.00    +0.210 HD
ENDBRANCH  14  15
BRANCH  14  17
ATOM     17  C   UNL     1       8.479   0.031  24.711  0.00  0.00    +0.063 C 
BRANCH  17  18
ATOM     18  C   UNL     1       9.924  -0.274  24.298  0.00  0.00    +0.128 C 
BRANCH  18  19
ATOM     19  O   UNL     1      10.004  -1.572  23.694  0.00  0.00    -0.391 OA
ATOM     20  H   UNL     1       9.090  -1.888  23.541  0.00  0.00    +0.210 HD
ENDBRANCH  18  19
BRANCH  18  21
ATOM     21  C   UNL     1      10.460   0.752  23.294  0.00  0.00    +0.151 C 
BRANCH  21  22
ATOM     22  C   UNL     1       9.702   0.772  21.986  0.00  0.00    +0.307 C 
ATOM     23  O   UNL     1       9.283  -0.240  21.445  0.00  0.00    -0.251 OA
BRANCH  22  24
ATOM     24  O   UNL     1       9.602   1.988  21.401  0.00  0.00    -0.481 OA
ATOM     25  H   UNL     1      10.474   2.441  21.305  0.00  0.00    +0.295 HD
ENDBRANCH  22  24
ENDBRANCH  21  22
ENDBRANCH  18  21
ENDBRANCH  17  18
ENDBRANCH  14  17
ENDBRANCH  13  14
ENDBRANCH  12  13
ENDBRANCH   1  12
BRANCH   9  26
ATOM     26  O   UNL     1       4.996  -3.590  23.105  0.00  0.00    -0.461 OA
BRANCH  26  27
ATOM     27  C   UNL     1       5.766  -4.231  22.185  0.00  0.00    +0.310 C 
ATOM     28  O   UNL     1       5.700  -4.061  20.976  0.00  0.00    -0.251 OA
BRANCH  27  29
ATOM     29  C   UNL     1       6.775  -5.156  22.850  0.00  0.00    +0.094 C 
ATOM     30  C   UNL     1       7.255  -6.189  21.837  0.00  0.00    +0.019 C 
BRANCH  29  31
ATOM     31  C   UNL     1       7.967  -4.413  23.479  0.00  0.00    +0.011 C 
ATOM     32  C   UNL     1       8.424  -5.057  24.781  0.00  0.00    +0.004 C 
ENDBRANCH  29  31
ENDBRANCH  27  29
ENDBRANCH  26  27
ENDBRANCH   9  26
TORSDOF 14
ENDMDL
MODEL 4
REMARK VINA RESULT:      -5.9      1.910      4.078
REMARK  Name = 
REMARK  17 active torsions:
REMARK  status: ('A' for Active; 'I' for Inactive)
REMARK    1  A    between atoms: C_2  and  O_3
REMARK    2  A    between atoms: C_2  and  C_4
REMARK    3  A    between atoms: C_2  and  C_29
REMARK    4  A    between atoms: C_4  and  C_5
REMARK    5  A    between atoms: C_5  and  C_6
REMARK    6  A    between atoms: C_8  and  C_10
REMARK    7  A    between atoms: C_17  and  O_19
REMARK    8  A    between atoms: O_19  and  C_20
REMARK    9  A    between atoms: C_20  and  C_22
REMARK   10  A    between atoms: C_22  and  C_24
REMARK   11  A    between atoms: C_22  and  C_25
REMARK   12  A    between atoms: C_25  and  C_26
REMARK   13  A    between atoms: C_29  and  C_30
REMARK   14  A    between atoms: C_30  and  O_32
REMARK   15  A    between atoms: C_30  and  C_33
REMARK   16  A    between atoms: C_33  and  C_34
REMARK   17  A    between atoms: C_34  and  O_35
REMARK                            x       y       z     vdW  Elec       q    Type
REMARK                         _______ _______ _______ _____ _____    ______ ____
ROOT
ATOM      1  C   UNL     1       6.991  -2.775  24.914  0.00  0.00    +0.007 C 
ATOM      2  C   UNL     1       5.981  -3.507  25.882  0.00  0.00    +0.063 C 
ATOM      3  C   UNL     1       6.603  -4.765  26.513  0.00  0.00    -0.045 C 
ATOM      4  C   UNL     1       5.868  -5.798  26.956  0.00  0.00    -0.023 C 
ATOM      5  C   UNL     1       4.391  -5.867  26.805  0.00  0.00    +0.031 C 
ATOM      6  C   UNL     1       3.964  -5.186  25.524  0.00  0.00    +0.049 C 
ATOM      7  C   UNL     1       8.035  -4.829  26.686  0.00  0.00    -0.000 C 
ATOM      8  C   UNL     1       8.862  -3.869  26.276  0.00  0.00    -0.023 C 
ATOM      9  C   UNL     1       4.548  -3.775  25.287  0.00  0.00    +0.184 C 
ATOM     10  C   UNL     1       8.408  -2.629  25.570  0.00  0.00    +0.012 C 
ATOM     11  C   UNL     1       8.541  -1.446  26.538  0.00  0.00    +0.012 C 
ENDROOT
BRANCH   1  12
ATOM     12  C   UNL     1       6.528  -1.395  24.326  0.00  0.00    +0.007 C 
BRANCH  12  13
ATOM     13  C   UNL     1       7.257  -1.122  22.986  0.00  0.00    +0.032 C 
BRANCH  13  14
ATOM     14  C   UNL     1       7.760   0.300  22.713  0.00  0.00    +0.117 C 
BRANCH  14  15
ATOM     15  O   UNL     1       7.074   1.233  23.557  0.00  0.00    -0.392 OA
ATOM     16  H   UNL     1       6.989   2.072  23.075  0.00  0.00    +0.210 HD
ENDBRANCH  14  15
BRANCH  14  17
ATOM     17  C   UNL     1       9.260   0.448  23.058  0.00  0.00    +0.063 C 
BRANCH  17  18
ATOM     18  C   UNL     1       9.992   1.610  22.374  0.00  0.00    +0.128 C 
BRANCH  18  19
ATOM     19  O   UNL     1       9.100   2.310  21.497  0.00  0.00    -0.391 OA
ATOM     20  H   UNL     1       9.346   3.257  21.513  0.00  0.00    +0.210 HD
ENDBRANCH  18  19
BRANCH  18  21
ATOM     21  C   UNL     1      10.546   2.613  23.390  0.00  0.00    +0.151 C 
BRANCH  21  22
ATOM     22  C   UNL     1       9.515   3.599  23.892  0.00  0.00    +0.307 C 
ATOM     23  O   UNL     1       8.811   3.385  24.868  0.00  0.00    -0.251 OA
BRANCH  22  24
ATOM     24  O   UNL     1       9.359   4.703  23.127  0.00  0.00    -0.481 OA
ATOM     25  H   UNL     1      10.205   5.186  22.971  0.00  0.00    +0.295 HD
ENDBRANCH  22  24
ENDBRANCH  21  22
ENDBRANCH  18  21
ENDBRANCH  17  18
ENDBRANCH  14  17
ENDBRANCH  13  14
ENDBRANCH  12  13
ENDBRANCH   1  12
BRANCH   9  26
ATOM     26  O   UNL     1       4.554  -3.585  23.853  0.00  0.00    -0.461 OA
BRANCH  26  27
ATOM     27  C   UNL     1       4.147  -4.624  23.075  0.00  0.00    +0.310 C 
ATOM     28  O   UNL     1       3.000  -5.043  23.009  0.00  0.00    -0.251 OA
BRANCH  27  29
ATOM     29  C   UNL     1       5.293  -5.176  22.239  0.00  0.00    +0.094 C 
ATOM     30  C   UNL     1       6.027  -4.020  21.567  0.00  0.00    +0.019 C 
BRANCH  29  31
ATOM     31  C   UNL     1       6.271  -6.051  23.042  0.00  0.00    +0.011 C 
ATOM     32  C   UNL     1       7.707  -5.555  22.937  0.00  0.00    +0.004 C 
ENDBRANCH  29  31
ENDBRANCH  27  29
ENDBRANCH  26  27
ENDBRANCH   9  26
TORSDOF 14
ENDMDL
MODEL 5
REMARK VINA RESULT:      -5.8      2.924      7.502
REMARK  Name = 
REMARK  17 active torsions:
REMARK  status: ('A' for Active; 'I' for Inactive)
REMARK    1  A    between atoms: C_2  and  O_3
REMARK    2  A    between atoms: C_2  and  C_4
REMARK    3  A    between atoms: C_2  and  C_29
REMARK    4  A    between atoms: C_4  and  C_5
REMARK    5  A    between atoms: C_5  and  C_6
REMARK    6  A    between atoms: C_8  and  C_10
REMARK    7  A    between atoms: C_17  and  O_19
REMARK    8  A    between atoms: O_19  and  C_20
REMARK    9  A    between atoms: C_20  and  C_22
REMARK   10  A    between atoms: C_22  and  C_24
REMARK   11  A    between atoms: C_22  and  C_25
REMARK   12  A    between atoms: C_25  and  C_26
REMARK   13  A    between atoms: C_29  and  C_30
REMARK   14  A    between atoms: C_30  and  O_32
REMARK   15  A    between atoms: C_30  and  C_33
REMARK   16  A    between atoms: C_33  and  C_34
REMARK   17  A    between atoms: C_34  and  O_35
REMARK                            x       y       z     vdW  Elec       q    Type
REMARK                         _______ _______ _______ _____ _____    ______ ____
ROOT
ATOM      1  C   UNL     1       6.827  -0.683  24.974  0.00  0.00    +0.007 C 
ATOM      2  C   UNL     1       8.304  -0.648  24.418  0.00  0.00    +0.063 C 
ATOM      3  C   UNL     1       8.371  -0.036  23.008  0.00  0.00    -0.045 C 
ATOM      4  C   UNL     1       9.354  -0.316  22.137  0.00  0.00    -0.023 C 
ATOM      5  C   UNL     1      10.426  -1.307  22.415  0.00  0.00    +0.031 C 
ATOM      6  C   UNL     1       9.889  -2.433  23.270  0.00  0.00    +0.049 C 
ATOM      7  C   UNL     1       7.365   0.920  22.609  0.00  0.00    -0.000 C 
ATOM      8  C   UNL     1       6.339   1.265  23.385  0.00  0.00    -0.023 C 
ATOM      9  C   UNL     1       9.099  -2.004  24.526  0.00  0.00    +0.184 C 
ATOM     10  C   UNL     1       6.098   0.688  24.746  0.00  0.00    +0.012 C 
ATOM     11  C   UNL     1       6.424   1.762  25.791  0.00  0.00    +0.012 C 
ENDROOT
BRANCH   1  12
ATOM     12  C   UNL     1       6.645  -1.144  26.464  0.00  0.00    +0.007 C 
BRANCH  12  13
ATOM     13  C   UNL     1       5.410  -2.072  26.581  0.00  0.00    +0.032 C 
BRANCH  13  14
ATOM     14  C   UNL     1       5.575  -3.405  27.321  0.00  0.00    +0.117 C 
BRANCH  14  15
ATOM     15  O   UNL     1       4.739  -3.427  28.484  0.00  0.00    -0.392 OA
ATOM     16  H   UNL     1       5.115  -2.814  29.138  0.00  0.00    +0.210 HD
ENDBRANCH  14  15
BRANCH  14  17
ATOM     17  C   UNL     1       5.113  -4.598  26.451  0.00  0.00    +0.063 C 
BRANCH  17  18
ATOM     18  C   UNL     1       5.834  -5.928  26.705  0.00  0.00    +0.128 C 
BRANCH  18  19
ATOM     19  O   UNL     1       7.223  -5.696  26.973  0.00  0.00    -0.391 OA
ATOM     20  H   UNL     1       7.739  -6.377  26.494  0.00  0.00    +0.210 HD
ENDBRANCH  18  19
BRANCH  18  21
ATOM     21  C   UNL     1       5.238  -6.682  27.897  0.00  0.00    +0.151 C 
BRANCH  21  22
ATOM     22  C   UNL     1       6.098  -6.628  29.140  0.00  0.00    +0.307 C 
ATOM     23  O   UNL     1       6.164  -5.644  29.860  0.00  0.00    -0.251 OA
BRANCH  22  24
ATOM     24  O   UNL     1       6.868  -7.720  29.350  0.00  0.00    -0.481 OA
ATOM     25  H   UNL     1       7.377  -7.675  30.195  0.00  0.00    +0.295 HD
ENDBRANCH  22  24
ENDBRANCH  21  22
ENDBRANCH  18  21
ENDBRANCH  17  18
ENDBRANCH  14  17
ENDBRANCH  13  14
ENDBRANCH  12  13
ENDBRANCH   1  12
BRANCH   9  26
ATOM     26  O   UNL     1       8.196  -3.096  24.819  0.00  0.00    -0.461 OA
BRANCH  26  27
ATOM     27  C   UNL     1       8.394  -4.273  24.167  0.00  0.00    +0.310 C 
ATOM     28  O   UNL     1       9.153  -5.158  24.534  0.00  0.00    -0.251 OA
BRANCH  27  29
ATOM     29  C   UNL     1       7.505  -4.384  22.937  0.00  0.00    +0.094 C 
ATOM     30  C   UNL     1       7.412  -5.847  22.514  0.00  0.00    +0.019 C 
BRANCH  29  31
ATOM     31  C   UNL     1       6.102  -3.783  23.137  0.00  0.00    +0.011 C 
ATOM     32  C   UNL     1       5.789  -2.699  22.115  0.00  0.00    +0.004 C 
ENDBRANCH  29  31
ENDBRANCH  27  29
ENDBRANCH  26  27
ENDBRANCH   9  26
TORSDOF 14
ENDMDL
MODEL 6
REMARK VINA RESULT:      -5.8      2.629      7.234
REMARK  Name = 
REMARK  17 active torsions:
REMARK  status: ('A' for Active; 'I' for Inactive)
REMARK    1  A    between atoms: C_2  and  O_3
REMARK    2  A    between atoms: C_2  and  C_4
REMARK    3  A    between atoms: C_2  and  C_29
REMARK    4  A    between atoms: C_4  and  C_5
REMARK    5  A    between atoms: C_5  and  C_6
REMARK    6  A    between atoms: C_8  and  C_10
REMARK    7  A    between atoms: C_17  and  O_19
REMARK    8  A    between atoms: O_19  and  C_20
REMARK    9  A    between atoms: C_20  and  C_22
REMARK   10  A    between atoms: C_22  and  C_24
REMARK   11  A    between atoms: C_22  and  C_25
REMARK   12  A    between atoms: C_25  and  C_26
REMARK   13  A    between atoms: C_29  and  C_30
REMARK   14  A    between atoms: C_30  and  O_32
REMARK   15  A    between atoms: C_30  and  C_33
REMARK   16  A    between atoms: C_33  and  C_34
REMARK   17  A    between atoms: C_34  and  O_35
REMARK                            x       y       z     vdW  Elec       q    Type
REMARK                         _______ _______ _______ _____ _____    ______ ____
ROOT
ATOM      1  C   UNL     1       8.372  -0.316  23.558  0.00  0.00    +0.007 C 
ATOM      2  C   UNL     1       8.256   1.148  22.977  0.00  0.00    +0.063 C 
ATOM      3  C   UNL     1       9.260   2.108  23.639  0.00  0.00    -0.045 C 
ATOM      4  C   UNL     1       9.067   3.435  23.704  0.00  0.00    -0.023 C 
ATOM      5  C   UNL     1       7.828   4.098  23.221  0.00  0.00    +0.031 C 
ATOM      6  C   UNL     1       6.634   3.193  23.428  0.00  0.00    +0.049 C 
ATOM      7  C   UNL     1      10.492   1.576  24.174  0.00  0.00    -0.000 C 
ATOM      8  C   UNL     1      10.786   0.277  24.173  0.00  0.00    -0.023 C 
ATOM      9  C   UNL     1       6.798   1.741  22.925  0.00  0.00    +0.184 C 
ATOM     10  C   UNL     1       9.868  -0.781  23.642  0.00  0.00    +0.012 C 
ATOM     11  C   UNL     1      10.446  -1.302  22.320  0.00  0.00    +0.012 C 
ENDROOT
BRANCH   1  12
ATOM     12  C   UNL     1       7.506  -1.422  22.857  0.00  0.00    +0.007 C 
BRANCH  12  13
ATOM     13  C   UNL     1       7.019  -2.452  23.906  0.00  0.00    +0.032 C 
BRANCH  13  14
ATOM     14  C   UNL     1       7.413  -3.922  23.714  0.00  0.00    +0.117 C 
BRANCH  14  15
ATOM     15  O   UNL     1       7.392  -4.256  22.321  0.00  0.00    -0.392 OA
ATOM     16  H   UNL     1       6.626  -4.833  22.160  0.00  0.00    +0.210 HD
ENDBRANCH  14  15
BRANCH  14  17
ATOM     17  C   UNL     1       8.862  -4.188  24.186  0.00  0.00    +0.063 C 
BRANCH  17  18
ATOM     18  C   UNL     1       9.027  -5.278  25.253  0.00  0.00    +0.128 C 
BRANCH  18  19
ATOM     19  O   UNL     1      10.418  -5.546  25.477  0.00  0.00    -0.391 OA
ATOM     20  H   UNL     1      10.489  -6.116  26.269  0.00  0.00    +0.210 HD
ENDBRANCH  18  19
BRANCH  18  21
ATOM     21  C   UNL     1       8.400  -4.869  26.589  0.00  0.00    +0.151 C 
BRANCH  21  22
ATOM     22  C   UNL     1       7.262  -5.764  27.024  0.00  0.00    +0.307 C 
ATOM     23  O   UNL     1       6.309  -6.025  26.304  0.00  0.00    -0.251 OA
BRANCH  22  24
ATOM     24  O   UNL     1       7.324  -6.185  28.308  0.00  0.00    -0.481 OA
ATOM     25  H   UNL     1       6.463  -6.096  28.783  0.00  0.00    +0.295 HD
ENDBRANCH  22  24
ENDBRANCH  21  22
ENDBRANCH  18  21
ENDBRANCH  17  18
ENDBRANCH  14  17
ENDBRANCH  13  14
ENDBRANCH  12  13
ENDBRANCH   1  12
BRANCH   9  26
ATOM     26  O   UNL     1       5.899   0.940  23.727  0.00  0.00    -0.461 OA
BRANCH  26  27
ATOM     27  C   UNL     1       5.414   1.490  24.873  0.00  0.00    +0.310 C 
ATOM     28  O   UNL     1       4.286   1.942  25.011  0.00  0.00    -0.251 OA
BRANCH  27  29
ATOM     29  C   UNL     1       6.436   1.423  25.998  0.00  0.00    +0.094 C 
ATOM     30  C   UNL     1       6.153   2.536  27.002  0.00  0.00    +0.019 C 
BRANCH  29  31
ATOM     31  C   UNL     1       6.487   0.055  26.701  0.00  0.00    +0.011 C 
ATOM     32  C   UNL     1       7.908  -0.353  27.067  0.00  0.00    +0.004 C 
ENDBRANCH  29  31
ENDBRANCH  27  29
ENDBRANCH  26  27
ENDBRANCH   9  26
TORSDOF 14
ENDMDL
MODEL 7
REMARK VINA RESULT:      -5.8      1.939      3.900
REMARK  Name = 
REMARK  17 active torsions:
REMARK  status: ('A' for Active; 'I' for Inactive)
REMARK    1  A    between atoms: C_2  and  O_3
REMARK    2  A    between atoms: C_2  and  C_4
REMARK    3  A    between atoms: C_2  and  C_29
REMARK    4  A    between atoms: C_4  and  C_5
REMARK    5  A    between atoms: C_5  and  C_6
REMARK    6  A    between atoms: C_8  and  C_10
REMARK    7  A    between atoms: C_17  and  O_19
REMARK    8  A    between atoms: O_19  and  C_20
REMARK    9  A    between atoms: C_20  and  C_22
REMARK   10  A    between atoms: C_22  and  C_24
REMARK   11  A    between atoms: C_22  and  C_25
REMARK   12  A    between atoms: C_25  and  C_26
REMARK   13  A    between atoms: C_29  and  C_30
REMARK   14  A    between atoms: C_30  and  O_32
REMARK   15  A    between atoms: C_30  and  C_33
REMARK   16  A    between atoms: C_33  and  C_34
REMARK   17  A    between atoms: C_34  and  O_35
REMARK                            x       y       z     vdW  Elec       q    Type
REMARK                         _______ _______ _______ _____ _____    ______ ____
ROOT
ATOM      1  C   UNL     1       6.771  -1.428  24.207  0.00  0.00    +0.007 C 
ATOM      2  C   UNL     1       5.514  -2.287  23.788  0.00  0.00    +0.063 C 
ATOM      3  C   UNL     1       4.665  -2.691  25.006  0.00  0.00    -0.045 C 
ATOM      4  C   UNL     1       3.868  -3.771  25.013  0.00  0.00    -0.023 C 
ATOM      5  C   UNL     1       3.790  -4.730  23.880  0.00  0.00    +0.031 C 
ATOM      6  C   UNL     1       5.135  -4.841  23.195  0.00  0.00    +0.049 C 
ATOM      7  C   UNL     1       4.680  -1.853  26.182  0.00  0.00    -0.000 C 
ATOM      8  C   UNL     1       5.440  -0.764  26.290  0.00  0.00    -0.023 C 
ATOM      9  C   UNL     1       5.814  -3.502  22.831  0.00  0.00    +0.184 C 
ATOM     10  C   UNL     1       6.379  -0.298  25.221  0.00  0.00    +0.012 C 
ATOM     11  C   UNL     1       5.786   0.960  24.572  0.00  0.00    +0.012 C 
ENDROOT
BRANCH   1  12
ATOM     12  C   UNL     1       7.634  -0.827  23.041  0.00  0.00    +0.007 C 
BRANCH  12  13
ATOM     13  C   UNL     1       9.060  -0.506  23.552  0.00  0.00    +0.032 C 
BRANCH  13  14
ATOM     14  C   UNL     1      10.095  -0.002  22.539  0.00  0.00    +0.117 C 
BRANCH  14  15
ATOM     15  O   UNL     1       9.922  -0.674  21.286  0.00  0.00    -0.392 OA
ATOM     16  H   UNL     1       9.025  -0.484  20.962  0.00  0.00    +0.210 HD
ENDBRANCH  14  15
BRANCH  14  17
ATOM     17  C   UNL     1       9.908   1.504  22.237  0.00  0.00    +0.063 C 
BRANCH  17  18
ATOM     18  C   UNL     1      10.345   2.468  23.347  0.00  0.00    +0.128 C 
BRANCH  18  19
ATOM     19  O   UNL     1      11.159   3.515  22.802  0.00  0.00    -0.391 OA
ATOM     20  H   UNL     1      11.751   3.117  22.133  0.00  0.00    +0.210 HD
ENDBRANCH  18  19
BRANCH  18  21
ATOM     21  C   UNL     1       9.147   3.112  24.049  0.00  0.00    +0.151 C 
BRANCH  21  22
ATOM     22  C   UNL     1       9.083   4.614  23.884  0.00  0.00    +0.307 C 
ATOM     23  O   UNL     1       9.465   5.394  24.744  0.00  0.00    -0.251 OA
BRANCH  22  24
ATOM     24  O   UNL     1       8.482   5.040  22.750  0.00  0.00    -0.481 OA
ATOM     25  H   UNL     1       7.652   5.548  22.922  0.00  0.00    +0.295 HD
ENDBRANCH  22  24
ENDBRANCH  21  22
ENDBRANCH  18  21
ENDBRANCH  17  18
ENDBRANCH  14  17
ENDBRANCH  13  14
ENDBRANCH  12  13
ENDBRANCH   1  12
BRANCH   9  26
ATOM     26  O   UNL     1       7.234  -3.776  22.794  0.00  0.00    -0.461 OA
BRANCH  26  27
ATOM     27  C   UNL     1       7.642  -5.041  23.081  0.00  0.00    +0.310 C 
ATOM     28  O   UNL     1       7.493  -6.009  22.349  0.00  0.00    -0.251 OA
BRANCH  27  29
ATOM     29  C   UNL     1       8.368  -5.102  24.417  0.00  0.00    +0.094 C 
ATOM     30  C   UNL     1       9.318  -3.913  24.528  0.00  0.00    +0.019 C 
BRANCH  29  31
ATOM     31  C   UNL     1       7.421  -5.157  25.629  0.00  0.00    +0.011 C 
ATOM     32  C   UNL     1       7.711  -4.054  26.638  0.00  0.00    +0.004 C 
ENDBRANCH  29  31
ENDBRANCH  27  29
ENDBRANCH  26  27
ENDBRANCH   9  26
TORSDOF 14
ENDMDL
MODEL 8
REMARK VINA RESULT:      -5.8      2.708      7.861
REMARK  Name = 
REMARK  17 active torsions:
REMARK  status: ('A' for Active; 'I' for Inactive)
REMARK    1  A    between atoms: C_2  and  O_3
REMARK    2  A    between atoms: C_2  and  C_4
REMARK    3  A    between atoms: C_2  and  C_29
REMARK    4  A    between atoms: C_4  and  C_5
REMARK    5  A    between atoms: C_5  and  C_6
REMARK    6  A    between atoms: C_8  and  C_10
REMARK    7  A    between atoms: C_17  and  O_19
REMARK    8  A    between atoms: O_19  and  C_20
REMARK    9  A    between atoms: C_20  and  C_22
REMARK   10  A    between atoms: C_22  and  C_24
REMARK   11  A    between atoms: C_22  and  C_25
REMARK   12  A    between atoms: C_25  and  C_26
REMARK   13  A    between atoms: C_29  and  C_30
REMARK   14  A    between atoms: C_30  and  O_32
REMARK   15  A    between atoms: C_30  and  C_33
REMARK   16  A    between atoms: C_33  and  C_34
REMARK   17  A    between atoms: C_34  and  O_35
REMARK                            x       y       z     vdW  Elec       q    Type
REMARK                         _______ _______ _______ _____ _____    ______ ____
ROOT
ATOM      1  C   UNL     1       6.826  -0.534  24.984  0.00  0.00    +0.007 C 
ATOM      2  C   UNL     1       8.110  -0.375  24.079  0.00  0.00    +0.063 C 
ATOM      3  C   UNL     1       7.968   0.788  23.082  0.00  0.00    -0.045 C 
ATOM      4  C   UNL     1       8.646   0.844  21.924  0.00  0.00    -0.023 C 
ATOM      5  C   UNL     1       9.534  -0.250  21.451  0.00  0.00    +0.031 C 
ATOM      6  C   UNL     1       8.997  -1.591  21.899  0.00  0.00    +0.049 C 
ATOM      7  C   UNL     1       7.108   1.899  23.417  0.00  0.00    -0.000 C 
ATOM      8  C   UNL     1       6.381   1.947  24.532  0.00  0.00    -0.023 C 
ATOM      9  C   UNL     1       8.622  -1.698  23.394  0.00  0.00    +0.184 C 
ATOM     10  C   UNL     1       6.353   0.850  25.551  0.00  0.00    +0.012 C 
ATOM     11  C   UNL     1       7.120   1.324  26.792  0.00  0.00    +0.012 C 
ENDROOT
BRANCH   1  12
ATOM     12  C   UNL     1       6.908  -1.589  26.144  0.00  0.00    +0.007 C 
BRANCH  12  13
ATOM     13  C   UNL     1       5.542  -2.301  26.305  0.00  0.00    +0.032 C 
BRANCH  13  14
ATOM     14  C   UNL     1       5.467  -3.520  27.231  0.00  0.00    +0.117 C 
BRANCH  14  15
ATOM     15  O   UNL     1       4.652  -3.221  28.371  0.00  0.00    -0.392 OA
ATOM     16  H   UNL     1       4.722  -2.269  28.551  0.00  0.00    +0.210 HD
ENDBRANCH  14  15
BRANCH  14  17
ATOM     17  C   UNL     1       4.787  -4.723  26.535  0.00  0.00    +0.063 C 
BRANCH  17  18
ATOM     18  C   UNL     1       5.465  -6.084  26.739  0.00  0.00    +0.128 C 
BRANCH  18  19
ATOM     19  O   UNL     1       6.890  -5.931  26.757  0.00  0.00    -0.391 OA
ATOM     20  H   UNL     1       7.258  -6.460  26.020  0.00  0.00    +0.210 HD
ENDBRANCH  18  19
BRANCH  18  21
ATOM     21  C   UNL     1       5.040  -6.741  28.055  0.00  0.00    +0.151 C 
BRANCH  21  22
ATOM     22  C   UNL     1       6.097  -6.675  29.135  0.00  0.00    +0.307 C 
ATOM     23  O   UNL     1       6.839  -7.610  29.397  0.00  0.00    -0.251 OA
BRANCH  22  24
ATOM     24  O   UNL     1       6.102  -5.534  29.862  0.00  0.00    -0.481 OA
ATOM     25  H   UNL     1       6.991  -5.318  30.232  0.00  0.00    +0.295 HD
ENDBRANCH  22  24
ENDBRANCH  21  22
ENDBRANCH  18  21
ENDBRANCH  17  18
ENDBRANCH  14  17
ENDBRANCH  13  14
ENDBRANCH  12  13
ENDBRANCH   1  12
BRANCH   9  26
ATOM     26  O   UNL     1       7.612  -2.731  23.476  0.00  0.00    -0.461 OA
BRANCH  26  27
ATOM     27  C   UNL     1       8.030  -4.008  23.689  0.00  0.00    +0.310 C 
ATOM     28  O   UNL     1       9.115  -4.322  24.158  0.00  0.00    -0.251 OA
BRANCH  27  29
ATOM     29  C   UNL     1       6.949  -5.015  23.324  0.00  0.00    +0.094 C 
ATOM     30  C   UNL     1       5.629  -4.281  23.112  0.00  0.00    +0.019 C 
BRANCH  29  31
ATOM     31  C   UNL     1       7.300  -5.873  22.096  0.00  0.00    +0.011 C 
ATOM     32  C   UNL     1       6.277  -5.723  20.977  0.00  0.00    +0.004 C 
ENDBRANCH  29  31
ENDBRANCH  27  29
ENDBRANCH  26  27
ENDBRANCH   9  26
TORSDOF 14
ENDMDL
MODEL 9
REMARK VINA RESULT:      -5.6      1.917      4.145
REMARK  Name = 
REMARK  17 active torsions:
REMARK  status: ('A' for Active; 'I' for Inactive)
REMARK    1  A    between atoms: C_2  and  O_3
REMARK    2  A    between atoms: C_2  and  C_4
REMARK    3  A    between atoms: C_2  and  C_29
REMARK    4  A    between atoms: C_4  and  C_5
REMARK    5  A    between atoms: C_5  and  C_6
REMARK    6  A    between atoms: C_8  and  C_10
REMARK    7  A    between atoms: C_17  and  O_19
REMARK    8  A    between atoms: O_19  and  C_20
REMARK    9  A    between atoms: C_20  and  C_22
REMARK   10  A    between atoms: C_22  and  C_24
REMARK   11  A    between atoms: C_22  and  C_25
REMARK   12  A    between atoms: C_25  and  C_26
REMARK   13  A    between atoms: C_29  and  C_30
REMARK   14  A    between atoms: C_30  and  O_32
REMARK   15  A    between atoms: C_30  and  C_33
REMARK   16  A    between atoms: C_33  and  C_34
REMARK   17  A    between atoms: C_34  and  O_35
REMARK                            x       y       z     vdW  Elec       q    Type
REMARK                         _______ _______ _______ _____ _____    ______ ____
ROOT
ATOM      1  C   UNL     1       5.672  -2.629  26.730  0.00  0.00    +0.007 C 
ATOM      2  C   UNL     1       4.829  -3.898  26.313  0.00  0.00    +0.063 C 
ATOM      3  C   UNL     1       4.113  -4.531  27.519  0.00  0.00    -0.045 C 
ATOM      4  C   UNL     1       3.755  -5.824  27.559  0.00  0.00    -0.023 C 
ATOM      5  C   UNL     1       4.088  -6.791  26.481  0.00  0.00    +0.031 C 
ATOM      6  C   UNL     1       5.420  -6.440  25.855  0.00  0.00    +0.049 C 
ATOM      7  C   UNL     1       3.763  -3.697  28.645  0.00  0.00    -0.000 C 
ATOM      8  C   UNL     1       4.076  -2.404  28.719  0.00  0.00    -0.023 C 
ATOM      9  C   UNL     1       5.596  -4.962  25.440  0.00  0.00    +0.184 C 
ATOM     10  C   UNL     1       4.845  -1.675  27.661  0.00  0.00    +0.012 C 
ATOM     11  C   UNL     1       3.880  -0.742  26.919  0.00  0.00    +0.012 C 
ENDROOT
BRANCH   1  12
ATOM     12  C   UNL     1       6.326  -1.805  25.565  0.00  0.00    +0.007 C 
BRANCH  12  13
ATOM     13  C   UNL     1       7.800  -1.480  25.913  0.00  0.00    +0.032 C 
BRANCH  13  14
ATOM     14  C   UNL     1       8.716  -0.984  24.788  0.00  0.00    +0.117 C 
BRANCH  14  15
ATOM     15  O   UNL     1       7.938  -0.354  23.763  0.00  0.00    -0.392 OA
ATOM     16  H   UNL     1       8.289  -0.632  22.901  0.00  0.00    +0.210 HD
ENDBRANCH  14  15
BRANCH  14  17
ATOM     17  C   UNL     1       9.700   0.098  25.291  0.00  0.00    +0.063 C 
BRANCH  17  18
ATOM     18  C   UNL     1      10.775   0.541  24.291  0.00  0.00    +0.128 C 
BRANCH  18  19
ATOM     19  O   UNL     1      10.665  -0.213  23.077  0.00  0.00    -0.391 OA
ATOM     20  H   UNL     1      10.168   0.330  22.431  0.00  0.00    +0.210 HD
ENDBRANCH  18  19
BRANCH  18  21
ATOM     21  C   UNL     1      10.651   2.027  23.941  0.00  0.00    +0.151 C 
BRANCH  21  22
ATOM     22  C   UNL     1       9.698   2.305  22.801  0.00  0.00    +0.307 C 
ATOM     23  O   UNL     1       8.499   2.474  22.963  0.00  0.00    -0.251 OA
BRANCH  22  24
ATOM     24  O   UNL     1      10.252   2.259  21.568  0.00  0.00    -0.481 OA
ATOM     25  H   UNL     1      10.353   1.338  21.226  0.00  0.00    +0.295 HD
ENDBRANCH  22  24
ENDBRANCH  21  22
ENDBRANCH  18  21
ENDBRANCH  17  18
ENDBRANCH  14  17
ENDBRANCH  13  14
ENDBRANCH  12  13
ENDBRANCH   1  12
BRANCH   9  26
ATOM     26  O   UNL     1       7.020  -4.708  25.473  0.00  0.00    -0.461 OA
BRANCH  26  27
ATOM     27  C   UNL     1       7.737  -4.983  24.350  0.00  0.00    +0.310 C 
ATOM     28  O   UNL     1       8.896  -5.372  24.336  0.00  0.00    -0.251 OA
BRANCH  27  29
ATOM     29  C   UNL     1       6.896  -4.799  23.094  0.00  0.00    +0.094 C 
ATOM     30  C   UNL     1       7.327  -3.521  22.382  0.00  0.00    +0.019 C 
BRANCH  29  31
ATOM     31  C   UNL     1       6.952  -6.003  22.137  0.00  0.00    +0.011 C 
ATOM     32  C   UNL     1       6.217  -5.735  20.831  0.00  0.00    +0.004 C 
ENDBRANCH  29  31
ENDBRANCH  27  29
ENDBRANCH  26  27
ENDBRANCH   9  26
TORSDOF 14
ENDMDL
