MODEL 1
REMARK VINA RESULT:      -3.5      0.000      0.000
REMARK  Name = 
REMARK  4 active torsions:
REMARK  status: ('A' for Active; 'I' for Inactive)
REMARK    1  A    between atoms: N_1  and  C_2
REMARK    2  A    between atoms: C_2  and  C_3
REMARK    3  A    between atoms: C_3  and  S_4
REMARK    4  A    between atoms: S_4  and  O_5
REMARK                            x       y       z     vdW  Elec       q    Type
REMARK                         _______ _______ _______ _____ _____    ______ ____
ROOT
ATOM      1  C   UNL     1       8.584  -3.733  26.434  0.00  0.00    +0.212 C 
ENDROOT
BRANCH   1   2
ATOM      2  S   UNL     1       9.262  -4.496  24.970  0.00  0.00    +0.081 S 
ATOM      3  O   UNL     1      10.044  -3.530  24.235  0.00  0.00    -0.147 OA
ATOM      4  O   UNL     1       8.264  -5.331  24.344  0.00  0.00    -0.147 OA
BRANCH   2   5
ATOM      5  O   UNL     1      10.279  -5.511  25.703  0.00  0.00    -0.254 OA
ATOM      6  H   UNL     1       9.832  -6.381  25.787  0.00  0.00    +0.244 HD
ENDBRANCH   2   5
ENDBRANCH   1   2
BRANCH   1   7
ATOM      7  C   UNL     1       7.385  -4.526  26.927  0.00  0.00    +0.103 C 
BRANCH   7   8
ATOM      8  N   UNL     1       7.796  -5.845  27.413  0.00  0.00    -0.328 NA
ATOM      9  H   UNL     1       7.098  -6.545  27.159  0.00  0.00    +0.118 HD
ATOM     10  H   UNL     1       8.654  -6.126  26.936  0.00  0.00    +0.118 HD
ENDBRANCH   7   8
ENDBRANCH   1   7
TORSDOF 4
ENDMDL
MODEL 2
REMARK VINA RESULT:      -3.3      2.601      3.027
REMARK  Name = 
REMARK  4 active torsions:
REMARK  status: ('A' for Active; 'I' for Inactive)
REMARK    1  A    between atoms: N_1  and  C_2
REMARK    2  A    between atoms: C_2  and  C_3
REMARK    3  A    between atoms: C_3  and  S_4
REMARK    4  A    between atoms: S_4  and  O_5
REMARK                            x       y       z     vdW  Elec       q    Type
REMARK                         _______ _______ _______ _____ _____    ______ ____
ROOT
ATOM      1  C   UNL     1       8.740  -3.930  26.358  0.00  0.00    +0.212 C 
ENDROOT
BRANCH   1   2
ATOM      2  S   UNL     1       7.237  -4.847  26.651  0.00  0.00    +0.081 S 
ATOM      3  O   UNL     1       6.799  -5.471  25.426  0.00  0.00    -0.147 OA
ATOM      4  O   UNL     1       6.352  -4.079  27.496  0.00  0.00    -0.147 OA
BRANCH   2   5
ATOM      5  O   UNL     1       7.860  -5.991  27.603  0.00  0.00    -0.254 OA
ATOM      6  H   UNL     1       7.727  -5.715  28.536  0.00  0.00    +0.244 HD
ENDBRANCH   2   5
ENDBRANCH   1   2
BRANCH   1   7
ATOM      7  C   UNL     1       9.425  -4.441  25.101  0.00  0.00    +0.103 C 
BRANCH   7   8
ATOM      8  N   UNL     1       9.905  -5.813  25.290  0.00  0.00    -0.328 NA
ATOM      9  H   UNL     1       9.342  -6.459  24.736  0.00  0.00    +0.118 HD
ATOM     10  H   UNL     1      10.854  -5.889  24.922  0.00  0.00    +0.118 HD
ENDBRANCH   7   8
ENDBRANCH   1   7
TORSDOF 4
ENDMDL
MODEL 3
REMARK VINA RESULT:      -3.2      2.700      3.143
REMARK  Name = 
REMARK  4 active torsions:
REMARK  status: ('A' for Active; 'I' for Inactive)
REMARK    1  A    between atoms: N_1  and  C_2
REMARK    2  A    between atoms: C_2  and  C_3
REMARK    3  A    between atoms: C_3  and  S_4
REMARK    4  A    between atoms: S_4  and  O_5
REMARK                            x       y       z     vdW  Elec       q    Type
REMARK                         _______ _______ _______ _____ _____    ______ ____
ROOT
ATOM      1  C   UNL     1       8.137  -4.709  24.323  0.00  0.00    +0.212 C 
ENDROOT
BRANCH   1   2
ATOM      2  S   UNL     1       8.571  -4.931  26.041  0.00  0.00    +0.081 S 
ATOM      3  O   UNL     1       7.700  -5.915  26.640  0.00  0.00    -0.147 OA
ATOM      4  O   UNL     1       8.836  -3.649  26.649  0.00  0.00    -0.147 OA
BRANCH   2   5
ATOM      5  O   UNL     1      10.017  -5.611  25.815  0.00  0.00    -0.254 OA
ATOM      6  H   UNL     1      10.296  -6.019  26.663  0.00  0.00    +0.244 HD
ENDBRANCH   2   5
ENDBRANCH   1   2
BRANCH   1   7
ATOM      7  C   UNL     1       8.553  -3.325  23.855  0.00  0.00    +0.103 C 
BRANCH   7   8
ATOM      8  N   UNL     1      10.003  -3.150  23.971  0.00  0.00    -0.328 NA
ATOM      9  H   UNL     1      10.396  -2.888  23.067  0.00  0.00    +0.118 HD
ATOM     10  H   UNL     1      10.196  -2.365  24.595  0.00  0.00    +0.118 HD
ENDBRANCH   7   8
ENDBRANCH   1   7
TORSDOF 4
ENDMDL
MODEL 4
REMARK VINA RESULT:      -3.1      5.520      6.072
REMARK  Name = 
REMARK  4 active torsions:
REMARK  status: ('A' for Active; 'I' for Inactive)
REMARK    1  A    between atoms: N_1  and  C_2
REMARK    2  A    between atoms: C_2  and  C_3
REMARK    3  A    between atoms: C_3  and  S_4
REMARK    4  A    between atoms: S_4  and  O_5
REMARK                            x       y       z     vdW  Elec       q    Type
REMARK                         _______ _______ _______ _____ _____    ______ ____
ROOT
ATOM      1  C   UNL     1      10.507   0.218  23.351  0.00  0.00    +0.212 C 
ENDROOT
BRANCH   1   2
ATOM      2  S   UNL     1       9.550  -1.201  22.843  0.00  0.00    +0.081 S 
ATOM      3  O   UNL     1       8.177  -0.811  22.626  0.00  0.00    -0.147 OA
ATOM      4  O   UNL     1       9.919  -2.351  23.634  0.00  0.00    -0.147 OA
BRANCH   2   5
ATOM      5  O   UNL     1      10.242  -1.427  21.402  0.00  0.00    -0.254 OA
ATOM      6  H   UNL     1      10.338  -0.550  20.971  0.00  0.00    +0.244 HD
ENDBRANCH   2   5
ENDBRANCH   1   2
BRANCH   1   7
ATOM      7  C   UNL     1       9.767   1.497  23.003  0.00  0.00    +0.103 C 
BRANCH   7   8
ATOM      8  N   UNL     1       9.787   1.735  21.558  0.00  0.00    -0.328 NA
ATOM      9  H   UNL     1       8.864   2.032  21.239  0.00  0.00    +0.118 HD
ATOM     10  H   UNL     1      10.413   2.515  21.355  0.00  0.00    +0.118 HD
ENDBRANCH   7   8
ENDBRANCH   1   7
TORSDOF 4
ENDMDL
MODEL 5
REMARK VINA RESULT:      -3.1      6.621      7.140
REMARK  Name = 
REMARK  4 active torsions:
REMARK  status: ('A' for Active; 'I' for Inactive)
REMARK    1  A    between atoms: N_1  and  C_2
REMARK    2  A    between atoms: C_2  and  C_3
REMARK    3  A    between atoms: C_3  and  S_4
REMARK    4  A    between atoms: S_4  and  O_5
REMARK                            x       y       z     vdW  Elec       q    Type
REMARK                         _______ _______ _______ _____ _____    ______ ____
ROOT
ATOM      1  C   UNL     1      10.188   0.092  22.903  0.00  0.00    +0.212 C 
ENDROOT
BRANCH   1   2
ATOM      2  S   UNL     1      10.034   1.384  24.125  0.00  0.00    +0.081 S 
ATOM      3  O   UNL     1       8.639   1.686  24.343  0.00  0.00    -0.147 OA
ATOM      4  O   UNL     1      11.026   2.407  23.886  0.00  0.00    -0.147 OA
BRANCH   2   5
ATOM      5  O   UNL     1      10.571   0.549  25.397  0.00  0.00    -0.254 OA
ATOM      6  H   UNL     1      10.328   1.043  26.210  0.00  0.00    +0.244 HD
ENDBRANCH   2   5
ENDBRANCH   1   2
BRANCH   1   7
ATOM      7  C   UNL     1       9.482   0.500  21.622  0.00  0.00    +0.103 C 
BRANCH   7   8
ATOM      8  N   UNL     1       9.556   1.950  21.424  0.00  0.00    -0.328 NA
ATOM      9  H   UNL     1      10.290   2.174  20.751  0.00  0.00    +0.118 HD
ATOM     10  H   UNL     1       8.685   2.276  21.002  0.00  0.00    +0.118 HD
ENDBRANCH   7   8
ENDBRANCH   1   7
TORSDOF 4
ENDMDL
MODEL 6
REMARK VINA RESULT:      -3.0      6.488      6.813
REMARK  Name = 
REMARK  4 active torsions:
REMARK  status: ('A' for Active; 'I' for Inactive)
REMARK    1  A    between atoms: N_1  and  C_2
REMARK    2  A    between atoms: C_2  and  C_3
REMARK    3  A    between atoms: C_3  and  S_4
REMARK    4  A    between atoms: S_4  and  O_5
REMARK                            x       y       z     vdW  Elec       q    Type
REMARK                         _______ _______ _______ _____ _____    ______ ____
ROOT
ATOM      1  C   UNL     1      10.334   0.164  23.043  0.00  0.00    +0.212 C 
ENDROOT
BRANCH   1   2
ATOM      2  S   UNL     1       9.876   1.889  23.055  0.00  0.00    +0.081 S 
ATOM      3  O   UNL     1      10.948   2.674  23.621  0.00  0.00    -0.147 OA
ATOM      4  O   UNL     1       8.501   2.029  23.474  0.00  0.00    -0.147 OA
BRANCH   2   5
ATOM      5  O   UNL     1       9.869   2.125  21.459  0.00  0.00    -0.254 OA
ATOM      6  H   UNL     1       8.954   2.360  21.191  0.00  0.00    +0.244 HD
ENDBRANCH   2   5
ENDBRANCH   1   2
BRANCH   1   7
ATOM      7  C   UNL     1       9.997  -0.474  24.380  0.00  0.00    +0.103 C 
BRANCH   7   8
ATOM      8  N   UNL     1      10.236   0.464  25.480  0.00  0.00    -0.328 NA
ATOM      9  H   UNL     1       9.368   0.633  25.989  0.00  0.00    +0.118 HD
ATOM     10  H   UNL     1      10.873   0.035  26.153  0.00  0.00    +0.118 HD
ENDBRANCH   7   8
ENDBRANCH   1   7
TORSDOF 4
ENDMDL
MODEL 7
REMARK VINA RESULT:      -3.0      2.021      2.713
REMARK  Name = 
REMARK  4 active torsions:
REMARK  status: ('A' for Active; 'I' for Inactive)
REMARK    1  A    between atoms: N_1  and  C_2
REMARK    2  A    between atoms: C_2  and  C_3
REMARK    3  A    between atoms: C_3  and  S_4
REMARK    4  A    between atoms: S_4  and  O_5
REMARK                            x       y       z     vdW  Elec       q    Type
REMARK                         _______ _______ _______ _____ _____    ______ ____
ROOT
ATOM      1  C   UNL     1       8.718  -3.539  25.894  0.00  0.00    +0.212 C 
ENDROOT
BRANCH   1   2
ATOM      2  S   UNL     1       8.852  -3.266  24.135  0.00  0.00    +0.081 S 
ATOM      3  O   UNL     1       8.074  -4.254  23.427  0.00  0.00    -0.147 OA
ATOM      4  O   UNL     1      10.220  -2.955  23.790  0.00  0.00    -0.147 OA
BRANCH   2   5
ATOM      5  O   UNL     1       8.060  -1.862  24.071  0.00  0.00    -0.254 OA
ATOM      6  H   UNL     1       8.680  -1.150  24.338  0.00  0.00    +0.244 HD
ENDBRANCH   2   5
ENDBRANCH   1   2
BRANCH   1   7
ATOM      7  C   UNL     1       9.027  -4.990  26.221  0.00  0.00    +0.103 C 
BRANCH   7   8
ATOM      8  N   UNL     1      10.128  -5.488  25.393  0.00  0.00    -0.328 NA
ATOM      9  H   UNL     1      10.417  -4.771  24.726  0.00  0.00    +0.118 HD
ATOM     10  H   UNL     1      10.942  -5.659  25.985  0.00  0.00    +0.118 HD
ENDBRANCH   7   8
ENDBRANCH   1   7
TORSDOF 4
ENDMDL
MODEL 8
REMARK VINA RESULT:      -3.0      2.493      2.762
REMARK  Name = 
REMARK  4 active torsions:
REMARK  status: ('A' for Active; 'I' for Inactive)
REMARK    1  A    between atoms: N_1  and  C_2
REMARK    2  A    between atoms: C_2  and  C_3
REMARK    3  A    between atoms: C_3  and  S_4
REMARK    4  A    between atoms: S_4  and  O_5
REMARK                            x       y       z     vdW  Elec       q    Type
REMARK                         _______ _______ _______ _____ _____    ______ ____
ROOT
ATOM      1  C   UNL     1       7.489  -5.039  24.940  0.00  0.00    +0.212 C 
ENDROOT
BRANCH   1   2
ATOM      2  S   UNL     1       9.180  -4.648  25.357  0.00  0.00    +0.081 S 
ATOM      3  O   UNL     1       9.279  -4.354  26.767  0.00  0.00    -0.147 OA
ATOM      4  O   UNL     1       9.752  -3.798  24.339  0.00  0.00    -0.147 OA
BRANCH   2   5
ATOM      5  O   UNL     1       9.811  -6.111  25.103  0.00  0.00    -0.254 OA
ATOM      6  H   UNL     1       9.431  -6.725  25.768  0.00  0.00    +0.244 HD
ENDBRANCH   2   5
ENDBRANCH   1   2
BRANCH   1   7
ATOM      7  C   UNL     1       7.244  -4.787  23.462  0.00  0.00    +0.103 C 
BRANCH   7   8
ATOM      8  N   UNL     1       7.966  -5.763  22.641  0.00  0.00    -0.328 NA
ATOM      9  H   UNL     1       8.003  -5.444  21.672  0.00  0.00    +0.118 HD
ATOM     10  H   UNL     1       8.937  -5.811  22.954  0.00  0.00    +0.118 HD
ENDBRANCH   7   8
ENDBRANCH   1   7
TORSDOF 4
ENDMDL
MODEL 9
REMARK VINA RESULT:      -2.9      4.657      5.046
REMARK  Name = 
REMARK  4 active torsions:
REMARK  status: ('A' for Active; 'I' for Inactive)
REMARK    1  A    between atoms: N_1  and  C_2
REMARK    2  A    between atoms: C_2  and  C_3
REMARK    3  A    between atoms: C_3  and  S_4
REMARK    4  A    between atoms: S_4  and  O_5
REMARK                            x       y       z     vdW  Elec       q    Type
REMARK                         _______ _______ _______ _____ _____    ______ ____
ROOT
ATOM      1  C   UNL     1       8.374  -1.194  23.107  0.00  0.00    +0.212 C 
ENDROOT
BRANCH   1   2
ATOM      2  S   UNL     1       9.741  -0.348  22.331  0.00  0.00    +0.081 S 
ATOM      3  O   UNL     1      10.742  -0.027  23.321  0.00  0.00    -0.147 OA
ATOM      4  O   UNL     1       9.243   0.621  21.382  0.00  0.00    -0.147 OA
BRANCH   2   5
ATOM      5  O   UNL     1      10.287  -1.581  21.445  0.00  0.00    -0.254 OA
ATOM      6  H   UNL     1       9.690  -1.687  20.672  0.00  0.00    +0.244 HD
ENDBRANCH   2   5
ENDBRANCH   1   2
BRANCH   1   7
ATOM      7  C   UNL     1       8.659  -2.684  23.183  0.00  0.00    +0.103 C 
BRANCH   7   8
ATOM      8  N   UNL     1       9.892  -2.942  23.931  0.00  0.00    -0.328 NA
ATOM      9  H   UNL     1      10.200  -2.090  24.401  0.00  0.00    +0.118 HD
ATOM     10  H   UNL     1       9.698  -3.614  24.675  0.00  0.00    +0.118 HD
ENDBRANCH   7   8
ENDBRANCH   1   7
TORSDOF 4
ENDMDL
