MODEL 1
REMARK VINA RESULT:      -7.3      0.000      0.000
REMARK  Name = 
REMARK  4 active torsions:
REMARK  status: ('A' for Active; 'I' for Inactive)
REMARK    1  A    between atoms: C_1  and  C_2
REMARK    2  A    between atoms: C_5  and  S_8
REMARK    3  A    between atoms: S_8  and  N_11
REMARK    4  A    between atoms: N_14  and  N_15
REMARK                            x       y       z     vdW  Elec       q    Type
REMARK                         _______ _______ _______ _____ _____    ______ ____
ROOT
ATOM      1  N   UNL     1       7.553  -4.180  22.471  0.00  0.00    -0.168 N 
ATOM      2  H   UNL     1       8.410  -4.611  22.154  0.00  0.00    +0.178 HD
ATOM      3  C   UNL     1       7.457  -2.828  22.754  0.00  0.00    +0.333 C 
ATOM      4  N   UNL     1       8.672  -2.166  22.727  0.00  0.00    -0.231 N 
ATOM      5  H   UNL     1       9.535  -2.696  22.701  0.00  0.00    +0.171 HD
ATOM      6  O   UNL     1       6.380  -2.290  22.972  0.00  0.00    -0.250 OA
ENDROOT
BRANCH   4   7
ATOM      7  N   UNL     1       8.782  -0.751  22.910  0.00  0.00    -0.226 NA
ATOM      8  C   UNL     1       9.584  -0.149  21.832  0.00  0.00    +0.105 C 
ATOM      9  C   UNL     1       9.355   1.355  21.708  0.00  0.00    +0.017 C 
ATOM     10  C   UNL     1      10.312   2.198  22.544  0.00  0.00    +0.001 C 
ATOM     11  C   UNL     1      10.616   1.670  23.943  0.00  0.00    +0.001 C 
ATOM     12  C   UNL     1       9.416   1.039  24.641  0.00  0.00    +0.017 C 
ATOM     13  C   UNL     1       9.222  -0.438  24.282  0.00  0.00    +0.105 C 
ENDBRANCH   4   7
BRANCH   1  14
ATOM     14  S   UNL     1       6.211  -5.160  22.334  0.00  0.00    +0.076 S 
ATOM     15  O   UNL     1       5.149  -4.291  21.870  0.00  0.00    -0.150 OA
ATOM     16  O   UNL     1       6.576  -6.348  21.595  0.00  0.00    -0.150 OA
BRANCH  14  21
ATOM     17  C   UNL     1       5.008  -6.883  28.032  0.00  0.00    +0.044 C 
ATOM     18  C   UNL     1       5.262  -6.400  26.633  0.00  0.00    -0.050 A 
ATOM     19  C   UNL     1       6.360  -5.571  26.367  0.00  0.00    +0.005 A 
ATOM     20  C   UNL     1       6.645  -5.166  25.060  0.00  0.00    +0.029 A 
ATOM     21  C   UNL     1       5.825  -5.595  24.014  0.00  0.00    +0.109 A 
ATOM     22  C   UNL     1       4.715  -6.406  24.267  0.00  0.00    +0.029 A 
ATOM     23  C   UNL     1       4.434  -6.802  25.576  0.00  0.00    +0.005 A 
ENDBRANCH  14  21
ENDBRANCH   1  14
TORSDOF 3
ENDMDL
MODEL 2
REMARK VINA RESULT:      -7.0      3.133      4.445
REMARK  Name = 
REMARK  4 active torsions:
REMARK  status: ('A' for Active; 'I' for Inactive)
REMARK    1  A    between atoms: C_1  and  C_2
REMARK    2  A    between atoms: C_5  and  S_8
REMARK    3  A    between atoms: S_8  and  N_11
REMARK    4  A    between atoms: N_14  and  N_15
REMARK                            x       y       z     vdW  Elec       q    Type
REMARK                         _______ _______ _______ _____ _____    ______ ____
ROOT
ATOM      1  N   UNL     1       9.193  -0.188  23.645  0.00  0.00    -0.168 N 
ATOM      2  H   UNL     1       8.968  -0.240  24.628  0.00  0.00    +0.178 HD
ATOM      3  C   UNL     1       9.629   0.978  23.040  0.00  0.00    +0.333 C 
ATOM      4  N   UNL     1       9.562   2.091  23.860  0.00  0.00    -0.231 N 
ATOM      5  H   UNL     1       9.051   2.044  24.732  0.00  0.00    +0.171 HD
ATOM      6  O   UNL     1      10.058   0.987  21.894  0.00  0.00    -0.250 OA
ENDROOT
BRANCH   4   7
ATOM      7  N   UNL     1      10.042   3.376  23.453  0.00  0.00    -0.226 NA
ATOM      8  C   UNL     1      11.483   3.503  23.729  0.00  0.00    +0.105 C 
ATOM      9  C   UNL     1      12.133   4.624  22.923  0.00  0.00    +0.017 C 
ATOM     10  C   UNL     1      12.138   5.974  23.631  0.00  0.00    +0.001 C 
ATOM     11  C   UNL     1      10.864   6.333  24.389  0.00  0.00    +0.001 C 
ATOM     12  C   UNL     1       9.582   5.893  23.689  0.00  0.00    +0.017 C 
ATOM     13  C   UNL     1       9.192   4.446  24.007  0.00  0.00    +0.105 C 
ENDBRANCH   4   7
BRANCH   1  14
ATOM     14  S   UNL     1       9.287  -1.673  22.893  0.00  0.00    +0.076 S 
ATOM     15  O   UNL     1       8.260  -1.649  21.871  0.00  0.00    -0.150 OA
ATOM     16  O   UNL     1      10.667  -1.936  22.554  0.00  0.00    -0.150 OA
BRANCH  14  21
ATOM     17  C   UNL     1       7.204  -5.471  27.151  0.00  0.00    +0.044 C 
ATOM     18  C   UNL     1       7.786  -4.556  26.111  0.00  0.00    -0.050 A 
ATOM     19  C   UNL     1       7.851  -4.969  24.773  0.00  0.00    +0.005 A 
ATOM     20  C   UNL     1       8.331  -4.104  23.785  0.00  0.00    +0.029 A 
ATOM     21  C   UNL     1       8.747  -2.819  24.140  0.00  0.00    +0.109 A 
ATOM     22  C   UNL     1       8.706  -2.402  25.474  0.00  0.00    +0.029 A 
ATOM     23  C   UNL     1       8.231  -3.273  26.456  0.00  0.00    +0.005 A 
ENDBRANCH  14  21
ENDBRANCH   1  14
TORSDOF 3
ENDMDL
MODEL 3
REMARK VINA RESULT:      -7.0      2.682      3.464
REMARK  Name = 
REMARK  4 active torsions:
REMARK  status: ('A' for Active; 'I' for Inactive)
REMARK    1  A    between atoms: C_1  and  C_2
REMARK    2  A    between atoms: C_5  and  S_8
REMARK    3  A    between atoms: S_8  and  N_11
REMARK    4  A    between atoms: N_14  and  N_15
REMARK                            x       y       z     vdW  Elec       q    Type
REMARK                         _______ _______ _______ _____ _____    ______ ____
ROOT
ATOM      1  N   UNL     1       8.359  -2.919  26.301  0.00  0.00    -0.168 N 
ATOM      2  H   UNL     1       9.291  -3.104  26.646  0.00  0.00    +0.178 HD
ATOM      3  C   UNL     1       8.074  -1.863  25.452  0.00  0.00    +0.333 C 
ATOM      4  N   UNL     1       9.137  -0.996  25.263  0.00  0.00    -0.231 N 
ATOM      5  H   UNL     1       9.950  -1.058  25.862  0.00  0.00    +0.171 HD
ATOM      6  O   UNL     1       6.983  -1.750  24.909  0.00  0.00    -0.250 OA
ENDROOT
BRANCH   4   7
ATOM      7  N   UNL     1       9.075   0.110  24.359  0.00  0.00    -0.226 NA
ATOM      8  C   UNL     1      10.086  -0.029  23.297  0.00  0.00    +0.105 C 
ATOM      9  C   UNL     1       9.776   0.839  22.081  0.00  0.00    +0.017 C 
ATOM     10  C   UNL     1      10.399   2.230  22.138  0.00  0.00    +0.001 C 
ATOM     11  C   UNL     1      10.357   2.922  23.496  0.00  0.00    +0.001 C 
ATOM     12  C   UNL     1       9.070   2.679  24.276  0.00  0.00    +0.017 C 
ATOM     13  C   UNL     1       9.102   1.386  25.098  0.00  0.00    +0.105 C 
ENDBRANCH   4   7
BRANCH   1  14
ATOM     14  S   UNL     1       7.273  -4.150  26.590  0.00  0.00    +0.076 S 
ATOM     15  O   UNL     1       8.027  -5.168  27.292  0.00  0.00    -0.150 OA
ATOM     16  O   UNL     1       6.072  -3.585  27.164  0.00  0.00    -0.150 OA
BRANCH  14  21
ATOM     17  C   UNL     1       6.009  -6.104  20.980  0.00  0.00    +0.044 C 
ATOM     18  C   UNL     1       6.320  -5.690  22.390  0.00  0.00    -0.050 A 
ATOM     19  C   UNL     1       7.653  -5.539  22.797  0.00  0.00    +0.005 A 
ATOM     20  C   UNL     1       7.955  -5.093  24.087  0.00  0.00    +0.029 A 
ATOM     21  C   UNL     1       6.917  -4.795  24.972  0.00  0.00    +0.109 A 
ATOM     22  C   UNL     1       5.584  -4.960  24.585  0.00  0.00    +0.029 A 
ATOM     23  C   UNL     1       5.289  -5.411  23.297  0.00  0.00    +0.005 A 
ENDBRANCH  14  21
ENDBRANCH   1  14
TORSDOF 3
ENDMDL
MODEL 4
REMARK VINA RESULT:      -7.0      2.119      7.869
REMARK  Name = 
REMARK  4 active torsions:
REMARK  status: ('A' for Active; 'I' for Inactive)
REMARK    1  A    between atoms: C_1  and  C_2
REMARK    2  A    between atoms: C_5  and  S_8
REMARK    3  A    between atoms: S_8  and  N_11
REMARK    4  A    between atoms: N_14  and  N_15
REMARK                            x       y       z     vdW  Elec       q    Type
REMARK                         _______ _______ _______ _____ _____    ______ ____
ROOT
ATOM      1  N   UNL     1       8.287  -2.411  24.059  0.00  0.00    -0.168 N 
ATOM      2  H   UNL     1       7.843  -1.639  24.536  0.00  0.00    +0.178 HD
ATOM      3  C   UNL     1       7.863  -3.721  24.203  0.00  0.00    +0.333 C 
ATOM      4  N   UNL     1       6.896  -3.890  25.179  0.00  0.00    -0.231 N 
ATOM      5  H   UNL     1       6.701  -3.140  25.831  0.00  0.00    +0.171 HD
ATOM      6  O   UNL     1       8.297  -4.620  23.495  0.00  0.00    -0.250 OA
ENDROOT
BRANCH   4   7
ATOM      7  N   UNL     1       6.265  -5.150  25.427  0.00  0.00    -0.226 NA
ATOM      8  C   UNL     1       5.131  -5.352  24.510  0.00  0.00    +0.105 C 
ATOM      9  C   UNL     1       4.722  -6.819  24.406  0.00  0.00    +0.017 C 
ATOM     10  C   UNL     1       3.654  -7.237  25.411  0.00  0.00    +0.001 C 
ATOM     11  C   UNL     1       3.809  -6.674  26.820  0.00  0.00    +0.001 C 
ATOM     12  C   UNL     1       5.254  -6.591  27.299  0.00  0.00    +0.017 C 
ATOM     13  C   UNL     1       5.959  -5.303  26.862  0.00  0.00    +0.105 C 
ENDBRANCH   4   7
BRANCH   1  14
ATOM     14  S   UNL     1       9.361  -1.947  22.872  0.00  0.00    +0.076 S 
ATOM     15  O   UNL     1      10.610  -2.598  23.210  0.00  0.00    -0.150 OA
ATOM     16  O   UNL     1       8.742  -2.148  21.581  0.00  0.00    -0.150 OA
BRANCH  14  21
ATOM     17  C   UNL     1       9.901   4.037  23.765  0.00  0.00    +0.044 C 
ATOM     18  C   UNL     1       9.838   2.551  23.556  0.00  0.00    -0.050 A 
ATOM     19  C   UNL     1       9.532   1.705  24.631  0.00  0.00    +0.005 A 
ATOM     20  C   UNL     1       9.409   0.327  24.438  0.00  0.00    +0.029 A 
ATOM     21  C   UNL     1       9.592  -0.208  23.160  0.00  0.00    +0.109 A 
ATOM     22  C   UNL     1       9.917   0.622  22.083  0.00  0.00    +0.029 A 
ATOM     23  C   UNL     1      10.044   1.998  22.285  0.00  0.00    +0.005 A 
ENDBRANCH  14  21
ENDBRANCH   1  14
TORSDOF 3
ENDMDL
MODEL 5
REMARK VINA RESULT:      -6.9      1.934      2.671
REMARK  Name = 
REMARK  4 active torsions:
REMARK  status: ('A' for Active; 'I' for Inactive)
REMARK    1  A    between atoms: C_1  and  C_2
REMARK    2  A    between atoms: C_5  and  S_8
REMARK    3  A    between atoms: S_8  and  N_11
REMARK    4  A    between atoms: N_14  and  N_15
REMARK                            x       y       z     vdW  Elec       q    Type
REMARK                         _______ _______ _______ _____ _____    ______ ____
ROOT
ATOM      1  N   UNL     1       7.718  -3.504  24.458  0.00  0.00    -0.168 N 
ATOM      2  H   UNL     1       6.777  -3.166  24.601  0.00  0.00    +0.178 HD
ATOM      3  C   UNL     1       8.754  -2.680  24.052  0.00  0.00    +0.333 C 
ATOM      4  N   UNL     1       8.347  -1.405  23.700  0.00  0.00    -0.231 N 
ATOM      5  H   UNL     1       7.362  -1.207  23.574  0.00  0.00    +0.171 HD
ATOM      6  O   UNL     1       9.917  -3.062  24.047  0.00  0.00    -0.250 OA
ENDROOT
BRANCH   4   7
ATOM      7  N   UNL     1       9.271  -0.376  23.334  0.00  0.00    -0.226 NA
ATOM      8  C   UNL     1       9.660   0.417  24.512  0.00  0.00    +0.105 C 
ATOM      9  C   UNL     1      10.951   1.198  24.286  0.00  0.00    +0.017 C 
ATOM     10  C   UNL     1      10.736   2.602  23.731  0.00  0.00    +0.001 C 
ATOM     11  C   UNL     1       9.665   2.735  22.654  0.00  0.00    +0.001 C 
ATOM     12  C   UNL     1       9.615   1.562  21.681  0.00  0.00    +0.017 C 
ATOM     13  C   UNL     1       8.757   0.398  22.188  0.00  0.00    +0.105 C 
ENDBRANCH   4   7
BRANCH   1  14
ATOM     14  S   UNL     1       7.979  -5.046  25.036  0.00  0.00    +0.076 S 
ATOM     15  O   UNL     1       8.659  -5.746  23.965  0.00  0.00    -0.150 OA
ATOM     16  O   UNL     1       8.565  -4.955  26.355  0.00  0.00    -0.150 OA
BRANCH  14  21
ATOM     17  C   UNL     1       2.505  -7.657  25.364  0.00  0.00    +0.044 C 
ATOM     18  C   UNL     1       3.827  -6.947  25.288  0.00  0.00    -0.050 A 
ATOM     19  C   UNL     1       4.570  -6.725  26.456  0.00  0.00    +0.005 A 
ATOM     20  C   UNL     1       5.829  -6.122  26.392  0.00  0.00    +0.029 A 
ATOM     21  C   UNL     1       6.347  -5.741  25.153  0.00  0.00    +0.109 A 
ATOM     22  C   UNL     1       5.608  -5.939  23.982  0.00  0.00    +0.029 A 
ATOM     23  C   UNL     1       4.348  -6.537  24.054  0.00  0.00    +0.005 A 
ENDBRANCH  14  21
ENDBRANCH   1  14
TORSDOF 3
ENDMDL
MODEL 6
REMARK VINA RESULT:      -6.8      2.367      3.164
REMARK  Name = 
REMARK  4 active torsions:
REMARK  status: ('A' for Active; 'I' for Inactive)
REMARK    1  A    between atoms: C_1  and  C_2
REMARK    2  A    between atoms: C_5  and  S_8
REMARK    3  A    between atoms: S_8  and  N_11
REMARK    4  A    between atoms: N_14  and  N_15
REMARK                            x       y       z     vdW  Elec       q    Type
REMARK                         _______ _______ _______ _____ _____    ______ ____
ROOT
ATOM      1  N   UNL     1       7.909  -3.452  25.918  0.00  0.00    -0.168 N 
ATOM      2  H   UNL     1       7.465  -2.928  26.659  0.00  0.00    +0.178 HD
ATOM      3  C   UNL     1       8.681  -2.851  24.939  0.00  0.00    +0.333 C 
ATOM      4  N   UNL     1       8.647  -1.467  24.971  0.00  0.00    -0.231 N 
ATOM      5  H   UNL     1       7.955  -0.994  25.539  0.00  0.00    +0.171 HD
ATOM      6  O   UNL     1       9.349  -3.509  24.151  0.00  0.00    -0.250 OA
ENDROOT
BRANCH   4   7
ATOM      7  N   UNL     1       9.440  -0.657  24.099  0.00  0.00    -0.226 NA
ATOM      8  C   UNL     1       9.679   0.668  24.695  0.00  0.00    +0.105 C 
ATOM      9  C   UNL     1      10.864   1.387  24.058  0.00  0.00    +0.017 C 
ATOM     10  C   UNL     1      10.487   2.271  22.873  0.00  0.00    +0.001 C 
ATOM     11  C   UNL     1       9.447   1.696  21.918  0.00  0.00    +0.001 C 
ATOM     12  C   UNL     1       9.587   0.196  21.679  0.00  0.00    +0.017 C 
ATOM     13  C   UNL     1       8.871  -0.649  22.738  0.00  0.00    +0.105 C 
ENDBRANCH   4   7
BRANCH   1  14
ATOM     14  S   UNL     1       7.884  -5.103  26.147  0.00  0.00    +0.076 S 
ATOM     15  O   UNL     1       9.009  -5.611  25.389  0.00  0.00    -0.150 OA
ATOM     16  O   UNL     1       7.756  -5.374  27.561  0.00  0.00    -0.150 OA
BRANCH  14  21
ATOM     17  C   UNL     1       2.730  -6.683  23.348  0.00  0.00    +0.044 C 
ATOM     18  C   UNL     1       4.031  -6.359  24.026  0.00  0.00    -0.050 A 
ATOM     19  C   UNL     1       5.061  -5.742  23.303  0.00  0.00    +0.005 A 
ATOM     20  C   UNL     1       6.253  -5.377  23.936  0.00  0.00    +0.029 A 
ATOM     21  C   UNL     1       6.412  -5.629  25.300  0.00  0.00    +0.109 A 
ATOM     22  C   UNL     1       5.399  -6.262  26.029  0.00  0.00    +0.029 A 
ATOM     23  C   UNL     1       4.214  -6.628  25.388  0.00  0.00    +0.005 A 
ENDBRANCH  14  21
ENDBRANCH   1  14
TORSDOF 3
ENDMDL
MODEL 7
REMARK VINA RESULT:      -6.8      2.516      3.257
REMARK  Name = 
REMARK  4 active torsions:
REMARK  status: ('A' for Active; 'I' for Inactive)
REMARK    1  A    between atoms: C_1  and  C_2
REMARK    2  A    between atoms: C_5  and  S_8
REMARK    3  A    between atoms: S_8  and  N_11
REMARK    4  A    between atoms: N_14  and  N_15
REMARK                            x       y       z     vdW  Elec       q    Type
REMARK                         _______ _______ _______ _____ _____    ______ ____
ROOT
ATOM      1  N   UNL     1       9.474  -2.990  24.467  0.00  0.00    -0.168 N 
ATOM      2  H   UNL     1      10.104  -3.115  23.687  0.00  0.00    +0.178 HD
ATOM      3  C   UNL     1       8.763  -1.820  24.671  0.00  0.00    +0.333 C 
ATOM      4  N   UNL     1       9.122  -0.792  23.816  0.00  0.00    -0.231 N 
ATOM      5  H   UNL     1       9.961  -0.872  23.255  0.00  0.00    +0.171 HD
ATOM      6  O   UNL     1       7.881  -1.742  25.516  0.00  0.00    -0.250 OA
ENDROOT
BRANCH   4   7
ATOM      7  N   UNL     1       8.450   0.471  23.807  0.00  0.00    -0.226 NA
ATOM      8  C   UNL     1       8.040   0.831  22.440  0.00  0.00    +0.105 C 
ATOM      9  C   UNL     1       6.947   1.897  22.422  0.00  0.00    +0.017 C 
ATOM     10  C   UNL     1       7.477   3.326  22.365  0.00  0.00    +0.001 C 
ATOM     11  C   UNL     1       8.697   3.618  23.232  0.00  0.00    +0.001 C 
ATOM     12  C   UNL     1       8.682   2.910  24.583  0.00  0.00    +0.017 C 
ATOM     13  C   UNL     1       9.247   1.487  24.520  0.00  0.00    +0.105 C 
ENDBRANCH   4   7
BRANCH   1  14
ATOM     14  S   UNL     1       9.139  -4.395  25.299  0.00  0.00    +0.076 S 
ATOM     15  O   UNL     1      10.139  -5.347  24.861  0.00  0.00    -0.150 OA
ATOM     16  O   UNL     1       8.977  -4.077  26.700  0.00  0.00    -0.150 OA
BRANCH  14  21
ATOM     17  C   UNL     1       3.734  -5.982  23.027  0.00  0.00    +0.044 C 
ATOM     18  C   UNL     1       5.089  -5.659  23.591  0.00  0.00    -0.050 A 
ATOM     19  C   UNL     1       6.155  -5.367  22.728  0.00  0.00    +0.005 A 
ATOM     20  C   UNL     1       7.403  -5.004  23.240  0.00  0.00    +0.029 A 
ATOM     21  C   UNL     1       7.585  -4.932  24.623  0.00  0.00    +0.109 A 
ATOM     22  C   UNL     1       6.535  -5.239  25.495  0.00  0.00    +0.029 A 
ATOM     23  C   UNL     1       5.293  -5.607  24.976  0.00  0.00    +0.005 A 
ENDBRANCH  14  21
ENDBRANCH   1  14
TORSDOF 3
ENDMDL
MODEL 8
REMARK VINA RESULT:      -6.8      3.258      8.392
REMARK  Name = 
REMARK  4 active torsions:
REMARK  status: ('A' for Active; 'I' for Inactive)
REMARK    1  A    between atoms: C_1  and  C_2
REMARK    2  A    between atoms: C_5  and  S_8
REMARK    3  A    between atoms: S_8  and  N_11
REMARK    4  A    between atoms: N_14  and  N_15
REMARK                            x       y       z     vdW  Elec       q    Type
REMARK                         _______ _______ _______ _____ _____    ______ ____
ROOT
ATOM      1  N   UNL     1       8.316   0.087  23.404  0.00  0.00    -0.168 N 
ATOM      2  H   UNL     1       7.415   0.543  23.369  0.00  0.00    +0.178 HD
ATOM      3  C   UNL     1       8.454  -1.291  23.415  0.00  0.00    +0.333 C 
ATOM      4  N   UNL     1       7.256  -1.971  23.545  0.00  0.00    -0.231 N 
ATOM      5  H   UNL     1       6.417  -1.469  23.806  0.00  0.00    +0.171 HD
ATOM      6  O   UNL     1       9.546  -1.829  23.287  0.00  0.00    -0.250 OA
ENDROOT
BRANCH   4   7
ATOM      7  N   UNL     1       7.172  -3.398  23.494  0.00  0.00    -0.226 NA
ATOM      8  C   UNL     1       6.847  -3.851  22.131  0.00  0.00    +0.105 C 
ATOM      9  C   UNL     1       7.193  -5.321  21.909  0.00  0.00    +0.017 C 
ATOM     10  C   UNL     1       6.051  -6.280  22.225  0.00  0.00    +0.001 C 
ATOM     11  C   UNL     1       5.235  -5.956  23.472  0.00  0.00    +0.001 C 
ATOM     12  C   UNL     1       6.065  -5.418  24.633  0.00  0.00    +0.017 C 
ATOM     13  C   UNL     1       6.288  -3.904  24.560  0.00  0.00    +0.105 C 
ENDBRANCH   4   7
BRANCH   1  14
ATOM     14  S   UNL     1       9.605   1.111  23.145  0.00  0.00    +0.076 S 
ATOM     15  O   UNL     1      10.393   1.049  24.359  0.00  0.00    -0.150 OA
ATOM     16  O   UNL     1      10.193   0.803  21.860  0.00  0.00    -0.150 OA
BRANCH  14  21
ATOM     17  C   UNL     1       7.257   6.701  22.784  0.00  0.00    +0.044 C 
ATOM     18  C   UNL     1       7.796   5.307  22.932  0.00  0.00    -0.050 A 
ATOM     19  C   UNL     1       7.197   4.247  22.236  0.00  0.00    +0.005 A 
ATOM     20  C   UNL     1       7.727   2.957  22.315  0.00  0.00    +0.029 A 
ATOM     21  C   UNL     1       8.864   2.726  23.093  0.00  0.00    +0.109 A 
ATOM     22  C   UNL     1       9.460   3.770  23.807  0.00  0.00    +0.029 A 
ATOM     23  C   UNL     1       8.921   5.056  23.728  0.00  0.00    +0.005 A 
ENDBRANCH  14  21
ENDBRANCH   1  14
TORSDOF 3
ENDMDL
MODEL 9
REMARK VINA RESULT:      -6.7      3.328      8.461
REMARK  Name = 
REMARK  4 active torsions:
REMARK  status: ('A' for Active; 'I' for Inactive)
REMARK    1  A    between atoms: C_1  and  C_2
REMARK    2  A    between atoms: C_5  and  S_8
REMARK    3  A    between atoms: S_8  and  N_11
REMARK    4  A    between atoms: N_14  and  N_15
REMARK                            x       y       z     vdW  Elec       q    Type
REMARK                         _______ _______ _______ _____ _____    ______ ____
ROOT
ATOM      1  N   UNL     1       8.998   0.063  24.437  0.00  0.00    -0.168 N 
ATOM      2  H   UNL     1       8.181   0.622  24.643  0.00  0.00    +0.178 HD
ATOM      3  C   UNL     1       9.000  -1.318  24.530  0.00  0.00    +0.333 C 
ATOM      4  N   UNL     1       7.847  -1.842  25.088  0.00  0.00    -0.231 N 
ATOM      5  H   UNL     1       7.187  -1.228  25.551  0.00  0.00    +0.171 HD
ATOM      6  O   UNL     1       9.937  -1.989  24.118  0.00  0.00    -0.250 OA
ENDROOT
BRANCH   4   7
ATOM      7  N   UNL     1       7.615  -3.249  25.197  0.00  0.00    -0.226 NA
ATOM      8  C   UNL     1       6.271  -3.594  24.704  0.00  0.00    +0.105 C 
ATOM      9  C   UNL     1       6.138  -5.075  24.364  0.00  0.00    +0.017 C 
ATOM     10  C   UNL     1       5.654  -5.936  25.526  0.00  0.00    +0.001 C 
ATOM     11  C   UNL     1       6.244  -5.603  26.892  0.00  0.00    +0.001 C 
ATOM     12  C   UNL     1       7.717  -5.212  26.852  0.00  0.00    +0.017 C 
ATOM     13  C   UNL     1       7.935  -3.725  26.556  0.00  0.00    +0.105 C 
ENDBRANCH   4   7
BRANCH   1  14
ATOM     14  S   UNL     1      10.228   0.910  23.697  0.00  0.00    +0.076 S 
ATOM     15  O   UNL     1      11.415   0.616  24.473  0.00  0.00    -0.150 OA
ATOM     16  O   UNL     1      10.184   0.646  22.276  0.00  0.00    -0.150 OA
BRANCH  14  21
ATOM     17  C   UNL     1       8.947   6.706  24.983  0.00  0.00    +0.044 C 
ATOM     18  C   UNL     1       9.221   5.278  24.608  0.00  0.00    -0.050 A 
ATOM     19  C   UNL     1      10.330   4.964  23.809  0.00  0.00    +0.005 A 
ATOM     20  C   UNL     1      10.632   3.634  23.505  0.00  0.00    +0.029 A 
ATOM     21  C   UNL     1       9.820   2.613  24.003  0.00  0.00    +0.109 A 
ATOM     22  C   UNL     1       8.700   2.913  24.784  0.00  0.00    +0.029 A 
ATOM     23  C   UNL     1       8.401   4.245  25.080  0.00  0.00    +0.005 A 
ENDBRANCH  14  21
ENDBRANCH   1  14
TORSDOF 3
ENDMDL
