MODEL 1
REMARK VINA RESULT:      -6.9      0.000      0.000
REMARK  Name = 
REMARK  26 active torsions:
REMARK  status: ('A' for Active; 'I' for Inactive)
REMARK    1  A    between atoms: C_1  and  O_2
REMARK    2  A    between atoms: O_2  and  C_3
REMARK    3  A    between atoms: C_3  and  C_5
REMARK    4  A    between atoms: C_5  and  C_7
REMARK    5  A    between atoms: C_5  and  N_15
REMARK    6  A    between atoms: C_7  and  C_8
REMARK    7  A    between atoms: C_11  and  O_12
REMARK    8  A    between atoms: C_16  and  C_18
REMARK    9  A    between atoms: C_18  and  N_19
REMARK   10  A    between atoms: C_20  and  C_22
REMARK   11  A    between atoms: C_22  and  C_24
REMARK   12  A    between atoms: C_22  and  N_26
REMARK   13  A    between atoms: C_24  and  O_25
REMARK   14  A    between atoms: C_27  and  CA_29
REMARK   15  A    between atoms: CA_29  and  N_30
REMARK   16  A    between atoms: C_31  and  CA_33
REMARK   17  A    between atoms: CA_33  and  CB_35
REMARK   18  A    between atoms: CA_33  and  N_39
REMARK   19  A    between atoms: CB_35  and  CG_36
REMARK   20  A    between atoms: CG_36  and  CD1_37
REMARK   21  A    between atoms: CG_36  and  CD2_38
REMARK   22  A    between atoms: C_40  and  CA_42
REMARK   23  A    between atoms: CA_42  and  N_44
REMARK   24  A    between atoms: CA_42  and  CB_45
REMARK   25  A    between atoms: CB_45  and  CG_46
REMARK   26  A    between atoms: CZ_49  and  OH_50
REMARK                            x       y       z     vdW  Elec       q    Type
REMARK                         _______ _______ _______ _____ _____    ______ ____
ROOT
ATOM      1  N   UNK A   4       5.049  -0.694  28.047  0.00  0.00    -0.301 N 
ATOM      2  H   UNK A   4       5.232  -1.442  28.717  0.00  0.00    +0.150 HD
ATOM      3  C   GLY A   3       4.446  -0.971  26.840  0.00  0.00    +0.231 C 
ATOM      4  O   GLY A   3       4.494  -0.198  25.885  0.00  0.00    -0.274 OA
ENDROOT
BRANCH   3   5
ATOM      5  CA  GLY A   3       3.770  -2.328  26.737  0.00  0.00    +0.200 C 
BRANCH   5   6
ATOM      6  N   GLY A   3       4.757  -3.366  26.525  0.00  0.00    -0.305 N 
ATOM      7  H   GLY A   3       5.275  -3.353  25.655  0.00  0.00    +0.149 HD
ATOM      8  C   LEU A   2       5.024  -4.315  27.482  0.00  0.00    +0.234 C 
ATOM      9  O   LEU A   2       4.517  -4.275  28.604  0.00  0.00    -0.274 OA
BRANCH   8  10
ATOM     10  CA  LEU A   2       6.012  -5.426  27.062  0.00  0.00    +0.159 C 
BRANCH  10  11
ATOM     11  N   LEU A   2       5.556  -6.009  25.808  0.00  0.00    -0.303 N 
ATOM     12  H   LEU A   2       5.893  -5.582  24.946  0.00  0.00    +0.149 HD
ATOM     13  C   TYR A   1       4.425  -6.785  25.720  0.00  0.00    +0.231 C 
ATOM     14  O   TYR A   1       3.722  -7.067  26.689  0.00  0.00    -0.274 OA
BRANCH  13  15
ATOM     15  CA  TYR A   1       4.080  -7.264  24.297  0.00  0.00    +0.142 C 
BRANCH  15  16
ATOM     16  N   TYR A   1       2.970  -8.241  24.379  0.00  0.00    -0.320 NA
ATOM     17  H1  TYR A   1       3.206  -9.052  23.807  0.00  0.00    +0.119 HD
ATOM     18  H2  TYR A   1       2.928  -8.590  25.339  0.00  0.00    +0.119 HD
ENDBRANCH  15  16
BRANCH  15  19
ATOM     19  CB  TYR A   1       3.709  -6.086  23.374  0.00  0.00    +0.063 C 
BRANCH  19  20
ATOM     20  CG  TYR A   1       4.853  -5.187  22.945  0.00  0.00    -0.045 A 
ATOM     21  CD2 TYR A   1       4.728  -3.797  23.101  0.00  0.00    +0.007 A 
ATOM     22  CE2 TYR A   1       5.761  -2.938  22.719  0.00  0.00    +0.045 A 
ATOM     23  CZ  TYR A   1       6.924  -3.463  22.173  0.00  0.00    +0.117 A 
ATOM     24  CE1 TYR A   1       7.063  -4.832  21.986  0.00  0.00    +0.045 A 
ATOM     25  CD1 TYR A   1       6.025  -5.688  22.361  0.00  0.00    +0.007 A 
BRANCH  23  26
ATOM     26  OH  TYR A   1       7.918  -2.597  21.828  0.00  0.00    -0.507 OA
ATOM     27  HH  TYR A   1       8.464  -2.432  22.615  0.00  0.00    +0.292 HD
ENDBRANCH  23  26
ENDBRANCH  19  20
ENDBRANCH  15  19
ENDBRANCH  13  15
ENDBRANCH  10  11
BRANCH  10  28
ATOM     28  CB  LEU A   2       7.483  -4.963  26.993  0.00  0.00    +0.034 C 
BRANCH  28  29
ATOM     29  CG  LEU A   2       8.036  -4.581  25.602  0.00  0.00    -0.015 C 
ATOM     30  CD2 LEU A   2       9.226  -5.487  25.264  0.00  0.00    +0.007 C 
ATOM     31  CD1 LEU A   2       8.476  -3.123  25.490  0.00  0.00    +0.007 C 
ENDBRANCH  28  29
ENDBRANCH  10  28
ENDBRANCH   8  10
ENDBRANCH   5   6
ENDBRANCH   3   5
BRANCH   1  32
ATOM     32  C   UNK A   4       5.742   0.582  28.229  0.00  0.00    +0.184 C 
BRANCH  32  35
ATOM     33  N   UNK A   4       7.654   1.701  27.072  0.00  0.00    -0.305 N 
ATOM     34  H   UNK A   4       8.631   1.643  26.803  0.00  0.00    +0.149 HD
ATOM     35  C   UNK A   4       7.166   0.558  27.655  0.00  0.00    +0.236 C 
ATOM     36  O   UNK A   4       7.877  -0.450  27.707  0.00  0.00    -0.274 OA
BRANCH  33  37
ATOM     37  C   UNK A   4       6.934   2.950  26.814  0.00  0.00    +0.200 C 
BRANCH  37  40
ATOM     38  N   UNK A   4       8.164   3.627  24.814  0.00  0.00    -0.301 N 
ATOM     39  H   UNK A   4       7.877   2.734  24.420  0.00  0.00    +0.150 HD
ATOM     40  C   UNK A   4       7.720   4.007  26.049  0.00  0.00    +0.231 C 
ATOM     41  O   UNK A   4       7.946   5.115  26.526  0.00  0.00    -0.274 OA
BRANCH  38  42
ATOM     42  C   UNK A   4       8.939   4.523  23.960  0.00  0.00    +0.186 C 
BRANCH  42  43
ATOM     43  C   UNK A   4       8.036   4.982  22.815  0.00  0.00    +0.328 C 
ATOM     44  O   UNK A   4       7.244   4.255  22.225  0.00  0.00    -0.249 OA
BRANCH  43  46
ATOM     45  C   UNK A   4       7.019   6.951  22.073  0.00  0.00    +0.280 C 
ATOM     46  O   UNK A   4       8.189   6.317  22.588  0.00  0.00    -0.467 OA
ENDBRANCH  43  46
ENDBRANCH  42  43
BRANCH  42  47
ATOM     47  C   UNK A   4      10.257   3.890  23.481  0.00  0.00    +0.069 C 
BRANCH  47  48
ATOM     48  C   UNK A   4      10.189   2.387  23.315  0.00  0.00    -0.045 A 
ATOM     49  C   UNK A   4       9.806   1.825  22.088  0.00  0.00    +0.007 A 
ATOM     50  C   UNK A   4       9.850   0.444  21.900  0.00  0.00    +0.045 A 
ATOM     51  C   UNK A   4      10.275  -0.376  22.938  0.00  0.00    +0.117 A 
ATOM     52  C   UNK A   4      10.608   0.157  24.178  0.00  0.00    +0.045 A 
ATOM     53  C   UNK A   4      10.560   1.540  24.367  0.00  0.00    +0.007 A 
BRANCH  51  54
ATOM     54  O   UNK A   4      10.365  -1.714  22.695  0.00  0.00    -0.507 OA
ATOM     55  H   UNK A   4      10.386  -1.849  21.733  0.00  0.00    +0.292 HD
ENDBRANCH  51  54
ENDBRANCH  47  48
ENDBRANCH  42  47
ENDBRANCH  38  42
ENDBRANCH  37  40
ENDBRANCH  33  37
ENDBRANCH  32  35
BRANCH  32  56
ATOM     56  C   UNK A   4       5.754   0.986  29.715  0.00  0.00    +0.187 C 
BRANCH  56  57
ATOM     57  O   UNK A   4       7.061   1.363  30.159  0.00  0.00    -0.393 OA
ATOM     58  H   UNK A   4       7.337   2.119  29.611  0.00  0.00    +0.209 HD
ENDBRANCH  56  57
ENDBRANCH  32  56
ENDBRANCH   1  32
TORSDOF 23
ENDMDL
MODEL 2
REMARK VINA RESULT:      -6.8      1.785      3.038
REMARK  Name = 
REMARK  26 active torsions:
REMARK  status: ('A' for Active; 'I' for Inactive)
REMARK    1  A    between atoms: C_1  and  O_2
REMARK    2  A    between atoms: O_2  and  C_3
REMARK    3  A    between atoms: C_3  and  C_5
REMARK    4  A    between atoms: C_5  and  C_7
REMARK    5  A    between atoms: C_5  and  N_15
REMARK    6  A    between atoms: C_7  and  C_8
REMARK    7  A    between atoms: C_11  and  O_12
REMARK    8  A    between atoms: C_16  and  C_18
REMARK    9  A    between atoms: C_18  and  N_19
REMARK   10  A    between atoms: C_20  and  C_22
REMARK   11  A    between atoms: C_22  and  C_24
REMARK   12  A    between atoms: C_22  and  N_26
REMARK   13  A    between atoms: C_24  and  O_25
REMARK   14  A    between atoms: C_27  and  CA_29
REMARK   15  A    between atoms: CA_29  and  N_30
REMARK   16  A    between atoms: C_31  and  CA_33
REMARK   17  A    between atoms: CA_33  and  CB_35
REMARK   18  A    between atoms: CA_33  and  N_39
REMARK   19  A    between atoms: CB_35  and  CG_36
REMARK   20  A    between atoms: CG_36  and  CD1_37
REMARK   21  A    between atoms: CG_36  and  CD2_38
REMARK   22  A    between atoms: C_40  and  CA_42
REMARK   23  A    between atoms: CA_42  and  N_44
REMARK   24  A    between atoms: CA_42  and  CB_45
REMARK   25  A    between atoms: CB_45  and  CG_46
REMARK   26  A    between atoms: CZ_49  and  OH_50
REMARK                            x       y       z     vdW  Elec       q    Type
REMARK                         _______ _______ _______ _____ _____    ______ ____
ROOT
ATOM      1  N   UNK A   4       6.938  -2.017  26.132  0.00  0.00    -0.301 N 
ATOM      2  H   UNK A   4       6.273  -2.347  26.833  0.00  0.00    +0.150 HD
ATOM      3  C   GLY A   3       8.095  -2.722  25.882  0.00  0.00    +0.231 C 
ATOM      4  O   GLY A   3       9.061  -2.224  25.307  0.00  0.00    -0.274 OA
ENDROOT
BRANCH   3   5
ATOM      5  CA  GLY A   3       8.130  -4.142  26.422  0.00  0.00    +0.200 C 
BRANCH   5   6
ATOM      6  N   GLY A   3       6.791  -4.690  26.480  0.00  0.00    -0.305 N 
ATOM      7  H   GLY A   3       6.131  -4.398  25.770  0.00  0.00    +0.149 HD
ATOM      8  C   LEU A   2       6.427  -5.610  27.434  0.00  0.00    +0.234 C 
ATOM      9  O   LEU A   2       7.241  -6.094  28.222  0.00  0.00    -0.274 OA
BRANCH   8  10
ATOM     10  CA  LEU A   2       4.935  -6.008  27.443  0.00  0.00    +0.159 C 
BRANCH  10  11
ATOM     11  N   LEU A   2       4.615  -6.653  26.177  0.00  0.00    -0.303 N 
ATOM     12  H   LEU A   2       5.396  -6.918  25.579  0.00  0.00    +0.149 HD
ATOM     13  C   TYR A   1       3.380  -6.545  25.582  0.00  0.00    +0.231 C 
ATOM     14  O   TYR A   1       2.445  -5.917  26.074  0.00  0.00    -0.274 OA
BRANCH  13  15
ATOM     15  CA  TYR A   1       3.257  -7.255  24.220  0.00  0.00    +0.142 C 
BRANCH  15  16
ATOM     16  N   TYR A   1       1.983  -8.011  24.191  0.00  0.00    -0.320 NA
ATOM     17  H1  TYR A   1       1.614  -7.992  23.240  0.00  0.00    +0.119 HD
ATOM     18  H2  TYR A   1       2.195  -8.993  24.380  0.00  0.00    +0.119 HD
ENDBRANCH  15  16
BRANCH  15  19
ATOM     19  CB  TYR A   1       3.331  -6.257  23.048  0.00  0.00    +0.063 C 
BRANCH  19  20
ATOM     20  CG  TYR A   1       4.641  -5.511  22.886  0.00  0.00    -0.045 A 
ATOM     21  CD2 TYR A   1       4.660  -4.115  23.037  0.00  0.00    +0.007 A 
ATOM     22  CE2 TYR A   1       5.849  -3.395  22.898  0.00  0.00    +0.045 A 
ATOM     23  CZ  TYR A   1       7.026  -4.066  22.600  0.00  0.00    +0.117 A 
ATOM     24  CE1 TYR A   1       7.031  -5.443  22.421  0.00  0.00    +0.045 A 
ATOM     25  CD1 TYR A   1       5.840  -6.159  22.554  0.00  0.00    +0.007 A 
BRANCH  23  26
ATOM     26  OH  TYR A   1       8.171  -3.334  22.489  0.00  0.00    -0.507 OA
ATOM     27  HH  TYR A   1       8.342  -2.906  23.344  0.00  0.00    +0.292 HD
ENDBRANCH  23  26
ENDBRANCH  19  20
ENDBRANCH  15  19
ENDBRANCH  13  15
ENDBRANCH  10  11
BRANCH  10  28
ATOM     28  CB  LEU A   2       4.521  -6.863  28.659  0.00  0.00    +0.034 C 
BRANCH  28  29
ATOM     29  CG  LEU A   2       3.453  -6.269  29.605  0.00  0.00    -0.015 C 
ATOM     30  CD2 LEU A   2       2.151  -7.066  29.463  0.00  0.00    +0.007 C 
ATOM     31  CD1 LEU A   2       3.159  -4.791  29.356  0.00  0.00    +0.007 C 
ENDBRANCH  28  29
ENDBRANCH  10  28
ENDBRANCH   8  10
ENDBRANCH   5   6
ENDBRANCH   3   5
BRANCH   1  32
ATOM     32  C   UNK A   4       6.824  -0.635  25.666  0.00  0.00    +0.184 C 
BRANCH  32  35
ATOM     33  N   UNK A   4       5.695   1.234  26.883  0.00  0.00    -0.305 N 
ATOM     34  H   UNK A   4       4.814   1.681  27.116  0.00  0.00    +0.149 HD
ATOM     35  C   UNK A   4       5.556   0.054  26.194  0.00  0.00    +0.236 C 
ATOM     36  O   UNK A   4       4.431  -0.418  26.014  0.00  0.00    -0.274 OA
BRANCH  33  37
ATOM     37  C   UNK A   4       6.939   1.889  27.293  0.00  0.00    +0.200 C 
BRANCH  37  40
ATOM     38  N   UNK A   4       7.439   2.911  25.131  0.00  0.00    -0.301 N 
ATOM     39  H   UNK A   4       7.169   2.019  24.724  0.00  0.00    +0.150 HD
ATOM     40  C   UNK A   4       7.326   3.116  26.476  0.00  0.00    +0.231 C 
ATOM     41  O   UNK A   4       7.534   4.204  27.006  0.00  0.00    -0.274 OA
BRANCH  38  42
ATOM     42  C   UNK A   4       7.810   3.985  24.213  0.00  0.00    +0.186 C 
BRANCH  42  43
ATOM     43  C   UNK A   4       6.669   4.167  23.212  0.00  0.00    +0.328 C 
ATOM     44  O   UNK A   4       6.642   5.035  22.347  0.00  0.00    -0.249 OA
BRANCH  43  46
ATOM     45  C   UNK A   4       4.451   3.537  22.832  0.00  0.00    +0.280 C 
ATOM     46  O   UNK A   4       5.726   3.198  23.377  0.00  0.00    -0.467 OA
ENDBRANCH  43  46
ENDBRANCH  42  43
BRANCH  42  47
ATOM     47  C   UNK A   4       9.175   3.747  23.545  0.00  0.00    +0.069 C 
BRANCH  47  48
ATOM     48  C   UNK A   4       9.391   2.320  23.087  0.00  0.00    -0.045 A 
ATOM     49  C   UNK A   4       8.858   1.878  21.866  0.00  0.00    +0.007 A 
ATOM     50  C   UNK A   4       9.149   0.599  21.392  0.00  0.00    +0.045 A 
ATOM     51  C   UNK A   4       9.969  -0.238  22.137  0.00  0.00    +0.117 A 
ATOM     52  C   UNK A   4      10.464   0.161  23.373  0.00  0.00    +0.045 A 
ATOM     53  C   UNK A   4      10.170   1.440  23.849  0.00  0.00    +0.007 A 
BRANCH  51  54
ATOM     54  O   UNK A   4      10.282  -1.455  21.608  0.00  0.00    -0.507 OA
ATOM     55  H   UNK A   4       9.526  -2.051  21.744  0.00  0.00    +0.292 HD
ENDBRANCH  51  54
ENDBRANCH  47  48
ENDBRANCH  42  47
ENDBRANCH  38  42
ENDBRANCH  37  40
ENDBRANCH  33  37
ENDBRANCH  32  35
BRANCH  32  56
ATOM     56  C   UNK A   4       6.883  -0.574  24.128  0.00  0.00    +0.187 C 
BRANCH  56  57
ATOM     57  O   UNK A   4       6.087   0.492  23.601  0.00  0.00    -0.393 OA
ATOM     58  H   UNK A   4       5.401   0.684  24.265  0.00  0.00    +0.209 HD
ENDBRANCH  56  57
ENDBRANCH  32  56
ENDBRANCH   1  32
TORSDOF 23
ENDMDL
MODEL 3
REMARK VINA RESULT:      -6.8      2.134      7.077
REMARK  Name = 
REMARK  26 active torsions:
REMARK  status: ('A' for Active; 'I' for Inactive)
REMARK    1  A    between atoms: C_1  and  O_2
REMARK    2  A    between atoms: O_2  and  C_3
REMARK    3  A    between atoms: C_3  and  C_5
REMARK    4  A    between atoms: C_5  and  C_7
REMARK    5  A    between atoms: C_5  and  N_15
REMARK    6  A    between atoms: C_7  and  C_8
REMARK    7  A    between atoms: C_11  and  O_12
REMARK    8  A    between atoms: C_16  and  C_18
REMARK    9  A    between atoms: C_18  and  N_19
REMARK   10  A    between atoms: C_20  and  C_22
REMARK   11  A    between atoms: C_22  and  C_24
REMARK   12  A    between atoms: C_22  and  N_26
REMARK   13  A    between atoms: C_24  and  O_25
REMARK   14  A    between atoms: C_27  and  CA_29
REMARK   15  A    between atoms: CA_29  and  N_30
REMARK   16  A    between atoms: C_31  and  CA_33
REMARK   17  A    between atoms: CA_33  and  CB_35
REMARK   18  A    between atoms: CA_33  and  N_39
REMARK   19  A    between atoms: CB_35  and  CG_36
REMARK   20  A    between atoms: CG_36  and  CD1_37
REMARK   21  A    between atoms: CG_36  and  CD2_38
REMARK   22  A    between atoms: C_40  and  CA_42
REMARK   23  A    between atoms: CA_42  and  N_44
REMARK   24  A    between atoms: CA_42  and  CB_45
REMARK   25  A    between atoms: CB_45  and  CG_46
REMARK   26  A    between atoms: CZ_49  and  OH_50
REMARK                            x       y       z     vdW  Elec       q    Type
REMARK                         _______ _______ _______ _____ _____    ______ ____
ROOT
ATOM      1  N   UNK A   4       4.045  -4.564  27.907  0.00  0.00    -0.301 N 
ATOM      2  H   UNK A   4       3.588  -4.416  27.006  0.00  0.00    +0.150 HD
ATOM      3  C   GLY A   3       3.834  -3.687  28.948  0.00  0.00    +0.231 C 
ATOM      4  O   GLY A   3       4.583  -3.624  29.921  0.00  0.00    -0.274 OA
ENDROOT
BRANCH   3   5
ATOM      5  CA  GLY A   3       2.649  -2.749  28.789  0.00  0.00    +0.200 C 
BRANCH   5   6
ATOM      6  N   GLY A   3       3.107  -1.383  28.647  0.00  0.00    -0.305 N 
ATOM      7  H   GLY A   3       3.437  -0.907  29.478  0.00  0.00    +0.149 HD
ATOM      8  C   LEU A   2       3.140  -0.755  27.425  0.00  0.00    +0.234 C 
ATOM      9  O   LEU A   2       2.883  -1.348  26.377  0.00  0.00    -0.274 OA
BRANCH   8  10
ATOM     10  CA  LEU A   2       3.536   0.738  27.452  0.00  0.00    +0.159 C 
BRANCH  10  11
ATOM     11  N   LEU A   2       4.845   0.887  26.833  0.00  0.00    -0.303 N 
ATOM     12  H   LEU A   2       4.942   0.575  25.867  0.00  0.00    +0.149 HD
ATOM     13  C   TYR A   1       6.001   1.018  27.566  0.00  0.00    +0.231 C 
ATOM     14  O   TYR A   1       6.023   1.041  28.795  0.00  0.00    -0.274 OA
BRANCH  13  15
ATOM     15  CA  TYR A   1       7.290   1.109  26.726  0.00  0.00    +0.142 C 
BRANCH  15  16
ATOM     16  N   TYR A   1       8.294   0.180  27.295  0.00  0.00    -0.320 NA
ATOM     17  H1  TYR A   1       8.536   0.496  28.234  0.00  0.00    +0.119 HD
ATOM     18  H2  TYR A   1       7.846  -0.730  27.422  0.00  0.00    +0.119 HD
ENDBRANCH  15  16
BRANCH  15  19
ATOM     19  CB  TYR A   1       7.026   0.792  25.241  0.00  0.00    +0.063 C 
BRANCH  19  20
ATOM     20  CG  TYR A   1       6.997   1.979  24.299  0.00  0.00    -0.045 A 
ATOM     21  CD2 TYR A   1       7.369   3.245  24.779  0.00  0.00    +0.007 A 
ATOM     22  CE2 TYR A   1       7.357   4.362  23.940  0.00  0.00    +0.045 A 
ATOM     23  CZ  TYR A   1       6.967   4.221  22.615  0.00  0.00    +0.117 A 
ATOM     24  CE1 TYR A   1       6.571   2.985  22.121  0.00  0.00    +0.045 A 
ATOM     25  CD1 TYR A   1       6.577   1.872  22.965  0.00  0.00    +0.007 A 
BRANCH  23  26
ATOM     26  OH  TYR A   1       6.984   5.328  21.821  0.00  0.00    -0.507 OA
ATOM     27  HH  TYR A   1       7.859   5.743  21.897  0.00  0.00    +0.292 HD
ENDBRANCH  23  26
ENDBRANCH  19  20
ENDBRANCH  15  19
ENDBRANCH  13  15
ENDBRANCH  10  11
BRANCH  10  28
ATOM     28  CB  LEU A   2       2.481   1.677  26.829  0.00  0.00    +0.034 C 
BRANCH  28  29
ATOM     29  CG  LEU A   2       2.970   3.062  26.349  0.00  0.00    -0.015 C 
ATOM     30  CD2 LEU A   2       1.949   4.130  26.759  0.00  0.00    +0.007 C 
ATOM     31  CD1 LEU A   2       3.197   3.148  24.840  0.00  0.00    +0.007 C 
ENDBRANCH  28  29
ENDBRANCH  10  28
ENDBRANCH   8  10
ENDBRANCH   5   6
ENDBRANCH   3   5
BRANCH   1  32
ATOM     32  C   UNK A   4       5.175  -5.491  27.966  0.00  0.00    +0.184 C 
BRANCH  32  35
ATOM     33  N   UNK A   4       6.761  -5.891  26.075  0.00  0.00    -0.305 N 
ATOM     34  H   UNK A   4       6.939  -6.398  25.214  0.00  0.00    +0.149 HD
ATOM     35  C   UNK A   4       5.505  -6.095  26.592  0.00  0.00    +0.236 C 
ATOM     36  O   UNK A   4       4.682  -6.754  25.951  0.00  0.00    -0.274 OA
BRANCH  33  37
ATOM     37  C   UNK A   4       7.828  -5.053  26.624  0.00  0.00    +0.200 C 
BRANCH  37  40
ATOM     38  N   UNK A   4       8.202  -3.587  24.705  0.00  0.00    -0.301 N 
ATOM     39  H   UNK A   4       8.238  -4.438  24.150  0.00  0.00    +0.150 HD
ATOM     40  C   UNK A   4       7.916  -3.648  26.039  0.00  0.00    +0.231 C 
ATOM     41  O   UNK A   4       7.753  -2.649  26.733  0.00  0.00    -0.274 OA
BRANCH  38  42
ATOM     42  C   UNK A   4       8.328  -2.315  23.998  0.00  0.00    +0.186 C 
BRANCH  42  43
ATOM     43  C   UNK A   4       7.308  -2.304  22.859  0.00  0.00    +0.328 C 
ATOM     44  O   UNK A   4       6.446  -1.445  22.713  0.00  0.00    -0.249 OA
BRANCH  43  46
ATOM     45  C   UNK A   4       6.407  -4.203  21.838  0.00  0.00    +0.280 C 
ATOM     46  O   UNK A   4       7.532  -3.341  22.004  0.00  0.00    -0.467 OA
ENDBRANCH  43  46
ENDBRANCH  42  43
BRANCH  42  47
ATOM     47  C   UNK A   4       9.767  -2.038  23.530  0.00  0.00    +0.069 C 
BRANCH  47  48
ATOM     48  C   UNK A   4      10.064  -0.570  23.304  0.00  0.00    -0.045 A 
ATOM     49  C   UNK A   4       9.814   0.021  22.057  0.00  0.00    +0.007 A 
ATOM     50  C   UNK A   4       9.982   1.394  21.881  0.00  0.00    +0.045 A 
ATOM     51  C   UNK A   4      10.402   2.176  22.949  0.00  0.00    +0.117 A 
ATOM     52  C   UNK A   4      10.706   1.602  24.178  0.00  0.00    +0.045 A 
ATOM     53  C   UNK A   4      10.541   0.227  24.353  0.00  0.00    +0.007 A 
BRANCH  51  54
ATOM     54  O   UNK A   4      10.493   3.522  22.754  0.00  0.00    -0.507 OA
ATOM     55  H   UNK A   4      10.397   3.963  23.614  0.00  0.00    +0.292 HD
ENDBRANCH  51  54
ENDBRANCH  47  48
ENDBRANCH  42  47
ENDBRANCH  38  42
ENDBRANCH  37  40
ENDBRANCH  33  37
ENDBRANCH  32  35
BRANCH  32  56
ATOM     56  C   UNK A   4       4.917  -6.598  29.006  0.00  0.00    +0.187 C 
BRANCH  56  57
ATOM     57  O   UNK A   4       5.482  -7.851  28.609  0.00  0.00    -0.393 OA
ATOM     58  H   UNK A   4       5.039  -8.109  27.781  0.00  0.00    +0.209 HD
ENDBRANCH  56  57
ENDBRANCH  32  56
ENDBRANCH   1  32
TORSDOF 23
ENDMDL
MODEL 4
REMARK VINA RESULT:      -6.6      2.383      9.316
REMARK  Name = 
REMARK  26 active torsions:
REMARK  status: ('A' for Active; 'I' for Inactive)
REMARK    1  A    between atoms: C_1  and  O_2
REMARK    2  A    between atoms: O_2  and  C_3
REMARK    3  A    between atoms: C_3  and  C_5
REMARK    4  A    between atoms: C_5  and  C_7
REMARK    5  A    between atoms: C_5  and  N_15
REMARK    6  A    between atoms: C_7  and  C_8
REMARK    7  A    between atoms: C_11  and  O_12
REMARK    8  A    between atoms: C_16  and  C_18
REMARK    9  A    between atoms: C_18  and  N_19
REMARK   10  A    between atoms: C_20  and  C_22
REMARK   11  A    between atoms: C_22  and  C_24
REMARK   12  A    between atoms: C_22  and  N_26
REMARK   13  A    between atoms: C_24  and  O_25
REMARK   14  A    between atoms: C_27  and  CA_29
REMARK   15  A    between atoms: CA_29  and  N_30
REMARK   16  A    between atoms: C_31  and  CA_33
REMARK   17  A    between atoms: CA_33  and  CB_35
REMARK   18  A    between atoms: CA_33  and  N_39
REMARK   19  A    between atoms: CB_35  and  CG_36
REMARK   20  A    between atoms: CG_36  and  CD1_37
REMARK   21  A    between atoms: CG_36  and  CD2_38
REMARK   22  A    between atoms: C_40  and  CA_42
REMARK   23  A    between atoms: CA_42  and  N_44
REMARK   24  A    between atoms: CA_42  and  CB_45
REMARK   25  A    between atoms: CB_45  and  CG_46
REMARK   26  A    between atoms: CZ_49  and  OH_50
REMARK                            x       y       z     vdW  Elec       q    Type
REMARK                         _______ _______ _______ _____ _____    ______ ____
ROOT
ATOM      1  N   UNK A   4       8.685  -2.834  26.357  0.00  0.00    -0.301 N 
ATOM      2  H   UNK A   4       9.016  -3.003  27.308  0.00  0.00    +0.150 HD
ATOM      3  C   GLY A   3       8.184  -1.601  26.002  0.00  0.00    +0.231 C 
ATOM      4  O   GLY A   3       7.489  -1.432  25.003  0.00  0.00    -0.274 OA
ENDROOT
BRANCH   3   5
ATOM      5  CA  GLY A   3       8.489  -0.464  26.964  0.00  0.00    +0.200 C 
BRANCH   5   6
ATOM      6  N   GLY A   3       7.980   0.786  26.441  0.00  0.00    -0.305 N 
ATOM      7  H   GLY A   3       8.202   1.021  25.481  0.00  0.00    +0.149 HD
ATOM      8  C   LEU A   2       7.184   1.614  27.196  0.00  0.00    +0.234 C 
ATOM      9  O   LEU A   2       6.777   1.293  28.313  0.00  0.00    -0.274 OA
BRANCH   8  10
ATOM     10  CA  LEU A   2       6.821   2.967  26.543  0.00  0.00    +0.159 C 
BRANCH  10  11
ATOM     11  N   LEU A   2       7.588   3.115  25.314  0.00  0.00    -0.303 N 
ATOM     12  H   LEU A   2       7.831   2.262  24.811  0.00  0.00    +0.149 HD
ATOM     13  C   TYR A   1       8.329   4.238  25.035  0.00  0.00    +0.231 C 
ATOM     14  O   TYR A   1       8.388   5.213  25.782  0.00  0.00    -0.274 OA
BRANCH  13  15
ATOM     15  CA  TYR A   1       9.113   4.180  23.709  0.00  0.00    +0.142 C 
BRANCH  15  16
ATOM     16  N   TYR A   1       9.506   5.557  23.328  0.00  0.00    -0.320 NA
ATOM     17  H1  TYR A   1      10.454   5.533  22.952  0.00  0.00    +0.119 HD
ATOM     18  H2  TYR A   1       8.912   5.849  22.549  0.00  0.00    +0.119 HD
ENDBRANCH  15  16
BRANCH  15  19
ATOM     19  CB  TYR A   1      10.349   3.265  23.818  0.00  0.00    +0.063 C 
BRANCH  19  20
ATOM     20  CG  TYR A   1      10.201   1.871  23.243  0.00  0.00    -0.045 A 
ATOM     21  CD2 TYR A   1       9.570   1.705  21.999  0.00  0.00    +0.007 A 
ATOM     22  CE2 TYR A   1       9.418   0.435  21.437  0.00  0.00    +0.045 A 
ATOM     23  CZ  TYR A   1       9.890  -0.678  22.118  0.00  0.00    +0.117 A 
ATOM     24  CE1 TYR A   1      10.495  -0.544  23.361  0.00  0.00    +0.045 A 
ATOM     25  CD1 TYR A   1      10.639   0.725  23.923  0.00  0.00    +0.007 A 
BRANCH  23  26
ATOM     26  OH  TYR A   1       9.740  -1.899  21.531  0.00  0.00    -0.507 OA
ATOM     27  HH  TYR A   1       8.993  -2.351  21.957  0.00  0.00    +0.292 HD
ENDBRANCH  23  26
ENDBRANCH  19  20
ENDBRANCH  15  19
ENDBRANCH  13  15
ENDBRANCH  10  11
BRANCH  10  28
ATOM     28  CB  LEU A   2       5.307   3.168  26.318  0.00  0.00    +0.034 C 
BRANCH  28  29
ATOM     29  CG  LEU A   2       4.749   4.594  26.519  0.00  0.00    -0.015 C 
ATOM     30  CD2 LEU A   2       4.944   5.012  27.981  0.00  0.00    +0.007 C 
ATOM     31  CD1 LEU A   2       3.273   4.738  26.155  0.00  0.00    +0.007 C 
ENDBRANCH  28  29
ENDBRANCH  10  28
ENDBRANCH   8  10
ENDBRANCH   5   6
ENDBRANCH   3   5
BRANCH   1  32
ATOM     32  C   UNK A   4       8.423  -3.990  25.500  0.00  0.00    +0.184 C 
BRANCH  32  35
ATOM     33  N   UNK A   4       6.566  -5.662  25.461  0.00  0.00    -0.305 N 
ATOM     34  H   UNK A   4       6.094  -6.413  25.955  0.00  0.00    +0.149 HD
ATOM     35  C   UNK A   4       7.548  -5.044  26.195  0.00  0.00    +0.236 C 
ATOM     36  O   UNK A   4       7.706  -5.348  27.380  0.00  0.00    -0.274 OA
BRANCH  33  37
ATOM     37  C   UNK A   4       6.152  -5.362  24.089  0.00  0.00    +0.200 C 
BRANCH  37  40
ATOM     38  N   UNK A   4       4.095  -4.540  25.122  0.00  0.00    -0.301 N 
ATOM     39  H   UNK A   4       4.551  -4.725  26.013  0.00  0.00    +0.150 HD
ATOM     40  C   UNK A   4       4.775  -4.724  23.952  0.00  0.00    +0.231 C 
ATOM     41  O   UNK A   4       4.313  -4.415  22.857  0.00  0.00    -0.274 OA
BRANCH  38  42
ATOM     42  C   UNK A   4       2.761  -3.949  25.158  0.00  0.00    +0.186 C 
BRANCH  42  43
ATOM     43  C   UNK A   4       2.796  -2.759  26.118  0.00  0.00    +0.328 C 
ATOM     44  O   UNK A   4       2.092  -2.657  27.116  0.00  0.00    -0.249 OA
BRANCH  43  46
ATOM     45  C   UNK A   4       4.492  -1.322  26.838  0.00  0.00    +0.280 C 
ATOM     46  O   UNK A   4       3.757  -1.868  25.744  0.00  0.00    -0.467 OA
ENDBRANCH  43  46
ENDBRANCH  42  43
BRANCH  42  47
ATOM     47  C   UNK A   4       1.667  -4.976  25.500  0.00  0.00    +0.069 C 
BRANCH  47  48
ATOM     48  C   UNK A   4       1.453  -6.020  24.425  0.00  0.00    -0.045 A 
ATOM     49  C   UNK A   4       0.975  -5.649  23.159  0.00  0.00    +0.007 A 
ATOM     50  C   UNK A   4       0.883  -6.592  22.136  0.00  0.00    +0.045 A 
ATOM     51  C   UNK A   4       1.265  -7.905  22.377  0.00  0.00    +0.117 A 
ATOM     52  C   UNK A   4       1.691  -8.305  23.638  0.00  0.00    +0.045 A 
ATOM     53  C   UNK A   4       1.779  -7.362  24.664  0.00  0.00    +0.007 A 
BRANCH  51  54
ATOM     54  O   UNK A   4       1.221  -8.781  21.334  0.00  0.00    -0.507 OA
ATOM     55  H   UNK A   4       1.477  -8.307  20.525  0.00  0.00    +0.292 HD
ENDBRANCH  51  54
ENDBRANCH  47  48
ENDBRANCH  42  47
ENDBRANCH  38  42
ENDBRANCH  37  40
ENDBRANCH  33  37
ENDBRANCH  32  35
BRANCH  32  56
ATOM     56  C   UNK A   4       9.744  -4.610  25.006  0.00  0.00    +0.187 C 
BRANCH  56  57
ATOM     57  O   UNK A   4       9.804  -6.017  25.256  0.00  0.00    -0.393 OA
ATOM     58  H   UNK A   4       9.876  -6.453  24.388  0.00  0.00    +0.209 HD
ENDBRANCH  56  57
ENDBRANCH  32  56
ENDBRANCH   1  32
TORSDOF 23
ENDMDL
MODEL 5
REMARK VINA RESULT:      -6.6      1.967      9.302
REMARK  Name = 
REMARK  26 active torsions:
REMARK  status: ('A' for Active; 'I' for Inactive)
REMARK    1  A    between atoms: C_1  and  O_2
REMARK    2  A    between atoms: O_2  and  C_3
REMARK    3  A    between atoms: C_3  and  C_5
REMARK    4  A    between atoms: C_5  and  C_7
REMARK    5  A    between atoms: C_5  and  N_15
REMARK    6  A    between atoms: C_7  and  C_8
REMARK    7  A    between atoms: C_11  and  O_12
REMARK    8  A    between atoms: C_16  and  C_18
REMARK    9  A    between atoms: C_18  and  N_19
REMARK   10  A    between atoms: C_20  and  C_22
REMARK   11  A    between atoms: C_22  and  C_24
REMARK   12  A    between atoms: C_22  and  N_26
REMARK   13  A    between atoms: C_24  and  O_25
REMARK   14  A    between atoms: C_27  and  CA_29
REMARK   15  A    between atoms: CA_29  and  N_30
REMARK   16  A    between atoms: C_31  and  CA_33
REMARK   17  A    between atoms: CA_33  and  CB_35
REMARK   18  A    between atoms: CA_33  and  N_39
REMARK   19  A    between atoms: CB_35  and  CG_36
REMARK   20  A    between atoms: CG_36  and  CD1_37
REMARK   21  A    between atoms: CG_36  and  CD2_38
REMARK   22  A    between atoms: C_40  and  CA_42
REMARK   23  A    between atoms: CA_42  and  N_44
REMARK   24  A    between atoms: CA_42  and  CB_45
REMARK   25  A    between atoms: CB_45  and  CG_46
REMARK   26  A    between atoms: CZ_49  and  OH_50
REMARK                            x       y       z     vdW  Elec       q    Type
REMARK                         _______ _______ _______ _____ _____    ______ ____
ROOT
ATOM      1  N   UNK A   4       8.548  -2.684  25.452  0.00  0.00    -0.301 N 
ATOM      2  H   UNK A   4       9.534  -2.581  25.211  0.00  0.00    +0.150 HD
ATOM      3  C   GLY A   3       7.967  -1.848  26.380  0.00  0.00    +0.231 C 
ATOM      4  O   GLY A   3       6.906  -2.118  26.940  0.00  0.00    -0.274 OA
ENDROOT
BRANCH   3   5
ATOM      5  CA  GLY A   3       8.754  -0.594  26.722  0.00  0.00    +0.200 C 
BRANCH   5   6
ATOM      6  N   GLY A   3       8.068   0.580  26.226  0.00  0.00    -0.305 N 
ATOM      7  H   GLY A   3       8.208   0.833  25.256  0.00  0.00    +0.149 HD
ATOM      8  C   LEU A   2       7.218   1.310  27.022  0.00  0.00    +0.234 C 
ATOM      9  O   LEU A   2       6.915   0.951  28.159  0.00  0.00    -0.274 OA
BRANCH   8  10
ATOM     10  CA  LEU A   2       6.658   2.603  26.388  0.00  0.00    +0.159 C 
BRANCH  10  11
ATOM     11  N   LEU A   2       7.411   2.896  25.177  0.00  0.00    -0.303 N 
ATOM     12  H   LEU A   2       7.547   2.132  24.516  0.00  0.00    +0.149 HD
ATOM     13  C   TYR A   1       8.268   3.967  25.079  0.00  0.00    +0.231 C 
ATOM     14  O   TYR A   1       8.453   4.771  25.990  0.00  0.00    -0.274 OA
BRANCH  13  15
ATOM     15  CA  TYR A   1       9.013   4.074  23.734  0.00  0.00    +0.142 C 
BRANCH  15  16
ATOM     16  N   TYR A   1       9.319   5.500  23.472  0.00  0.00    -0.320 NA
ATOM     17  H1  TYR A   1       9.615   5.936  24.346  0.00  0.00    +0.119 HD
ATOM     18  H2  TYR A   1      10.135   5.540  22.859  0.00  0.00    +0.119 HD
ENDBRANCH  15  16
BRANCH  15  19
ATOM     19  CB  TYR A   1      10.300   3.226  23.726  0.00  0.00    +0.063 C 
BRANCH  19  20
ATOM     20  CG  TYR A   1      10.171   1.821  23.171  0.00  0.00    -0.045 A 
ATOM     21  CD2 TYR A   1       9.511   1.625  21.947  0.00  0.00    +0.007 A 
ATOM     22  CE2 TYR A   1       9.374   0.345  21.404  0.00  0.00    +0.045 A 
ATOM     23  CZ  TYR A   1       9.892  -0.748  22.085  0.00  0.00    +0.117 A 
ATOM     24  CE1 TYR A   1      10.528  -0.585  23.308  0.00  0.00    +0.045 A 
ATOM     25  CD1 TYR A   1      10.656   0.695  23.852  0.00  0.00    +0.007 A 
BRANCH  23  26
ATOM     26  OH  TYR A   1       9.756  -1.980  21.516  0.00  0.00    -0.507 OA
ATOM     27  HH  TYR A   1      10.098  -2.642  22.140  0.00  0.00    +0.292 HD
ENDBRANCH  23  26
ENDBRANCH  19  20
ENDBRANCH  15  19
ENDBRANCH  13  15
ENDBRANCH  10  11
BRANCH  10  28
ATOM     28  CB  LEU A   2       5.135   2.570  26.138  0.00  0.00    +0.034 C 
BRANCH  28  29
ATOM     29  CG  LEU A   2       4.557   3.629  25.173  0.00  0.00    -0.015 C 
ATOM     30  CD2 LEU A   2       3.447   4.411  25.885  0.00  0.00    +0.007 C 
ATOM     31  CD1 LEU A   2       3.998   3.044  23.877  0.00  0.00    +0.007 C 
ENDBRANCH  28  29
ENDBRANCH  10  28
ENDBRANCH   8  10
ENDBRANCH   5   6
ENDBRANCH   3   5
BRANCH   1  32
ATOM     32  C   UNK A   4       7.869  -3.924  25.077  0.00  0.00    +0.184 C 
BRANCH  32  35
ATOM     33  N   UNK A   4       8.302  -5.861  26.597  0.00  0.00    -0.305 N 
ATOM     34  H   UNK A   4       8.815  -6.725  26.741  0.00  0.00    +0.149 HD
ATOM     35  C   UNK A   4       8.676  -5.171  25.470  0.00  0.00    +0.236 C 
ATOM     36  O   UNK A   4       9.637  -5.566  24.805  0.00  0.00    -0.274 OA
BRANCH  33  37
ATOM     37  C   UNK A   4       7.273  -5.492  27.571  0.00  0.00    +0.200 C 
BRANCH  37  40
ATOM     38  N   UNK A   4       5.160  -6.102  26.506  0.00  0.00    -0.301 N 
ATOM     39  H   UNK A   4       5.428  -5.460  25.764  0.00  0.00    +0.150 HD
ATOM     40  C   UNK A   4       6.014  -6.351  27.542  0.00  0.00    +0.231 C 
ATOM     41  O   UNK A   4       5.789  -7.195  28.405  0.00  0.00    -0.274 OA
BRANCH  38  42
ATOM     42  C   UNK A   4       3.907  -6.835  26.342  0.00  0.00    +0.186 C 
BRANCH  42  43
ATOM     43  C   UNK A   4       3.813  -7.292  24.886  0.00  0.00    +0.328 C 
ATOM     44  O   UNK A   4       3.110  -8.217  24.497  0.00  0.00    -0.249 OA
BRANCH  43  46
ATOM     45  C   UNK A   4       3.811  -5.796  23.091  0.00  0.00    +0.280 C 
ATOM     46  O   UNK A   4       4.567  -6.491  24.082  0.00  0.00    -0.467 OA
ENDBRANCH  43  46
ENDBRANCH  42  43
BRANCH  42  47
ATOM     47  C   UNK A   4       2.683  -6.027  26.808  0.00  0.00    +0.069 C 
BRANCH  47  48
ATOM     48  C   UNK A   4       2.983  -4.570  27.088  0.00  0.00    -0.045 A 
ATOM     49  C   UNK A   4       3.199  -4.129  28.402  0.00  0.00    +0.007 A 
ATOM     50  C   UNK A   4       3.584  -2.812  28.650  0.00  0.00    +0.045 A 
ATOM     51  C   UNK A   4       3.752  -1.935  27.586  0.00  0.00    +0.117 A 
ATOM     52  C   UNK A   4       3.491  -2.337  26.281  0.00  0.00    +0.045 A 
ATOM     53  C   UNK A   4       3.102  -3.655  26.034  0.00  0.00    +0.007 A 
BRANCH  51  54
ATOM     54  O   UNK A   4       4.191  -0.675  27.864  0.00  0.00    -0.507 OA
ATOM     55  H   UNK A   4       4.692  -0.349  27.098  0.00  0.00    +0.292 HD
ENDBRANCH  51  54
ENDBRANCH  47  48
ENDBRANCH  42  47
ENDBRANCH  38  42
ENDBRANCH  37  40
ENDBRANCH  33  37
ENDBRANCH  32  35
BRANCH  32  56
ATOM     56  C   UNK A   4       7.543  -3.932  23.572  0.00  0.00    +0.187 C 
BRANCH  56  57
ATOM     57  O   UNK A   4       7.240  -5.246  23.094  0.00  0.00    -0.393 OA
ATOM     58  H   UNK A   4       7.820  -5.407  22.328  0.00  0.00    +0.209 HD
ENDBRANCH  56  57
ENDBRANCH  32  56
ENDBRANCH   1  32
TORSDOF 23
ENDMDL
MODEL 6
REMARK VINA RESULT:      -6.5      1.790      3.549
REMARK  Name = 
REMARK  26 active torsions:
REMARK  status: ('A' for Active; 'I' for Inactive)
REMARK    1  A    between atoms: C_1  and  O_2
REMARK    2  A    between atoms: O_2  and  C_3
REMARK    3  A    between atoms: C_3  and  C_5
REMARK    4  A    between atoms: C_5  and  C_7
REMARK    5  A    between atoms: C_5  and  N_15
REMARK    6  A    between atoms: C_7  and  C_8
REMARK    7  A    between atoms: C_11  and  O_12
REMARK    8  A    between atoms: C_16  and  C_18
REMARK    9  A    between atoms: C_18  and  N_19
REMARK   10  A    between atoms: C_20  and  C_22
REMARK   11  A    between atoms: C_22  and  C_24
REMARK   12  A    between atoms: C_22  and  N_26
REMARK   13  A    between atoms: C_24  and  O_25
REMARK   14  A    between atoms: C_27  and  CA_29
REMARK   15  A    between atoms: CA_29  and  N_30
REMARK   16  A    between atoms: C_31  and  CA_33
REMARK   17  A    between atoms: CA_33  and  CB_35
REMARK   18  A    between atoms: CA_33  and  N_39
REMARK   19  A    between atoms: CB_35  and  CG_36
REMARK   20  A    between atoms: CG_36  and  CD1_37
REMARK   21  A    between atoms: CG_36  and  CD2_38
REMARK   22  A    between atoms: C_40  and  CA_42
REMARK   23  A    between atoms: CA_42  and  N_44
REMARK   24  A    between atoms: CA_42  and  CB_45
REMARK   25  A    between atoms: CB_45  and  CG_46
REMARK   26  A    between atoms: CZ_49  and  OH_50
REMARK                            x       y       z     vdW  Elec       q    Type
REMARK                         _______ _______ _______ _____ _____    ______ ____
ROOT
ATOM      1  N   UNK A   4       4.833  -0.561  27.915  0.00  0.00    -0.301 N 
ATOM      2  H   UNK A   4       5.595  -0.664  28.586  0.00  0.00    +0.150 HD
ATOM      3  C   GLY A   3       4.471  -1.613  27.103  0.00  0.00    +0.231 C 
ATOM      4  O   GLY A   3       3.805  -1.461  26.082  0.00  0.00    -0.274 OA
ENDROOT
BRANCH   3   5
ATOM      5  CA  GLY A   3       5.006  -2.975  27.513  0.00  0.00    +0.200 C 
BRANCH   5   6
ATOM      6  N   GLY A   3       4.925  -3.901  26.402  0.00  0.00    -0.305 N 
ATOM      7  H   GLY A   3       5.536  -3.741  25.610  0.00  0.00    +0.149 HD
ATOM      8  C   LEU A   2       4.085  -4.988  26.427  0.00  0.00    +0.234 C 
ATOM      9  O   LEU A   2       3.437  -5.292  27.429  0.00  0.00    -0.274 OA
BRANCH   8  10
ATOM     10  CA  LEU A   2       4.021  -5.812  25.121  0.00  0.00    +0.159 C 
BRANCH  10  11
ATOM     11  N   LEU A   2       5.292  -5.681  24.422  0.00  0.00    -0.303 N 
ATOM     12  H   LEU A   2       6.139  -5.694  24.990  0.00  0.00    +0.149 HD
ATOM     13  C   TYR A   1       5.392  -5.142  23.162  0.00  0.00    +0.231 C 
ATOM     14  O   TYR A   1       4.423  -4.747  22.516  0.00  0.00    -0.274 OA
BRANCH  13  15
ATOM     15  CA  TYR A   1       6.830  -5.041  22.616  0.00  0.00    +0.142 C 
BRANCH  15  16
ATOM     16  N   TYR A   1       6.955  -5.933  21.440  0.00  0.00    -0.320 NA
ATOM     17  H1  TYR A   1       7.104  -5.359  20.610  0.00  0.00    +0.119 HD
ATOM     18  H2  TYR A   1       7.813  -6.479  21.549  0.00  0.00    +0.119 HD
ENDBRANCH  15  16
BRANCH  15  19
ATOM     19  CB  TYR A   1       7.199  -3.590  22.249  0.00  0.00    +0.063 C 
BRANCH  19  20
ATOM     20  CG  TYR A   1       7.306  -2.614  23.404  0.00  0.00    -0.045 A 
ATOM     21  CD2 TYR A   1       8.130  -2.932  24.496  0.00  0.00    +0.007 A 
ATOM     22  CE2 TYR A   1       8.255  -2.056  25.577  0.00  0.00    +0.045 A 
ATOM     23  CZ  TYR A   1       7.551  -0.860  25.577  0.00  0.00    +0.117 A 
ATOM     24  CE1 TYR A   1       6.710  -0.534  24.521  0.00  0.00    +0.045 A 
ATOM     25  CD1 TYR A   1       6.581  -1.414  23.445  0.00  0.00    +0.007 A 
BRANCH  23  26
ATOM     26  OH  TYR A   1       7.710  -0.023  26.640  0.00  0.00    -0.507 OA
ATOM     27  HH  TYR A   1       8.384  -0.403  27.229  0.00  0.00    +0.292 HD
ENDBRANCH  23  26
ENDBRANCH  19  20
ENDBRANCH  15  19
ENDBRANCH  13  15
ENDBRANCH  10  11
BRANCH  10  28
ATOM     28  CB  LEU A   2       3.614  -7.286  25.329  0.00  0.00    +0.034 C 
BRANCH  28  29
ATOM     29  CG  LEU A   2       2.619  -7.890  24.314  0.00  0.00    -0.015 C 
ATOM     30  CD2 LEU A   2       1.724  -6.777  23.757  0.00  0.00    +0.007 C 
ATOM     31  CD1 LEU A   2       1.735  -8.992  24.895  0.00  0.00    +0.007 C 
ENDBRANCH  28  29
ENDBRANCH  10  28
ENDBRANCH   8  10
ENDBRANCH   5   6
ENDBRANCH   3   5
BRANCH   1  32
ATOM     32  C   UNK A   4       4.379   0.790  27.586  0.00  0.00    +0.184 C 
BRANCH  32  35
ATOM     33  N   UNK A   4       5.599   2.971  27.640  0.00  0.00    -0.305 N 
ATOM     34  H   UNK A   4       6.028   3.686  28.219  0.00  0.00    +0.149 HD
ATOM     35  C   UNK A   4       5.170   1.870  28.339  0.00  0.00    +0.236 C 
ATOM     36  O   UNK A   4       5.425   1.775  29.543  0.00  0.00    -0.274 OA
BRANCH  33  37
ATOM     37  C   UNK A   4       5.496   3.211  26.200  0.00  0.00    +0.200 C 
BRANCH  37  40
ATOM     38  N   UNK A   4       6.781   3.770  24.198  0.00  0.00    -0.301 N 
ATOM     39  H   UNK A   4       5.936   4.229  23.867  0.00  0.00    +0.150 HD
ATOM     40  C   UNK A   4       6.822   3.221  25.448  0.00  0.00    +0.231 C 
ATOM     41  O   UNK A   4       7.846   2.752  25.938  0.00  0.00    -0.274 OA
BRANCH  38  42
ATOM     42  C   UNK A   4       7.966   3.848  23.347  0.00  0.00    +0.186 C 
BRANCH  42  43
ATOM     43  C   UNK A   4       8.204   5.318  23.001  0.00  0.00    +0.328 C 
ATOM     44  O   UNK A   4       8.989   6.048  23.596  0.00  0.00    -0.249 OA
BRANCH  43  46
ATOM     45  C   UNK A   4       6.713   6.872  22.097  0.00  0.00    +0.280 C 
ATOM     46  O   UNK A   4       7.473   5.679  21.910  0.00  0.00    -0.467 OA
ENDBRANCH  43  46
ENDBRANCH  42  43
BRANCH  42  47
ATOM     47  C   UNK A   4       7.868   2.938  22.110  0.00  0.00    +0.069 C 
BRANCH  47  48
ATOM     48  C   UNK A   4       8.746   1.707  22.185  0.00  0.00    -0.045 A 
ATOM     49  C   UNK A   4       9.574   1.493  23.297  0.00  0.00    +0.007 A 
ATOM     50  C   UNK A   4      10.299   0.308  23.419  0.00  0.00    +0.045 A 
ATOM     51  C   UNK A   4      10.198  -0.662  22.429  0.00  0.00    +0.117 A 
ATOM     52  C   UNK A   4       9.426  -0.447  21.294  0.00  0.00    +0.045 A 
ATOM     53  C   UNK A   4       8.703   0.742  21.171  0.00  0.00    +0.007 A 
BRANCH  51  54
ATOM     54  O   UNK A   4      10.872  -1.832  22.616  0.00  0.00    -0.507 OA
ATOM     55  H   UNK A   4      10.222  -2.547  22.715  0.00  0.00    +0.292 HD
ENDBRANCH  51  54
ENDBRANCH  47  48
ENDBRANCH  42  47
ENDBRANCH  38  42
ENDBRANCH  37  40
ENDBRANCH  33  37
ENDBRANCH  32  35
BRANCH  32  56
ATOM     56  C   UNK A   4       2.867   0.934  27.845  0.00  0.00    +0.187 C 
BRANCH  56  57
ATOM     57  O   UNK A   4       2.115   0.980  26.630  0.00  0.00    -0.393 OA
ATOM     58  H   UNK A   4       1.263   1.402  26.842  0.00  0.00    +0.209 HD
ENDBRANCH  56  57
ENDBRANCH  32  56
ENDBRANCH   1  32
TORSDOF 23
ENDMDL
MODEL 7
REMARK VINA RESULT:      -6.4      2.289      8.442
REMARK  Name = 
REMARK  26 active torsions:
REMARK  status: ('A' for Active; 'I' for Inactive)
REMARK    1  A    between atoms: C_1  and  O_2
REMARK    2  A    between atoms: O_2  and  C_3
REMARK    3  A    between atoms: C_3  and  C_5
REMARK    4  A    between atoms: C_5  and  C_7
REMARK    5  A    between atoms: C_5  and  N_15
REMARK    6  A    between atoms: C_7  and  C_8
REMARK    7  A    between atoms: C_11  and  O_12
REMARK    8  A    between atoms: C_16  and  C_18
REMARK    9  A    between atoms: C_18  and  N_19
REMARK   10  A    between atoms: C_20  and  C_22
REMARK   11  A    between atoms: C_22  and  C_24
REMARK   12  A    between atoms: C_22  and  N_26
REMARK   13  A    between atoms: C_24  and  O_25
REMARK   14  A    between atoms: C_27  and  CA_29
REMARK   15  A    between atoms: CA_29  and  N_30
REMARK   16  A    between atoms: C_31  and  CA_33
REMARK   17  A    between atoms: CA_33  and  CB_35
REMARK   18  A    between atoms: CA_33  and  N_39
REMARK   19  A    between atoms: CB_35  and  CG_36
REMARK   20  A    between atoms: CG_36  and  CD1_37
REMARK   21  A    between atoms: CG_36  and  CD2_38
REMARK   22  A    between atoms: C_40  and  CA_42
REMARK   23  A    between atoms: CA_42  and  N_44
REMARK   24  A    between atoms: CA_42  and  CB_45
REMARK   25  A    between atoms: CB_45  and  CG_46
REMARK   26  A    between atoms: CZ_49  and  OH_50
REMARK                            x       y       z     vdW  Elec       q    Type
REMARK                         _______ _______ _______ _____ _____    ______ ____
ROOT
ATOM      1  N   UNK A   4       5.213   2.023  27.809  0.00  0.00    -0.301 N 
ATOM      2  H   UNK A   4       4.710   2.853  27.494  0.00  0.00    +0.150 HD
ATOM      3  C   GLY A   3       6.476   1.751  27.333  0.00  0.00    +0.231 C 
ATOM      4  O   GLY A   3       6.988   0.636  27.417  0.00  0.00    -0.274 OA
ENDROOT
BRANCH   3   5
ATOM      5  CA  GLY A   3       7.179   2.902  26.634  0.00  0.00    +0.200 C 
BRANCH   5   6
ATOM      6  N   GLY A   3       8.313   2.413  25.877  0.00  0.00    -0.305 N 
ATOM      7  H   GLY A   3       8.926   1.743  26.326  0.00  0.00    +0.149 HD
ATOM      8  C   LEU A   2       8.536   2.801  24.577  0.00  0.00    +0.234 C 
ATOM      9  O   LEU A   2       7.734   3.498  23.955  0.00  0.00    -0.274 OA
BRANCH   8  10
ATOM     10  CA  LEU A   2       9.850   2.290  23.945  0.00  0.00    +0.159 C 
BRANCH  10  11
ATOM     11  N   LEU A   2       9.578   1.045  23.241  0.00  0.00    -0.303 N 
ATOM     12  H   LEU A   2       9.079   1.110  22.355  0.00  0.00    +0.149 HD
ATOM     13  C   TYR A   1       9.575  -0.177  23.872  0.00  0.00    +0.231 C 
ATOM     14  O   TYR A   1       9.821  -0.322  25.068  0.00  0.00    -0.274 OA
BRANCH  13  15
ATOM     15  CA  TYR A   1       9.212  -1.369  22.965  0.00  0.00    +0.142 C 
BRANCH  15  16
ATOM     16  N   TYR A   1      10.363  -1.660  22.078  0.00  0.00    -0.320 NA
ATOM     17  H1  TYR A   1      10.332  -1.021  21.283  0.00  0.00    +0.119 HD
ATOM     18  H2  TYR A   1      11.219  -1.422  22.585  0.00  0.00    +0.119 HD
ENDBRANCH  15  16
BRANCH  15  19
ATOM     19  CB  TYR A   1       8.823  -2.613  23.788  0.00  0.00    +0.063 C 
BRANCH  19  20
ATOM     20  CG  TYR A   1       7.911  -3.610  23.101  0.00  0.00    -0.045 A 
ATOM     21  CD2 TYR A   1       6.931  -3.144  22.210  0.00  0.00    +0.007 A 
ATOM     22  CE2 TYR A   1       6.074  -4.033  21.558  0.00  0.00    +0.045 A 
ATOM     23  CZ  TYR A   1       6.187  -5.396  21.797  0.00  0.00    +0.117 A 
ATOM     24  CE1 TYR A   1       7.131  -5.881  22.693  0.00  0.00    +0.045 A 
ATOM     25  CD1 TYR A   1       7.981  -4.989  23.349  0.00  0.00    +0.007 A 
BRANCH  23  26
ATOM     26  OH  TYR A   1       5.346  -6.235  21.130  0.00  0.00    -0.507 OA
ATOM     27  HH  TYR A   1       5.856  -7.011  20.843  0.00  0.00    +0.292 HD
ENDBRANCH  23  26
ENDBRANCH  19  20
ENDBRANCH  15  19
ENDBRANCH  13  15
ENDBRANCH  10  11
BRANCH  10  28
ATOM     28  CB  LEU A   2      10.559   3.328  23.050  0.00  0.00    +0.034 C 
BRANCH  28  29
ATOM     29  CG  LEU A   2      11.262   4.506  23.761  0.00  0.00    -0.015 C 
ATOM     30  CD2 LEU A   2      10.343   5.733  23.737  0.00  0.00    +0.007 C 
ATOM     31  CD1 LEU A   2      12.609   4.884  23.147  0.00  0.00    +0.007 C 
ENDBRANCH  28  29
ENDBRANCH  10  28
ENDBRANCH   8  10
ENDBRANCH   5   6
ENDBRANCH   3   5
BRANCH   1  32
ATOM     32  C   UNK A   4       4.454   0.967  28.479  0.00  0.00    +0.184 C 
BRANCH  32  35
ATOM     33  N   UNK A   4       3.360  -1.102  27.601  0.00  0.00    -0.305 N 
ATOM     34  H   UNK A   4       2.625  -1.486  27.017  0.00  0.00    +0.149 HD
ATOM     35  C   UNK A   4       3.471   0.265  27.531  0.00  0.00    +0.236 C 
ATOM     36  O   UNK A   4       2.783   0.891  26.719  0.00  0.00    -0.274 OA
BRANCH  33  37
ATOM     37  C   UNK A   4       4.162  -2.023  28.408  0.00  0.00    +0.200 C 
BRANCH  37  40
ATOM     38  N   UNK A   4       5.097  -4.247  28.018  0.00  0.00    -0.301 N 
ATOM     39  H   UNK A   4       5.996  -3.835  28.255  0.00  0.00    +0.150 HD
ATOM     40  C   UNK A   4       3.955  -3.502  28.103  0.00  0.00    +0.231 C 
ATOM     41  O   UNK A   4       2.835  -3.975  27.934  0.00  0.00    -0.274 OA
BRANCH  38  42
ATOM     42  C   UNK A   4       5.068  -5.677  27.724  0.00  0.00    +0.186 C 
BRANCH  42  43
ATOM     43  C   UNK A   4       5.790  -6.407  28.857  0.00  0.00    +0.328 C 
ATOM     44  O   UNK A   4       7.001  -6.595  28.895  0.00  0.00    -0.249 OA
BRANCH  43  46
ATOM     45  C   UNK A   4       3.621  -7.122  29.351  0.00  0.00    +0.280 C 
ATOM     46  O   UNK A   4       4.913  -6.759  29.838  0.00  0.00    -0.467 OA
ENDBRANCH  43  46
ENDBRANCH  42  43
BRANCH  42  47
ATOM     47  C   UNK A   4       5.629  -6.007  26.330  0.00  0.00    +0.069 C 
BRANCH  47  48
ATOM     48  C   UNK A   4       4.597  -5.939  25.224  0.00  0.00    -0.045 A 
ATOM     49  C   UNK A   4       3.997  -7.112  24.741  0.00  0.00    +0.007 A 
ATOM     50  C   UNK A   4       2.968  -7.041  23.802  0.00  0.00    +0.045 A 
ATOM     51  C   UNK A   4       2.541  -5.801  23.345  0.00  0.00    +0.117 A 
ATOM     52  C   UNK A   4       3.158  -4.631  23.771  0.00  0.00    +0.045 A 
ATOM     53  C   UNK A   4       4.190  -4.702  24.708  0.00  0.00    +0.007 A 
BRANCH  51  54
ATOM     54  O   UNK A   4       1.490  -5.773  22.476  0.00  0.00    -0.507 OA
ATOM     55  H   UNK A   4       1.801  -5.405  21.632  0.00  0.00    +0.292 HD
ENDBRANCH  51  54
ENDBRANCH  47  48
ENDBRANCH  42  47
ENDBRANCH  38  42
ENDBRANCH  37  40
ENDBRANCH  33  37
ENDBRANCH  32  35
BRANCH  32  56
ATOM     56  C   UNK A   4       3.723   1.524  29.716  0.00  0.00    +0.187 C 
BRANCH  56  57
ATOM     57  O   UNK A   4       2.524   0.799  30.003  0.00  0.00    -0.393 OA
ATOM     58  H   UNK A   4       1.985   0.815  29.192  0.00  0.00    +0.209 HD
ENDBRANCH  56  57
ENDBRANCH  32  56
ENDBRANCH   1  32
TORSDOF 23
ENDMDL
MODEL 8
REMARK VINA RESULT:      -6.4      1.775      8.972
REMARK  Name = 
REMARK  26 active torsions:
REMARK  status: ('A' for Active; 'I' for Inactive)
REMARK    1  A    between atoms: C_1  and  O_2
REMARK    2  A    between atoms: O_2  and  C_3
REMARK    3  A    between atoms: C_3  and  C_5
REMARK    4  A    between atoms: C_5  and  C_7
REMARK    5  A    between atoms: C_5  and  N_15
REMARK    6  A    between atoms: C_7  and  C_8
REMARK    7  A    between atoms: C_11  and  O_12
REMARK    8  A    between atoms: C_16  and  C_18
REMARK    9  A    between atoms: C_18  and  N_19
REMARK   10  A    between atoms: C_20  and  C_22
REMARK   11  A    between atoms: C_22  and  C_24
REMARK   12  A    between atoms: C_22  and  N_26
REMARK   13  A    between atoms: C_24  and  O_25
REMARK   14  A    between atoms: C_27  and  CA_29
REMARK   15  A    between atoms: CA_29  and  N_30
REMARK   16  A    between atoms: C_31  and  CA_33
REMARK   17  A    between atoms: CA_33  and  CB_35
REMARK   18  A    between atoms: CA_33  and  N_39
REMARK   19  A    between atoms: CB_35  and  CG_36
REMARK   20  A    between atoms: CG_36  and  CD1_37
REMARK   21  A    between atoms: CG_36  and  CD2_38
REMARK   22  A    between atoms: C_40  and  CA_42
REMARK   23  A    between atoms: CA_42  and  N_44
REMARK   24  A    between atoms: CA_42  and  CB_45
REMARK   25  A    between atoms: CB_45  and  CG_46
REMARK   26  A    between atoms: CZ_49  and  OH_50
REMARK                            x       y       z     vdW  Elec       q    Type
REMARK                         _______ _______ _______ _____ _____    ______ ____
ROOT
ATOM      1  N   UNK A   4       8.400  -2.862  26.716  0.00  0.00    -0.301 N 
ATOM      2  H   UNK A   4       8.884  -2.974  27.608  0.00  0.00    +0.150 HD
ATOM      3  C   GLY A   3       8.009  -1.612  26.288  0.00  0.00    +0.231 C 
ATOM      4  O   GLY A   3       7.162  -1.449  25.412  0.00  0.00    -0.274 OA
ENDROOT
BRANCH   3   5
ATOM      5  CA  GLY A   3       8.644  -0.438  27.015  0.00  0.00    +0.200 C 
BRANCH   5   6
ATOM      6  N   GLY A   3       8.039   0.805  26.583  0.00  0.00    -0.305 N 
ATOM      7  H   GLY A   3       8.152   1.072  25.613  0.00  0.00    +0.149 HD
ATOM      8  C   LEU A   2       7.297   1.583  27.439  0.00  0.00    +0.234 C 
ATOM      9  O   LEU A   2       7.020   1.219  28.582  0.00  0.00    -0.274 OA
BRANCH   8  10
ATOM     10  CA  LEU A   2       6.822   2.937  26.866  0.00  0.00    +0.159 C 
BRANCH  10  11
ATOM     11  N   LEU A   2       7.412   3.121  25.548  0.00  0.00    -0.303 N 
ATOM     12  H   LEU A   2       7.487   2.298  24.952  0.00  0.00    +0.149 HD
ATOM     13  C   TYR A   1       8.219   4.191  25.240  0.00  0.00    +0.231 C 
ATOM     14  O   TYR A   1       8.491   5.085  26.039  0.00  0.00    -0.274 OA
BRANCH  13  15
ATOM     15  CA  TYR A   1       8.789   4.177  23.809  0.00  0.00    +0.142 C 
BRANCH  15  16
ATOM     16  N   TYR A   1       8.832   5.568  23.301  0.00  0.00    -0.320 NA
ATOM     17  H1  TYR A   1       8.402   6.182  23.993  0.00  0.00    +0.119 HD
ATOM     18  H2  TYR A   1       9.812   5.856  23.255  0.00  0.00    +0.119 HD
ENDBRANCH  15  16
BRANCH  15  19
ATOM     19  CB  TYR A   1      10.187   3.530  23.759  0.00  0.00    +0.063 C 
BRANCH  19  20
ATOM     20  CG  TYR A   1      10.234   2.071  23.347  0.00  0.00    -0.045 A 
ATOM     21  CD2 TYR A   1       9.761   1.700  22.078  0.00  0.00    +0.007 A 
ATOM     22  CE2 TYR A   1       9.790   0.366  21.665  0.00  0.00    +0.045 A 
ATOM     23  CZ  TYR A   1      10.286  -0.607  22.520  0.00  0.00    +0.117 A 
ATOM     24  CE1 TYR A   1      10.736  -0.271  23.790  0.00  0.00    +0.045 A 
ATOM     25  CD1 TYR A   1      10.699   1.062  24.203  0.00  0.00    +0.007 A 
BRANCH  23  26
ATOM     26  OH  TYR A   1      10.315  -1.896  22.077  0.00  0.00    -0.507 OA
ATOM     27  HH  TYR A   1      11.167  -2.286  22.333  0.00  0.00    +0.292 HD
ENDBRANCH  23  26
ENDBRANCH  19  20
ENDBRANCH  15  19
ENDBRANCH  13  15
ENDBRANCH  10  11
BRANCH  10  28
ATOM     28  CB  LEU A   2       5.288   3.108  26.852  0.00  0.00    +0.034 C 
BRANCH  28  29
ATOM     29  CG  LEU A   2       4.476   2.099  26.009  0.00  0.00    -0.015 C 
ATOM     30  CD2 LEU A   2       3.577   2.864  25.031  0.00  0.00    +0.007 C 
ATOM     31  CD1 LEU A   2       3.611   1.153  26.841  0.00  0.00    +0.007 C 
ENDBRANCH  28  29
ENDBRANCH  10  28
ENDBRANCH   8  10
ENDBRANCH   5   6
ENDBRANCH   3   5
BRANCH   1  32
ATOM     32  C   UNK A   4       7.825  -4.050  26.086  0.00  0.00    +0.184 C 
BRANCH  32  35
ATOM     33  N   UNK A   4       5.908  -4.816  27.495  0.00  0.00    -0.305 N 
ATOM     34  H   UNK A   4       5.540  -5.545  28.098  0.00  0.00    +0.149 HD
ATOM     35  C   UNK A   4       7.212  -5.014  27.113  0.00  0.00    +0.236 C 
ATOM     36  O   UNK A   4       7.853  -5.953  27.594  0.00  0.00    -0.274 OA
BRANCH  33  37
ATOM     37  C   UNK A   4       5.028  -3.706  27.128  0.00  0.00    +0.200 C 
BRANCH  37  40
ATOM     38  N   UNK A   4       3.912  -5.336  25.689  0.00  0.00    -0.301 N 
ATOM     39  H   UNK A   4       4.616  -5.996  26.009  0.00  0.00    +0.150 HD
ATOM     40  C   UNK A   4       3.873  -4.071  26.203  0.00  0.00    +0.231 C 
ATOM     41  O   UNK A   4       2.982  -3.269  25.935  0.00  0.00    -0.274 OA
BRANCH  38  42
ATOM     42  C   UNK A   4       2.883  -5.835  24.781  0.00  0.00    +0.186 C 
BRANCH  42  43
ATOM     43  C   UNK A   4       2.107  -6.936  25.505  0.00  0.00    +0.328 C 
ATOM     44  O   UNK A   4       1.910  -6.960  26.715  0.00  0.00    -0.249 OA
BRANCH  43  46
ATOM     45  C   UNK A   4       1.615  -9.184  25.104  0.00  0.00    +0.280 C 
ATOM     46  O   UNK A   4       1.618  -7.844  24.615  0.00  0.00    -0.467 OA
ENDBRANCH  43  46
ENDBRANCH  42  43
BRANCH  42  47
ATOM     47  C   UNK A   4       3.456  -6.283  23.426  0.00  0.00    +0.069 C 
BRANCH  47  48
ATOM     48  C   UNK A   4       4.609  -5.432  22.938  0.00  0.00    -0.045 A 
ATOM     49  C   UNK A   4       4.478  -4.037  22.861  0.00  0.00    +0.007 A 
ATOM     50  C   UNK A   4       5.573  -3.244  22.519  0.00  0.00    +0.045 A 
ATOM     51  C   UNK A   4       6.797  -3.843  22.251  0.00  0.00    +0.117 A 
ATOM     52  C   UNK A   4       6.934  -5.226  22.270  0.00  0.00    +0.045 A 
ATOM     53  C   UNK A   4       5.837  -6.020  22.609  0.00  0.00    +0.007 A 
BRANCH  51  54
ATOM     54  O   UNK A   4       7.857  -3.030  21.983  0.00  0.00    -0.507 OA
ATOM     55  H   UNK A   4       8.128  -3.173  21.061  0.00  0.00    +0.292 HD
ENDBRANCH  51  54
ENDBRANCH  47  48
ENDBRANCH  42  47
ENDBRANCH  38  42
ENDBRANCH  37  40
ENDBRANCH  33  37
ENDBRANCH  32  35
BRANCH  32  56
ATOM     56  C   UNK A   4       8.877  -4.767  25.218  0.00  0.00    +0.187 C 
BRANCH  56  57
ATOM     57  O   UNK A   4       9.564  -3.862  24.348  0.00  0.00    -0.393 OA
ATOM     58  H   UNK A   4      10.192  -4.395  23.829  0.00  0.00    +0.209 HD
ENDBRANCH  56  57
ENDBRANCH  32  56
ENDBRANCH   1  32
TORSDOF 23
ENDMDL
MODEL 9
REMARK VINA RESULT:      -6.4      1.883      3.891
REMARK  Name = 
REMARK  26 active torsions:
REMARK  status: ('A' for Active; 'I' for Inactive)
REMARK    1  A    between atoms: C_1  and  O_2
REMARK    2  A    between atoms: O_2  and  C_3
REMARK    3  A    between atoms: C_3  and  C_5
REMARK    4  A    between atoms: C_5  and  C_7
REMARK    5  A    between atoms: C_5  and  N_15
REMARK    6  A    between atoms: C_7  and  C_8
REMARK    7  A    between atoms: C_11  and  O_12
REMARK    8  A    between atoms: C_16  and  C_18
REMARK    9  A    between atoms: C_18  and  N_19
REMARK   10  A    between atoms: C_20  and  C_22
REMARK   11  A    between atoms: C_22  and  C_24
REMARK   12  A    between atoms: C_22  and  N_26
REMARK   13  A    between atoms: C_24  and  O_25
REMARK   14  A    between atoms: C_27  and  CA_29
REMARK   15  A    between atoms: CA_29  and  N_30
REMARK   16  A    between atoms: C_31  and  CA_33
REMARK   17  A    between atoms: CA_33  and  CB_35
REMARK   18  A    between atoms: CA_33  and  N_39
REMARK   19  A    between atoms: CB_35  and  CG_36
REMARK   20  A    between atoms: CG_36  and  CD1_37
REMARK   21  A    between atoms: CG_36  and  CD2_38
REMARK   22  A    between atoms: C_40  and  CA_42
REMARK   23  A    between atoms: CA_42  and  N_44
REMARK   24  A    between atoms: CA_42  and  CB_45
REMARK   25  A    between atoms: CB_45  and  CG_46
REMARK   26  A    between atoms: CZ_49  and  OH_50
REMARK                            x       y       z     vdW  Elec       q    Type
REMARK                         _______ _______ _______ _____ _____    ______ ____
ROOT
ATOM      1  N   UNK A   4       7.027  -1.751  25.510  0.00  0.00    -0.301 N 
ATOM      2  H   UNK A   4       6.264  -2.408  25.340  0.00  0.00    +0.150 HD
ATOM      3  C   GLY A   3       8.102  -2.117  26.289  0.00  0.00    +0.231 C 
ATOM      4  O   GLY A   3       8.868  -1.294  26.787  0.00  0.00    -0.274 OA
ENDROOT
BRANCH   3   5
ATOM      5  CA  GLY A   3       8.246  -3.607  26.554  0.00  0.00    +0.200 C 
BRANCH   5   6
ATOM      6  N   GLY A   3       7.611  -4.368  25.498  0.00  0.00    -0.305 N 
ATOM      7  H   GLY A   3       7.866  -4.152  24.543  0.00  0.00    +0.149 HD
ATOM      8  C   LEU A   2       6.724  -5.381  25.772  0.00  0.00    +0.234 C 
ATOM      9  O   LEU A   2       6.501  -5.764  26.921  0.00  0.00    -0.274 OA
BRANCH   8  10
ATOM     10  CA  LEU A   2       6.038  -6.016  24.542  0.00  0.00    +0.159 C 
BRANCH  10  11
ATOM     11  N   LEU A   2       4.620  -5.687  24.574  0.00  0.00    -0.303 N 
ATOM     12  H   LEU A   2       4.369  -4.728  24.811  0.00  0.00    +0.149 HD
ATOM     13  C   TYR A   1       3.641  -6.642  24.719  0.00  0.00    +0.231 C 
ATOM     14  O   TYR A   1       3.878  -7.845  24.810  0.00  0.00    -0.274 OA
BRANCH  13  15
ATOM     15  CA  TYR A   1       2.205  -6.088  24.785  0.00  0.00    +0.142 C 
BRANCH  15  16
ATOM     16  N   TYR A   1       1.377  -6.790  23.777  0.00  0.00    -0.320 NA
ATOM     17  H1  TYR A   1       0.397  -6.556  23.939  0.00  0.00    +0.119 HD
ATOM     18  H2  TYR A   1       1.600  -6.400  22.859  0.00  0.00    +0.119 HD
ENDBRANCH  15  16
BRANCH  15  19
ATOM     19  CB  TYR A   1       1.600  -6.238  26.195  0.00  0.00    +0.063 C 
BRANCH  19  20
ATOM     20  CG  TYR A   1       2.485  -5.812  27.350  0.00  0.00    -0.045 A 
ATOM     21  CD2 TYR A   1       2.821  -4.456  27.494  0.00  0.00    +0.007 A 
ATOM     22  CE2 TYR A   1       3.632  -4.027  28.547  0.00  0.00    +0.045 A 
ATOM     23  CZ  TYR A   1       4.118  -4.952  29.460  0.00  0.00    +0.117 A 
ATOM     24  CE1 TYR A   1       3.821  -6.302  29.327  0.00  0.00    +0.045 A 
ATOM     25  CD1 TYR A   1       3.016  -6.729  28.269  0.00  0.00    +0.007 A 
BRANCH  23  26
ATOM     26  OH  TYR A   1       4.892  -4.495  30.485  0.00  0.00    -0.507 OA
ATOM     27  HH  TYR A   1       4.408  -4.633  31.316  0.00  0.00    +0.292 HD
ENDBRANCH  23  26
ENDBRANCH  19  20
ENDBRANCH  15  19
ENDBRANCH  13  15
ENDBRANCH  10  11
BRANCH  10  28
ATOM     28  CB  LEU A   2       6.696  -5.646  23.196  0.00  0.00    +0.034 C 
BRANCH  28  29
ATOM     29  CG  LEU A   2       5.780  -5.041  22.108  0.00  0.00    -0.015 C 
ATOM     30  CD2 LEU A   2       6.105  -5.687  20.756  0.00  0.00    +0.007 C 
ATOM     31  CD1 LEU A   2       5.897  -3.524  21.974  0.00  0.00    +0.007 C 
ENDBRANCH  28  29
ENDBRANCH  10  28
ENDBRANCH   8  10
ENDBRANCH   5   6
ENDBRANCH   3   5
BRANCH   1  32
ATOM     32  C   UNK A   4       6.798  -0.335  25.220  0.00  0.00    +0.184 C 
BRANCH  32  35
ATOM     33  N   UNK A   4       5.697   1.233  26.824  0.00  0.00    -0.305 N 
ATOM     34  H   UNK A   4       4.820   1.606  27.175  0.00  0.00    +0.149 HD
ATOM     35  C   UNK A   4       5.545   0.208  25.923  0.00  0.00    +0.236 C 
ATOM     36  O   UNK A   4       4.420  -0.245  25.698  0.00  0.00    -0.274 OA
BRANCH  33  37
ATOM     37  C   UNK A   4       6.947   1.823  27.305  0.00  0.00    +0.200 C 
BRANCH  37  40
ATOM     38  N   UNK A   4       7.693   2.898  25.241  0.00  0.00    -0.301 N 
ATOM     39  H   UNK A   4       7.503   2.006  24.790  0.00  0.00    +0.150 HD
ATOM     40  C   UNK A   4       7.402   3.074  26.564  0.00  0.00    +0.231 C 
ATOM     41  O   UNK A   4       7.509   4.158  27.132  0.00  0.00    -0.274 OA
BRANCH  38  42
ATOM     42  C   UNK A   4       8.149   3.997  24.395  0.00  0.00    +0.186 C 
BRANCH  42  43
ATOM     43  C   UNK A   4       7.034   4.322  23.401  0.00  0.00    +0.328 C 
ATOM     44  O   UNK A   4       7.209   4.897  22.332  0.00  0.00    -0.249 OA
BRANCH  43  46
ATOM     45  C   UNK A   4       4.714   4.342  23.129  0.00  0.00    +0.280 C 
ATOM     46  O   UNK A   4       5.841   3.832  23.839  0.00  0.00    -0.467 OA
ENDBRANCH  43  46
ENDBRANCH  42  43
BRANCH  42  47
ATOM     47  C   UNK A   4       9.501   3.704  23.722  0.00  0.00    +0.069 C 
BRANCH  47  48
ATOM     48  C   UNK A   4       9.665   2.265  23.280  0.00  0.00    -0.045 A 
ATOM     49  C   UNK A   4       9.280   1.871  21.990  0.00  0.00    +0.007 A 
ATOM     50  C   UNK A   4       9.532   0.574  21.545  0.00  0.00    +0.045 A 
ATOM     51  C   UNK A   4      10.166  -0.330  22.388  0.00  0.00    +0.117 A 
ATOM     52  C   UNK A   4      10.508   0.025  23.688  0.00  0.00    +0.045 A 
ATOM     53  C   UNK A   4      10.252   1.323  24.135  0.00  0.00    +0.007 A 
BRANCH  51  54
ATOM     54  O   UNK A   4      10.452  -1.567  21.893  0.00  0.00    -0.507 OA
ATOM     55  H   UNK A   4      11.333  -1.828  22.210  0.00  0.00    +0.292 HD
ENDBRANCH  51  54
ENDBRANCH  47  48
ENDBRANCH  42  47
ENDBRANCH  38  42
ENDBRANCH  37  40
ENDBRANCH  33  37
ENDBRANCH  32  35
BRANCH  32  56
ATOM     56  C   UNK A   4       6.723  -0.097  23.700  0.00  0.00    +0.187 C 
BRANCH  56  57
ATOM     57  O   UNK A   4       5.914   1.037  23.372  0.00  0.00    -0.393 OA
ATOM     58  H   UNK A   4       5.174   0.707  22.832  0.00  0.00    +0.209 HD
ENDBRANCH  56  57
ENDBRANCH  32  56
ENDBRANCH   1  32
TORSDOF 23
ENDMDL
