MODEL 1
REMARK VINA RESULT:      -6.2      0.000      0.000
REMARK  Name = 
REMARK  2 active torsions:
REMARK  status: ('A' for Active; 'I' for Inactive)
REMARK    1  A    between atoms: C_4  and  C_10
REMARK    2  A    between atoms: C_7  and  O_8
REMARK                            x       y       z     vdW  Elec       q    Type
REMARK                         _______ _______ _______ _____ _____    ______ ____
ROOT
ATOM      1  N   UNL     1      13.706   5.323  23.199  0.00  0.00    -0.327 N 
ATOM      2  H   UNL     1      13.957   6.166  23.699  0.00  0.00    +0.145 HD
ATOM      3  H   UNL     1      14.257   4.494  23.381  0.00  0.00    +0.145 HD
ATOM      4  C   UNL     1      12.367   5.054  23.383  0.00  0.00    +0.216 A 
ATOM      5  N   UNL     1      11.587   6.062  23.749  0.00  0.00    -0.179 NA
ATOM      6  C   UNL     1      10.307   5.754  23.990  0.00  0.00    +0.232 A 
ATOM      7  C   UNL     1       9.769   4.482  23.894  0.00  0.00    +0.105 A 
ATOM      8 BR   UNL     1       7.976   4.204  24.443  0.00  0.00    -0.043 Br
ATOM      9  C   UNL     1      10.649   3.497  23.467  0.00  0.00    +0.094 A 
ATOM     10  N   UNL     1      11.958   3.792  23.237  0.00  0.00    -0.213 NA
ENDROOT
BRANCH   9  11
ATOM     11  C   UNL     1      10.326   2.068  23.215  0.00  0.00    +0.002 A 
ATOM     12  C   UNL     1       9.919   1.578  21.961  0.00  0.00    +0.010 A 
ATOM     13  C   UNL     1       9.632   0.224  21.754  0.00  0.00    +0.001 A 
ATOM     14  C   UNL     1       9.790  -0.691  22.790  0.00  0.00    +0.000 A 
ATOM     15  C   UNL     1      10.234  -0.249  24.031  0.00  0.00    +0.001 A 
ATOM     16  C   UNL     1      10.491   1.111  24.239  0.00  0.00    +0.010 A 
ENDBRANCH   9  11
BRANCH   6  17
ATOM     17  O   UNL     1       9.548   6.833  24.355  0.00  0.00    -0.492 OA
ATOM     18  H   UNL     1       9.050   7.118  23.573  0.00  0.00    +0.294 HD
ENDBRANCH   6  17
TORSDOF 2
ENDMDL
MODEL 2
REMARK VINA RESULT:      -6.2      6.124      7.899
REMARK  Name = 
REMARK  2 active torsions:
REMARK  status: ('A' for Active; 'I' for Inactive)
REMARK    1  A    between atoms: C_4  and  C_10
REMARK    2  A    between atoms: C_7  and  O_8
REMARK                            x       y       z     vdW  Elec       q    Type
REMARK                         _______ _______ _______ _____ _____    ______ ____
ROOT
ATOM      1  N   UNL     1      10.370  -5.568  25.688  0.00  0.00    -0.327 N 
ATOM      2  H   UNL     1      10.098  -6.539  25.769  0.00  0.00    +0.145 HD
ATOM      3  H   UNL     1      11.246  -5.368  25.221  0.00  0.00    +0.145 HD
ATOM      4  C   UNL     1       9.348  -4.847  25.111  0.00  0.00    +0.216 A 
ATOM      5  N   UNL     1       8.128  -5.362  25.170  0.00  0.00    -0.179 NA
ATOM      6  C   UNL     1       7.171  -4.673  24.538  0.00  0.00    +0.232 A 
ATOM      7  C   UNL     1       7.375  -3.496  23.837  0.00  0.00    +0.105 A 
ATOM      8 BR   UNL     1       5.933  -2.753  22.858  0.00  0.00    -0.043 Br
ATOM      9  C   UNL     1       8.675  -3.010  23.862  0.00  0.00    +0.094 A 
ATOM     10  N   UNL     1       9.663  -3.710  24.484  0.00  0.00    -0.213 NA
ENDROOT
BRANCH   9  11
ATOM     11  C   UNL     1       9.160  -1.743  23.254  0.00  0.00    +0.002 A 
ATOM     12  C   UNL     1       9.033  -1.445  21.885  0.00  0.00    +0.010 A 
ATOM     13  C   UNL     1       9.493  -0.238  21.347  0.00  0.00    +0.001 A 
ATOM     14  C   UNL     1      10.052   0.730  22.174  0.00  0.00    +0.000 A 
ATOM     15  C   UNL     1      10.153   0.487  23.539  0.00  0.00    +0.001 A 
ATOM     16  C   UNL     1       9.719  -0.734  24.067  0.00  0.00    +0.010 A 
ENDBRANCH   9  11
BRANCH   6  17
ATOM     17  O   UNL     1       5.932  -5.247  24.639  0.00  0.00    -0.492 OA
ATOM     18  H   UNL     1       5.400  -4.926  23.894  0.00  0.00    +0.294 HD
ENDBRANCH   6  17
TORSDOF 2
ENDMDL
MODEL 3
REMARK VINA RESULT:      -5.6      5.914      7.687
REMARK  Name = 
REMARK  2 active torsions:
REMARK  status: ('A' for Active; 'I' for Inactive)
REMARK    1  A    between atoms: C_4  and  C_10
REMARK    2  A    between atoms: C_7  and  O_8
REMARK                            x       y       z     vdW  Elec       q    Type
REMARK                         _______ _______ _______ _____ _____    ______ ____
ROOT
ATOM      1  N   UNL     1       9.931  -5.949  25.473  0.00  0.00    -0.327 N 
ATOM      2  H   UNL     1       9.408  -6.744  25.816  0.00  0.00    +0.145 HD
ATOM      3  H   UNL     1      10.321  -6.016  24.542  0.00  0.00    +0.145 HD
ATOM      4  C   UNL     1       9.168  -4.808  25.587  0.00  0.00    +0.216 A 
ATOM      5  N   UNL     1       8.166  -4.827  26.456  0.00  0.00    -0.179 NA
ATOM      6  C   UNL     1       7.401  -3.729  26.492  0.00  0.00    +0.232 A 
ATOM      7  C   UNL     1       7.580  -2.615  25.690  0.00  0.00    +0.105 A 
ATOM      8 BR   UNL     1       6.293  -1.225  25.756  0.00  0.00    -0.043 Br
ATOM      9  C   UNL     1       8.675  -2.666  24.839  0.00  0.00    +0.094 A 
ATOM     10  N   UNL     1       9.451  -3.783  24.778  0.00  0.00    -0.213 NA
ENDROOT
BRANCH   9  11
ATOM     11  C   UNL     1       9.139  -1.591  23.923  0.00  0.00    +0.002 A 
ATOM     12  C   UNL     1       9.937  -0.511  24.342  0.00  0.00    +0.010 A 
ATOM     13  C   UNL     1      10.365   0.480  23.451  0.00  0.00    +0.001 A 
ATOM     14  C   UNL     1      10.043   0.394  22.101  0.00  0.00    +0.000 A 
ATOM     15  C   UNL     1       9.293  -0.684  21.644  0.00  0.00    +0.001 A 
ATOM     16  C   UNL     1       8.843  -1.656  22.545  0.00  0.00    +0.010 A 
ENDBRANCH   9  11
BRANCH   6  17
ATOM     17  O   UNL     1       6.390  -3.802  27.412  0.00  0.00    -0.492 OA
ATOM     18  H   UNL     1       6.581  -4.552  27.998  0.00  0.00    +0.294 HD
ENDBRANCH   6  17
TORSDOF 2
ENDMDL
MODEL 4
REMARK VINA RESULT:      -5.5      6.372      8.144
REMARK  Name = 
REMARK  2 active torsions:
REMARK  status: ('A' for Active; 'I' for Inactive)
REMARK    1  A    between atoms: C_4  and  C_10
REMARK    2  A    between atoms: C_7  and  O_8
REMARK                            x       y       z     vdW  Elec       q    Type
REMARK                         _______ _______ _______ _____ _____    ______ ____
ROOT
ATOM      1  N   UNL     1       6.632  -5.568  21.311  0.00  0.00    -0.327 N 
ATOM      2  H   UNL     1       6.194  -6.383  21.719  0.00  0.00    +0.145 HD
ATOM      3  H   UNL     1       6.072  -5.003  20.685  0.00  0.00    +0.145 HD
ATOM      4  C   UNL     1       7.170  -4.782  22.307  0.00  0.00    +0.216 A 
ATOM      5  N   UNL     1       7.424  -5.362  23.472  0.00  0.00    -0.179 NA
ATOM      6  C   UNL     1       7.879  -4.558  24.440  0.00  0.00    +0.232 A 
ATOM      7  C   UNL     1       8.080  -3.194  24.304  0.00  0.00    +0.105 A 
ATOM      8 BR   UNL     1       8.561  -2.185  25.835  0.00  0.00    -0.043 Br
ATOM      9  C   UNL     1       7.825  -2.680  23.041  0.00  0.00    +0.094 A 
ATOM     10  N   UNL     1       7.345  -3.483  22.052  0.00  0.00    -0.213 NA
ENDROOT
BRANCH   9  11
ATOM     11  C   UNL     1       8.019  -1.273  22.600  0.00  0.00    +0.002 A 
ATOM     12  C   UNL     1       7.134  -0.232  22.933  0.00  0.00    +0.010 A 
ATOM     13  C   UNL     1       7.351   1.084  22.509  0.00  0.00    +0.001 A 
ATOM     14  C   UNL     1       8.487   1.406  21.775  0.00  0.00    +0.000 A 
ATOM     15  C   UNL     1       9.406   0.409  21.466  0.00  0.00    +0.001 A 
ATOM     16  C   UNL     1       9.169  -0.910  21.867  0.00  0.00    +0.010 A 
ENDBRANCH   9  11
BRANCH   6  17
ATOM     17  O   UNL     1       8.132  -5.212  25.616  0.00  0.00    -0.492 OA
ATOM     18  H   UNL     1       9.061  -5.051  25.845  0.00  0.00    +0.294 HD
ENDBRANCH   6  17
TORSDOF 2
ENDMDL
MODEL 5
REMARK VINA RESULT:      -5.3      7.994      9.878
REMARK  Name = 
REMARK  2 active torsions:
REMARK  status: ('A' for Active; 'I' for Inactive)
REMARK    1  A    between atoms: C_4  and  C_10
REMARK    2  A    between atoms: C_7  and  O_8
REMARK                            x       y       z     vdW  Elec       q    Type
REMARK                         _______ _______ _______ _____ _____    ______ ____
ROOT
ATOM      1  N   UNL     1       5.835  -5.367  27.623  0.00  0.00    -0.327 N 
ATOM      2  H   UNL     1       5.493  -6.251  27.976  0.00  0.00    +0.145 HD
ATOM      3  H   UNL     1       6.707  -5.021  28.003  0.00  0.00    +0.145 HD
ATOM      4  C   UNL     1       5.899  -5.409  26.248  0.00  0.00    +0.216 A 
ATOM      5  N   UNL     1       5.152  -6.314  25.629  0.00  0.00    -0.179 NA
ATOM      6  C   UNL     1       5.291  -6.378  24.300  0.00  0.00    +0.232 A 
ATOM      7  C   UNL     1       6.151  -5.588  23.556  0.00  0.00    +0.105 A 
ATOM      8 BR   UNL     1       6.344  -5.939  21.703  0.00  0.00    -0.043 Br
ATOM      9  C   UNL     1       6.864  -4.643  24.281  0.00  0.00    +0.094 A 
ATOM     10  N   UNL     1       6.747  -4.579  25.636  0.00  0.00    -0.213 NA
ENDROOT
BRANCH   9  11
ATOM     11  C   UNL     1       7.802  -3.627  23.734  0.00  0.00    +0.002 A 
ATOM     12  C   UNL     1       7.436  -2.688  22.753  0.00  0.00    +0.010 A 
ATOM     13  C   UNL     1       8.341  -1.738  22.266  0.00  0.00    +0.001 A 
ATOM     14  C   UNL     1       9.630  -1.670  22.783  0.00  0.00    +0.000 A 
ATOM     15  C   UNL     1      10.013  -2.555  23.786  0.00  0.00    +0.001 A 
ATOM     16  C   UNL     1       9.112  -3.521  24.247  0.00  0.00    +0.010 A 
ENDBRANCH   9  11
BRANCH   6  17
ATOM     17  O   UNL     1       4.491  -7.323  23.715  0.00  0.00    -0.492 OA
ATOM     18  H   UNL     1       5.067  -8.038  23.399  0.00  0.00    +0.294 HD
ENDBRANCH   6  17
TORSDOF 2
ENDMDL
MODEL 6
REMARK VINA RESULT:      -5.3      5.419      7.102
REMARK  Name = 
REMARK  2 active torsions:
REMARK  status: ('A' for Active; 'I' for Inactive)
REMARK    1  A    between atoms: C_4  and  C_10
REMARK    2  A    between atoms: C_7  and  O_8
REMARK                            x       y       z     vdW  Elec       q    Type
REMARK                         _______ _______ _______ _____ _____    ______ ____
ROOT
ATOM      1  N   UNL     1       9.781  -0.792  21.143  0.00  0.00    -0.327 N 
ATOM      2  H   UNL     1      10.673  -0.355  21.338  0.00  0.00    +0.145 HD
ATOM      3  H   UNL     1       9.769  -1.542  20.464  0.00  0.00    +0.145 HD
ATOM      4  C   UNL     1       9.202  -1.210  22.322  0.00  0.00    +0.216 A 
ATOM      5  N   UNL     1       9.614  -0.633  23.443  0.00  0.00    -0.179 NA
ATOM      6  C   UNL     1       9.085  -1.110  24.575  0.00  0.00    +0.232 A 
ATOM      7  C   UNL     1       8.170  -2.147  24.645  0.00  0.00    +0.105 A 
ATOM      8 BR   UNL     1       7.663  -2.807  26.348  0.00  0.00    -0.043 Br
ATOM      9  C   UNL     1       7.766  -2.664  23.422  0.00  0.00    +0.094 A 
ATOM     10  N   UNL     1       8.310  -2.202  22.262  0.00  0.00    -0.213 NA
ENDROOT
BRANCH   9  11
ATOM     11  C   UNL     1       6.753  -3.729  23.199  0.00  0.00    +0.002 A 
ATOM     12  C   UNL     1       5.373  -3.535  23.396  0.00  0.00    +0.010 A 
ATOM     13  C   UNL     1       4.444  -4.557  23.167  0.00  0.00    +0.001 A 
ATOM     14  C   UNL     1       4.866  -5.793  22.690  0.00  0.00    +0.000 A 
ATOM     15  C   UNL     1       6.218  -6.006  22.443  0.00  0.00    +0.001 A 
ATOM     16  C   UNL     1       7.145  -4.990  22.701  0.00  0.00    +0.010 A 
ENDBRANCH   9  11
BRANCH   6  17
ATOM     17  O   UNL     1       9.540  -0.473  25.698  0.00  0.00    -0.492 OA
ATOM     18  H   UNL     1       9.079  -0.859  26.460  0.00  0.00    +0.294 HD
ENDBRANCH   6  17
TORSDOF 2
ENDMDL
MODEL 7
REMARK VINA RESULT:      -5.2      5.156      6.736
REMARK  Name = 
REMARK  2 active torsions:
REMARK  status: ('A' for Active; 'I' for Inactive)
REMARK    1  A    between atoms: C_4  and  C_10
REMARK    2  A    between atoms: C_7  and  O_8
REMARK                            x       y       z     vdW  Elec       q    Type
REMARK                         _______ _______ _______ _____ _____    ______ ____
ROOT
ATOM      1  N   UNL     1      10.748   0.729  25.181  0.00  0.00    -0.327 N 
ATOM      2  H   UNL     1      10.876   1.510  24.550  0.00  0.00    +0.145 HD
ATOM      3  H   UNL     1      10.307   0.919  26.072  0.00  0.00    +0.145 HD
ATOM      4  C   UNL     1      10.085  -0.289  24.530  0.00  0.00    +0.216 A 
ATOM      5  N   UNL     1      10.123  -0.293  23.205  0.00  0.00    -0.179 NA
ATOM      6  C   UNL     1       9.412  -1.253  22.602  0.00  0.00    +0.232 A 
ATOM      7  C   UNL     1       8.650  -2.204  23.260  0.00  0.00    +0.105 A 
ATOM      8 BR   UNL     1       7.568  -3.376  22.237  0.00  0.00    -0.043 Br
ATOM      9  C   UNL     1       8.701  -2.148  24.646  0.00  0.00    +0.094 A 
ATOM     10  N   UNL     1       9.405  -1.166  25.273  0.00  0.00    -0.213 NA
ENDROOT
BRANCH   9  11
ATOM     11  C   UNL     1       8.039  -3.080  25.597  0.00  0.00    +0.002 A 
ATOM     12  C   UNL     1       6.810  -2.801  26.222  0.00  0.00    +0.010 A 
ATOM     13  C   UNL     1       6.209  -3.705  27.105  0.00  0.00    +0.001 A 
ATOM     14  C   UNL     1       6.800  -4.939  27.353  0.00  0.00    +0.000 A 
ATOM     15  C   UNL     1       7.992  -5.267  26.718  0.00  0.00    +0.001 A 
ATOM     16  C   UNL     1       8.603  -4.346  25.859  0.00  0.00    +0.010 A 
ENDBRANCH   9  11
BRANCH   6  17
ATOM     17  O   UNL     1       9.494  -1.214  21.236  0.00  0.00    -0.492 OA
ATOM     18  H   UNL     1      10.430  -1.107  21.003  0.00  0.00    +0.294 HD
ENDBRANCH   6  17
TORSDOF 2
ENDMDL
MODEL 8
REMARK VINA RESULT:      -5.2      6.697      8.353
REMARK  Name = 
REMARK  2 active torsions:
REMARK  status: ('A' for Active; 'I' for Inactive)
REMARK    1  A    between atoms: C_4  and  C_10
REMARK    2  A    between atoms: C_7  and  O_8
REMARK                            x       y       z     vdW  Elec       q    Type
REMARK                         _______ _______ _______ _____ _____    ______ ____
ROOT
ATOM      1  N   UNL     1       5.080  -2.150  27.323  0.00  0.00    -0.327 N 
ATOM      2  H   UNL     1       4.870  -2.475  28.257  0.00  0.00    +0.145 HD
ATOM      3  H   UNL     1       5.223  -1.156  27.198  0.00  0.00    +0.145 HD
ATOM      4  C   UNL     1       6.153  -2.851  26.817  0.00  0.00    +0.216 A 
ATOM      5  N   UNL     1       6.426  -4.027  27.365  0.00  0.00    -0.179 NA
ATOM      6  C   UNL     1       7.516  -4.650  26.900  0.00  0.00    +0.232 A 
ATOM      7  C   UNL     1       8.356  -4.148  25.921  0.00  0.00    +0.105 A 
ATOM      8 BR   UNL     1       9.951  -5.089  25.514  0.00  0.00    -0.043 Br
ATOM      9  C   UNL     1       7.972  -2.931  25.377  0.00  0.00    +0.094 A 
ATOM     10  N   UNL     1       6.876  -2.276  25.853  0.00  0.00    -0.213 NA
ENDROOT
BRANCH   9  11
ATOM     11  C   UNL     1       8.647  -2.199  24.273  0.00  0.00    +0.002 A 
ATOM     12  C   UNL     1       8.367  -2.425  22.913  0.00  0.00    +0.010 A 
ATOM     13  C   UNL     1       9.014  -1.711  21.898  0.00  0.00    +0.001 A 
ATOM     14  C   UNL     1       9.929  -0.714  22.217  0.00  0.00    +0.000 A 
ATOM     15  C   UNL     1      10.197  -0.433  23.552  0.00  0.00    +0.001 A 
ATOM     16  C   UNL     1       9.569  -1.171  24.562  0.00  0.00    +0.010 A 
ENDBRANCH   9  11
BRANCH   6  17
ATOM     17  O   UNL     1       7.744  -5.862  27.496  0.00  0.00    -0.492 OA
ATOM     18  H   UNL     1       8.100  -5.690  28.382  0.00  0.00    +0.294 HD
ENDBRANCH   6  17
TORSDOF 2
ENDMDL
MODEL 9
REMARK VINA RESULT:      -5.2      4.501      5.999
REMARK  Name = 
REMARK  2 active torsions:
REMARK  status: ('A' for Active; 'I' for Inactive)
REMARK    1  A    between atoms: C_4  and  C_10
REMARK    2  A    between atoms: C_7  and  O_8
REMARK                            x       y       z     vdW  Elec       q    Type
REMARK                         _______ _______ _______ _____ _____    ______ ____
ROOT
ATOM      1  N   UNL     1       8.923  -0.516  27.497  0.00  0.00    -0.327 N 
ATOM      2  H   UNL     1       9.239   0.380  27.842  0.00  0.00    +0.145 HD
ATOM      3  H   UNL     1       7.984  -0.804  27.741  0.00  0.00    +0.145 HD
ATOM      4  C   UNL     1       9.098  -0.575  26.131  0.00  0.00    +0.216 A 
ATOM      5  N   UNL     1       9.980   0.255  25.592  0.00  0.00    -0.179 NA
ATOM      6  C   UNL     1      10.074   0.223  24.258  0.00  0.00    +0.232 A 
ATOM      7  C   UNL     1       9.319  -0.591  23.431  0.00  0.00    +0.105 A 
ATOM      8 BR   UNL     1       9.463  -0.374  21.553  0.00  0.00    -0.043 Br
ATOM      9  C   UNL     1       8.450  -1.455  24.083  0.00  0.00    +0.094 A 
ATOM     10  N   UNL     1       8.330  -1.421  25.439  0.00  0.00    -0.213 NA
ENDROOT
BRANCH   9  11
ATOM     11  C   UNL     1       7.575  -2.477  23.452  0.00  0.00    +0.002 A 
ATOM     12  C   UNL     1       6.357  -2.166  22.821  0.00  0.00    +0.010 A 
ATOM     13  C   UNL     1       5.560  -3.153  22.227  0.00  0.00    +0.001 A 
ATOM     14  C   UNL     1       5.984  -4.477  22.208  0.00  0.00    +0.000 A 
ATOM     15  C   UNL     1       7.204  -4.813  22.783  0.00  0.00    +0.001 A 
ATOM     16  C   UNL     1       7.982  -3.827  23.401  0.00  0.00    +0.010 A 
ENDBRANCH   9  11
BRANCH   6  17
ATOM     17  O   UNL     1      11.005   1.095  23.758  0.00  0.00    -0.492 OA
ATOM     18  H   UNL     1      11.288   0.755  22.894  0.00  0.00    +0.294 HD
ENDBRANCH   6  17
TORSDOF 2
ENDMDL
