MODEL 1
REMARK VINA RESULT:      -5.9      0.000      0.000
REMARK  Name = 
REMARK  10 active torsions:
REMARK  status: ('A' for Active; 'I' for Inactive)
REMARK    1  A    between atoms: C_1  and  C_2
REMARK    2  A    between atoms: C_2  and  C_3
REMARK    3  A    between atoms: C_3  and  C_4
REMARK    4  A    between atoms: C_4  and  C_5
REMARK    5  A    between atoms: C_5  and  C_6
REMARK    6  A    between atoms: C_6  and  C_7
REMARK    7  A    between atoms: C_7  and  C_8
REMARK    8  A    between atoms: C_8  and  C_9
REMARK    9  A    between atoms: C_9  and  C_10
REMARK   10  A    between atoms: C_19  and  O_20
REMARK                            x       y       z     vdW  Elec       q    Type
REMARK                         _______ _______ _______ _____ _____    ______ ____
ROOT
ATOM      1  C   UNL     1       7.953  -2.521  25.198  0.00  0.00    +0.199 A 
ATOM      2  C   UNL     1       8.795  -3.621  25.378  0.00  0.00    +0.120 A 
ATOM      3  C   UNL     1       8.728  -4.695  24.507  0.00  0.00    +0.136 A 
ATOM      4  C   UNL     1       7.811  -4.722  23.441  0.00  0.00    +0.089 A 
ATOM      5  C   UNL     1       6.974  -3.589  23.254  0.00  0.00    +0.230 A 
ATOM      6  C   UNL     1       6.040  -3.582  22.194  0.00  0.00    +0.080 A 
ATOM      7  C   UNL     1       5.911  -4.669  21.336  0.00  0.00    +0.007 A 
ATOM      8  C   UNL     1       6.718  -5.783  21.518  0.00  0.00    +0.001 A 
ATOM      9  C   UNL     1       7.658  -5.812  22.553  0.00  0.00    +0.018 A 
ATOM     10  N   UNL     1       7.060  -2.481  24.131  0.00  0.00    -0.167 N 
ATOM     11  O   UNL     1       6.317  -1.450  23.955  0.00  0.00    -0.619 OA
ENDROOT
BRANCH   3  12
ATOM     12  O   UNL     1       9.608  -5.706  24.781  0.00  0.00    -0.506 OA
ATOM     13  H   UNL     1       9.200  -6.351  25.378  0.00  0.00    +0.292 HD
ENDBRANCH   3  12
BRANCH   1  14
ATOM     14  C   UNL     1       7.992  -1.361  26.146  0.00  0.00    +0.108 C 
BRANCH  14  15
ATOM     15  C   UNL     1       9.162  -0.422  25.847  0.00  0.00    +0.011 C 
BRANCH  15  16
ATOM     16  C   UNL     1       8.716   0.849  25.123  0.00  0.00    +0.001 C 
BRANCH  16  17
ATOM     17  C   UNL     1       9.884   1.566  24.447  0.00  0.00    +0.000 C 
BRANCH  17  18
ATOM     18  C   UNL     1       9.447   2.300  23.187  0.00  0.00    +0.000 C 
BRANCH  18  19
ATOM     19  C   UNL     1       8.605   1.378  22.309  0.00  0.00    -0.000 C 
BRANCH  19  20
ATOM     20  C   UNL     1       9.496   0.475  21.464  0.00  0.00    -0.000 C 
BRANCH  20  22
ATOM     21  C   UNL     1      10.338  -1.622  22.546  0.00  0.00    +0.004 C 
ATOM     22  C   UNL     1       9.212  -0.998  21.740  0.00  0.00    -0.003 C 
ENDBRANCH  20  22
ENDBRANCH  19  20
ENDBRANCH  18  19
ENDBRANCH  17  18
ENDBRANCH  16  17
ENDBRANCH  15  16
ENDBRANCH  14  15
ENDBRANCH   1  14
TORSDOF 9
ENDMDL
MODEL 2
REMARK VINA RESULT:      -5.5      1.788      5.638
REMARK  Name = 
REMARK  10 active torsions:
REMARK  status: ('A' for Active; 'I' for Inactive)
REMARK    1  A    between atoms: C_1  and  C_2
REMARK    2  A    between atoms: C_2  and  C_3
REMARK    3  A    between atoms: C_3  and  C_4
REMARK    4  A    between atoms: C_4  and  C_5
REMARK    5  A    between atoms: C_5  and  C_6
REMARK    6  A    between atoms: C_6  and  C_7
REMARK    7  A    between atoms: C_7  and  C_8
REMARK    8  A    between atoms: C_8  and  C_9
REMARK    9  A    between atoms: C_9  and  C_10
REMARK   10  A    between atoms: C_19  and  O_20
REMARK                            x       y       z     vdW  Elec       q    Type
REMARK                         _______ _______ _______ _____ _____    ______ ____
ROOT
ATOM      1  C   UNL     1       9.105  -2.257  24.390  0.00  0.00    +0.199 A 
ATOM      2  C   UNL     1       8.804  -1.566  25.566  0.00  0.00    +0.120 A 
ATOM      3  C   UNL     1       8.880  -0.184  25.597  0.00  0.00    +0.136 A 
ATOM      4  C   UNL     1       9.276   0.556  24.468  0.00  0.00    +0.089 A 
ATOM      5  C   UNL     1       9.560  -0.155  23.271  0.00  0.00    +0.230 A 
ATOM      6  C   UNL     1       9.962   0.556  22.119  0.00  0.00    +0.080 A 
ATOM      7  C   UNL     1      10.101   1.940  22.135  0.00  0.00    +0.007 A 
ATOM      8  C   UNL     1       9.835   2.642  23.303  0.00  0.00    +0.001 A 
ATOM      9  C   UNL     1       9.426   1.963  24.455  0.00  0.00    +0.018 A 
ATOM     10  N   UNL     1       9.459  -1.566  23.234  0.00  0.00    -0.167 N 
ATOM     11  O   UNL     1       9.699  -2.209  22.151  0.00  0.00    -0.619 OA
ENDROOT
BRANCH   3  12
ATOM     12  O   UNL     1       8.552   0.377  26.800  0.00  0.00    -0.506 OA
ATOM     13  H   UNL     1       8.124   1.236  26.663  0.00  0.00    +0.292 HD
ENDBRANCH   3  12
BRANCH   1  14
ATOM     14  C   UNL     1       9.055  -3.755  24.344  0.00  0.00    +0.108 C 
BRANCH  14  15
ATOM     15  C   UNL     1       8.431  -4.341  25.612  0.00  0.00    +0.011 C 
BRANCH  15  16
ATOM     16  C   UNL     1       7.077  -4.999  25.341  0.00  0.00    +0.001 C 
BRANCH  16  17
ATOM     17  C   UNL     1       5.927  -3.996  25.406  0.00  0.00    +0.000 C 
BRANCH  17  18
ATOM     18  C   UNL     1       5.109  -3.987  24.122  0.00  0.00    +0.000 C 
BRANCH  18  19
ATOM     19  C   UNL     1       5.622  -2.898  23.182  0.00  0.00    -0.000 C 
BRANCH  19  20
ATOM     20  C   UNL     1       6.247  -3.511  21.935  0.00  0.00    -0.000 C 
BRANCH  20  22
ATOM     21  C   UNL     1       7.156  -5.832  21.680  0.00  0.00    +0.004 C 
ATOM     22  C   UNL     1       5.899  -4.990  21.811  0.00  0.00    -0.003 C 
ENDBRANCH  20  22
ENDBRANCH  19  20
ENDBRANCH  18  19
ENDBRANCH  17  18
ENDBRANCH  16  17
ENDBRANCH  15  16
ENDBRANCH  14  15
ENDBRANCH   1  14
TORSDOF 9
ENDMDL
MODEL 3
REMARK VINA RESULT:      -5.5      1.727      3.625
REMARK  Name = 
REMARK  10 active torsions:
REMARK  status: ('A' for Active; 'I' for Inactive)
REMARK    1  A    between atoms: C_1  and  C_2
REMARK    2  A    between atoms: C_2  and  C_3
REMARK    3  A    between atoms: C_3  and  C_4
REMARK    4  A    between atoms: C_4  and  C_5
REMARK    5  A    between atoms: C_5  and  C_6
REMARK    6  A    between atoms: C_6  and  C_7
REMARK    7  A    between atoms: C_7  and  C_8
REMARK    8  A    between atoms: C_8  and  C_9
REMARK    9  A    between atoms: C_9  and  C_10
REMARK   10  A    between atoms: C_19  and  O_20
REMARK                            x       y       z     vdW  Elec       q    Type
REMARK                         _______ _______ _______ _____ _____    ______ ____
ROOT
ATOM      1  C   UNL     1       8.655  -2.322  22.595  0.00  0.00    +0.199 A 
ATOM      2  C   UNL     1       7.390  -2.470  22.021  0.00  0.00    +0.120 A 
ATOM      3  C   UNL     1       6.445  -3.280  22.627  0.00  0.00    +0.136 A 
ATOM      4  C   UNL     1       6.730  -3.985  23.810  0.00  0.00    +0.089 A 
ATOM      5  C   UNL     1       8.012  -3.811  24.397  0.00  0.00    +0.230 A 
ATOM      6  C   UNL     1       8.333  -4.505  25.585  0.00  0.00    +0.080 A 
ATOM      7  C   UNL     1       7.423  -5.369  26.186  0.00  0.00    +0.007 A 
ATOM      8  C   UNL     1       6.173  -5.552  25.614  0.00  0.00    +0.001 A 
ATOM      9  C   UNL     1       5.826  -4.870  24.443  0.00  0.00    +0.018 A 
ATOM     10  N   UNL     1       8.970  -2.963  23.790  0.00  0.00    -0.167 N 
ATOM     11  O   UNL     1      10.122  -2.792  24.327  0.00  0.00    -0.619 OA
ENDROOT
BRANCH   3  12
ATOM     12  O   UNL     1       5.244  -3.337  21.976  0.00  0.00    -0.506 OA
ATOM     13  H   UNL     1       4.652  -2.643  22.306  0.00  0.00    +0.292 HD
ENDBRANCH   3  12
BRANCH   1  14
ATOM     14  C   UNL     1       9.701  -1.470  21.941  0.00  0.00    +0.108 C 
BRANCH  14  15
ATOM     15  C   UNL     1       9.107  -0.183  21.366  0.00  0.00    +0.011 C 
BRANCH  15  16
ATOM     16  C   UNL     1       9.832   1.066  21.871  0.00  0.00    +0.001 C 
BRANCH  16  17
ATOM     17  C   UNL     1      10.296   0.916  23.319  0.00  0.00    +0.000 C 
BRANCH  17  18
ATOM     18  C   UNL     1       9.910   2.119  24.167  0.00  0.00    +0.000 C 
BRANCH  18  19
ATOM     19  C   UNL     1       8.646   1.813  24.967  0.00  0.00    -0.000 C 
BRANCH  19  20
ATOM     20  C   UNL     1       8.592   0.337  25.347  0.00  0.00    -0.000 C 
BRANCH  20  22
ATOM     21  C   UNL     1       6.454   0.415  24.043  0.00  0.00    +0.004 C 
ATOM     22  C   UNL     1       7.176  -0.214  25.222  0.00  0.00    -0.003 C 
ENDBRANCH  20  22
ENDBRANCH  19  20
ENDBRANCH  18  19
ENDBRANCH  17  18
ENDBRANCH  16  17
ENDBRANCH  15  16
ENDBRANCH  14  15
ENDBRANCH   1  14
TORSDOF 9
ENDMDL
MODEL 4
REMARK VINA RESULT:      -5.5      2.386      3.061
REMARK  Name = 
REMARK  10 active torsions:
REMARK  status: ('A' for Active; 'I' for Inactive)
REMARK    1  A    between atoms: C_1  and  C_2
REMARK    2  A    between atoms: C_2  and  C_3
REMARK    3  A    between atoms: C_3  and  C_4
REMARK    4  A    between atoms: C_4  and  C_5
REMARK    5  A    between atoms: C_5  and  C_6
REMARK    6  A    between atoms: C_6  and  C_7
REMARK    7  A    between atoms: C_7  and  C_8
REMARK    8  A    between atoms: C_8  and  C_9
REMARK    9  A    between atoms: C_9  and  C_10
REMARK   10  A    between atoms: C_19  and  O_20
REMARK                            x       y       z     vdW  Elec       q    Type
REMARK                         _______ _______ _______ _____ _____    ______ ____
ROOT
ATOM      1  C   UNL     1       8.409  -4.122  24.679  0.00  0.00    +0.199 A 
ATOM      2  C   UNL     1       8.469  -4.564  26.003  0.00  0.00    +0.120 A 
ATOM      3  C   UNL     1       7.470  -5.378  26.508  0.00  0.00    +0.136 A 
ATOM      4  C   UNL     1       6.368  -5.764  25.723  0.00  0.00    +0.089 A 
ATOM      5  C   UNL     1       6.327  -5.326  24.372  0.00  0.00    +0.230 A 
ATOM      6  C   UNL     1       5.235  -5.693  23.555  0.00  0.00    +0.080 A 
ATOM      7  C   UNL     1       4.188  -6.464  24.051  0.00  0.00    +0.007 A 
ATOM      8  C   UNL     1       4.215  -6.887  25.372  0.00  0.00    +0.001 A 
ATOM      9  C   UNL     1       5.290  -6.546  26.200  0.00  0.00    +0.018 A 
ATOM     10  N   UNL     1       7.362  -4.514  23.849  0.00  0.00    -0.167 N 
ATOM     11  O   UNL     1       7.335  -4.131  22.625  0.00  0.00    -0.619 OA
ENDROOT
BRANCH   3  12
ATOM     12  O   UNL     1       7.646  -5.752  27.811  0.00  0.00    -0.506 OA
ATOM     13  H   UNL     1       6.998  -6.431  28.055  0.00  0.00    +0.292 HD
ENDBRANCH   3  12
BRANCH   1  14
ATOM     14  C   UNL     1       9.468  -3.219  24.121  0.00  0.00    +0.108 C 
BRANCH  14  15
ATOM     15  C   UNL     1       9.273  -1.770  24.570  0.00  0.00    +0.011 C 
BRANCH  15  16
ATOM     16  C   UNL     1       8.313  -1.004  23.658  0.00  0.00    +0.001 C 
BRANCH  16  17
ATOM     17  C   UNL     1       8.685  -1.147  22.183  0.00  0.00    +0.000 C 
BRANCH  17  18
ATOM     18  C   UNL     1       9.833  -0.226  21.795  0.00  0.00    +0.000 C 
BRANCH  18  19
ATOM     19  C   UNL     1       9.330   1.209  21.657  0.00  0.00    -0.000 C 
BRANCH  19  20
ATOM     20  C   UNL     1      10.286   2.184  22.333  0.00  0.00    -0.000 C 
BRANCH  20  22
ATOM     21  C   UNL     1       9.151   2.527  24.540  0.00  0.00    +0.004 C 
ATOM     22  C   UNL     1      10.360   1.935  23.836  0.00  0.00    -0.003 C 
ENDBRANCH  20  22
ENDBRANCH  19  20
ENDBRANCH  18  19
ENDBRANCH  17  18
ENDBRANCH  16  17
ENDBRANCH  15  16
ENDBRANCH  14  15
ENDBRANCH   1  14
TORSDOF 9
ENDMDL
MODEL 5
REMARK VINA RESULT:      -5.5      1.103      2.098
REMARK  Name = 
REMARK  10 active torsions:
REMARK  status: ('A' for Active; 'I' for Inactive)
REMARK    1  A    between atoms: C_1  and  C_2
REMARK    2  A    between atoms: C_2  and  C_3
REMARK    3  A    between atoms: C_3  and  C_4
REMARK    4  A    between atoms: C_4  and  C_5
REMARK    5  A    between atoms: C_5  and  C_6
REMARK    6  A    between atoms: C_6  and  C_7
REMARK    7  A    between atoms: C_7  and  C_8
REMARK    8  A    between atoms: C_8  and  C_9
REMARK    9  A    between atoms: C_9  and  C_10
REMARK   10  A    between atoms: C_19  and  O_20
REMARK                            x       y       z     vdW  Elec       q    Type
REMARK                         _______ _______ _______ _____ _____    ______ ____
ROOT
ATOM      1  C   UNL     1       8.347  -2.016  24.393  0.00  0.00    +0.199 A 
ATOM      2  C   UNL     1       9.112  -3.094  24.842  0.00  0.00    +0.120 A 
ATOM      3  C   UNL     1       8.915  -4.356  24.307  0.00  0.00    +0.136 A 
ATOM      4  C   UNL     1       7.938  -4.593  23.323  0.00  0.00    +0.089 A 
ATOM      5  C   UNL     1       7.179  -3.486  22.858  0.00  0.00    +0.230 A 
ATOM      6  C   UNL     1       6.188  -3.687  21.872  0.00  0.00    +0.080 A 
ATOM      7  C   UNL     1       5.929  -4.953  21.355  0.00  0.00    +0.007 A 
ATOM      8  C   UNL     1       6.659  -6.041  21.811  0.00  0.00    +0.001 A 
ATOM      9  C   UNL     1       7.652  -5.867  22.780  0.00  0.00    +0.018 A 
ATOM     10  N   UNL     1       7.398  -2.191  23.389  0.00  0.00    -0.167 N 
ATOM     11  O   UNL     1       6.726  -1.188  22.959  0.00  0.00    -0.619 OA
ENDROOT
BRANCH   3  12
ATOM     12  O   UNL     1       9.731  -5.325  24.821  0.00  0.00    -0.506 OA
ATOM     13  H   UNL     1      10.340  -4.941  25.470  0.00  0.00    +0.292 HD
ENDBRANCH   3  12
BRANCH   1  14
ATOM     14  C   UNL     1       8.527  -0.648  24.978  0.00  0.00    +0.108 C 
BRANCH  14  15
ATOM     15  C   UNL     1       9.944  -0.117  24.756  0.00  0.00    +0.011 C 
BRANCH  15  16
ATOM     16  C   UNL     1      10.403  -0.279  23.306  0.00  0.00    +0.001 C 
BRANCH  16  17
ATOM     17  C   UNL     1      10.176   0.990  22.486  0.00  0.00    +0.000 C 
BRANCH  17  18
ATOM     18  C   UNL     1       9.076   0.807  21.449  0.00  0.00    +0.000 C 
BRANCH  18  19
ATOM     19  C   UNL     1       8.008   1.884  21.622  0.00  0.00    -0.000 C 
BRANCH  19  20
ATOM     20  C   UNL     1       8.392   2.852  22.735  0.00  0.00    -0.000 C 
BRANCH  20  22
ATOM     21  C   UNL     1       8.068   3.116  25.205  0.00  0.00    +0.004 C 
ATOM     22  C   UNL     1       7.390   2.802  23.882  0.00  0.00    -0.003 C 
ENDBRANCH  20  22
ENDBRANCH  19  20
ENDBRANCH  18  19
ENDBRANCH  17  18
ENDBRANCH  16  17
ENDBRANCH  15  16
ENDBRANCH  14  15
ENDBRANCH   1  14
TORSDOF 9
ENDMDL
MODEL 6
REMARK VINA RESULT:      -5.4      1.927      5.525
REMARK  Name = 
REMARK  10 active torsions:
REMARK  status: ('A' for Active; 'I' for Inactive)
REMARK    1  A    between atoms: C_1  and  C_2
REMARK    2  A    between atoms: C_2  and  C_3
REMARK    3  A    between atoms: C_3  and  C_4
REMARK    4  A    between atoms: C_4  and  C_5
REMARK    5  A    between atoms: C_5  and  C_6
REMARK    6  A    between atoms: C_6  and  C_7
REMARK    7  A    between atoms: C_7  and  C_8
REMARK    8  A    between atoms: C_8  and  C_9
REMARK    9  A    between atoms: C_9  and  C_10
REMARK   10  A    between atoms: C_19  and  O_20
REMARK                            x       y       z     vdW  Elec       q    Type
REMARK                         _______ _______ _______ _____ _____    ______ ____
ROOT
ATOM      1  C   UNL     1       8.999  -1.999  25.089  0.00  0.00    +0.199 A 
ATOM      2  C   UNL     1       9.526  -2.355  23.845  0.00  0.00    +0.120 A 
ATOM      3  C   UNL     1       9.895  -1.373  22.942  0.00  0.00    +0.136 A 
ATOM      4  C   UNL     1       9.735  -0.007  23.234  0.00  0.00    +0.089 A 
ATOM      5  C   UNL     1       9.218   0.346  24.510  0.00  0.00    +0.230 A 
ATOM      6  C   UNL     1       9.043   1.708  24.836  0.00  0.00    +0.080 A 
ATOM      7  C   UNL     1       9.352   2.715  23.928  0.00  0.00    +0.007 A 
ATOM      8  C   UNL     1       9.849   2.380  22.677  0.00  0.00    +0.001 A 
ATOM      9  C   UNL     1      10.041   1.038  22.331  0.00  0.00    +0.018 A 
ATOM     10  N   UNL     1       8.864  -0.659  25.442  0.00  0.00    -0.167 N 
ATOM     11  O   UNL     1       8.412  -0.343  26.601  0.00  0.00    -0.619 OA
ENDROOT
BRANCH   3  12
ATOM     12  O   UNL     1      10.406  -1.847  21.765  0.00  0.00    -0.506 OA
ATOM     13  H   UNL     1      10.192  -2.787  21.661  0.00  0.00    +0.292 HD
ENDBRANCH   3  12
BRANCH   1  14
ATOM     14  C   UNL     1       8.569  -3.047  26.071  0.00  0.00    +0.108 C 
BRANCH  14  15
ATOM     15  C   UNL     1       8.582  -4.445  25.450  0.00  0.00    +0.011 C 
BRANCH  15  16
ATOM     16  C   UNL     1       7.241  -5.163  25.610  0.00  0.00    +0.001 C 
BRANCH  16  17
ATOM     17  C   UNL     1       6.116  -4.201  25.991  0.00  0.00    +0.000 C 
BRANCH  17  18
ATOM     18  C   UNL     1       5.072  -4.085  24.889  0.00  0.00    +0.000 C 
BRANCH  18  19
ATOM     19  C   UNL     1       5.534  -3.085  23.833  0.00  0.00    -0.000 C 
BRANCH  19  20
ATOM     20  C   UNL     1       5.569  -3.733  22.453  0.00  0.00    -0.000 C 
BRANCH  20  22
ATOM     21  C   UNL     1       7.055  -5.637  21.787  0.00  0.00    +0.004 C 
ATOM     22  C   UNL     1       6.986  -4.146  22.073  0.00  0.00    -0.003 C 
ENDBRANCH  20  22
ENDBRANCH  19  20
ENDBRANCH  18  19
ENDBRANCH  17  18
ENDBRANCH  16  17
ENDBRANCH  15  16
ENDBRANCH  14  15
ENDBRANCH   1  14
TORSDOF 9
ENDMDL
MODEL 7
REMARK VINA RESULT:      -5.4      2.539      5.402
REMARK  Name = 
REMARK  10 active torsions:
REMARK  status: ('A' for Active; 'I' for Inactive)
REMARK    1  A    between atoms: C_1  and  C_2
REMARK    2  A    between atoms: C_2  and  C_3
REMARK    3  A    between atoms: C_3  and  C_4
REMARK    4  A    between atoms: C_4  and  C_5
REMARK    5  A    between atoms: C_5  and  C_6
REMARK    6  A    between atoms: C_6  and  C_7
REMARK    7  A    between atoms: C_7  and  C_8
REMARK    8  A    between atoms: C_8  and  C_9
REMARK    9  A    between atoms: C_9  and  C_10
REMARK   10  A    between atoms: C_19  and  O_20
REMARK                            x       y       z     vdW  Elec       q    Type
REMARK                         _______ _______ _______ _____ _____    ______ ____
ROOT
ATOM      1  C   UNL     1       7.140  -4.588  26.918  0.00  0.00    +0.199 A 
ATOM      2  C   UNL     1       8.279  -5.301  26.540  0.00  0.00    +0.120 A 
ATOM      3  C   UNL     1       9.170  -4.754  25.633  0.00  0.00    +0.136 A 
ATOM      4  C   UNL     1       8.950  -3.490  25.056  0.00  0.00    +0.089 A 
ATOM      5  C   UNL     1       7.799  -2.763  25.463  0.00  0.00    +0.230 A 
ATOM      6  C   UNL     1       7.545  -1.492  24.903  0.00  0.00    +0.080 A 
ATOM      7  C   UNL     1       8.393  -0.940  23.948  0.00  0.00    +0.007 A 
ATOM      8  C   UNL     1       9.514  -1.647  23.538  0.00  0.00    +0.001 A 
ATOM      9  C   UNL     1       9.794  -2.904  24.083  0.00  0.00    +0.018 A 
ATOM     10  N   UNL     1       6.901  -3.314  26.409  0.00  0.00    -0.167 N 
ATOM     11  O   UNL     1       5.870  -2.653  26.790  0.00  0.00    -0.619 OA
ENDROOT
BRANCH   3  12
ATOM     12  O   UNL     1      10.251  -5.543  25.350  0.00  0.00    -0.506 OA
ATOM     13  H   UNL     1      10.952  -5.015  24.937  0.00  0.00    +0.292 HD
ENDBRANCH   3  12
BRANCH   1  14
ATOM     14  C   UNL     1       6.149  -5.174  27.879  0.00  0.00    +0.108 C 
BRANCH  14  15
ATOM     15  C   UNL     1       5.450  -6.403  27.295  0.00  0.00    +0.011 C 
BRANCH  15  16
ATOM     16  C   UNL     1       4.414  -6.030  26.233  0.00  0.00    +0.001 C 
BRANCH  16  17
ATOM     17  C   UNL     1       4.394  -7.025  25.074  0.00  0.00    +0.000 C 
BRANCH  17  18
ATOM     18  C   UNL     1       4.295  -6.325  23.726  0.00  0.00    +0.000 C 
BRANCH  18  19
ATOM     19  C   UNL     1       5.174  -5.077  23.718  0.00  0.00    -0.000 C 
BRANCH  19  20
ATOM     20  C   UNL     1       6.563  -5.398  23.177  0.00  0.00    -0.000 C 
BRANCH  20  22
ATOM     21  C   UNL     1       6.048  -3.260  21.976  0.00  0.00    +0.004 C 
ATOM     22  C   UNL     1       6.912  -4.510  21.988  0.00  0.00    -0.003 C 
ENDBRANCH  20  22
ENDBRANCH  19  20
ENDBRANCH  18  19
ENDBRANCH  17  18
ENDBRANCH  16  17
ENDBRANCH  15  16
ENDBRANCH  14  15
ENDBRANCH   1  14
TORSDOF 9
ENDMDL
MODEL 8
REMARK VINA RESULT:      -5.4      2.128      2.618
REMARK  Name = 
REMARK  10 active torsions:
REMARK  status: ('A' for Active; 'I' for Inactive)
REMARK    1  A    between atoms: C_1  and  C_2
REMARK    2  A    between atoms: C_2  and  C_3
REMARK    3  A    between atoms: C_3  and  C_4
REMARK    4  A    between atoms: C_4  and  C_5
REMARK    5  A    between atoms: C_5  and  C_6
REMARK    6  A    between atoms: C_6  and  C_7
REMARK    7  A    between atoms: C_7  and  C_8
REMARK    8  A    between atoms: C_8  and  C_9
REMARK    9  A    between atoms: C_9  and  C_10
REMARK   10  A    between atoms: C_19  and  O_20
REMARK                            x       y       z     vdW  Elec       q    Type
REMARK                         _______ _______ _______ _____ _____    ______ ____
ROOT
ATOM      1  C   UNL     1       8.545  -3.648  24.578  0.00  0.00    +0.199 A 
ATOM      2  C   UNL     1       8.609  -4.234  25.844  0.00  0.00    +0.120 A 
ATOM      3  C   UNL     1       7.647  -5.150  26.233  0.00  0.00    +0.136 A 
ATOM      4  C   UNL     1       6.579  -5.500  25.388  0.00  0.00    +0.089 A 
ATOM      5  C   UNL     1       6.534  -4.913  24.094  0.00  0.00    +0.230 A 
ATOM      6  C   UNL     1       5.475  -5.240  23.219  0.00  0.00    +0.080 A 
ATOM      7  C   UNL     1       4.464  -6.115  23.602  0.00  0.00    +0.007 A 
ATOM      8  C   UNL     1       4.494  -6.684  24.867  0.00  0.00    +0.001 A 
ATOM      9  C   UNL     1       5.537  -6.385  25.750  0.00  0.00    +0.018 A 
ATOM     10  N   UNL     1       7.532  -3.995  23.688  0.00  0.00    -0.167 N 
ATOM     11  O   UNL     1       7.504  -3.477  22.515  0.00  0.00    -0.619 OA
ENDROOT
BRANCH   3  12
ATOM     12  O   UNL     1       7.824  -5.661  27.490  0.00  0.00    -0.506 OA
ATOM     13  H   UNL     1       8.414  -5.089  28.004  0.00  0.00    +0.292 HD
ENDBRANCH   3  12
BRANCH   1  14
ATOM     14  C   UNL     1       9.562  -2.634  24.148  0.00  0.00    +0.108 C 
BRANCH  14  15
ATOM     15  C   UNL     1       9.042  -1.204  24.308  0.00  0.00    +0.011 C 
BRANCH  15  16
ATOM     16  C   UNL     1      10.013  -0.319  25.091  0.00  0.00    +0.001 C 
BRANCH  16  17
ATOM     17  C   UNL     1      10.844   0.575  24.172  0.00  0.00    +0.000 C 
BRANCH  17  18
ATOM     18  C   UNL     1      10.088   1.833  23.768  0.00  0.00    +0.000 C 
BRANCH  18  19
ATOM     19  C   UNL     1      10.103   1.989  22.249  0.00  0.00    -0.000 C 
BRANCH  19  20
ATOM     20  C   UNL     1       8.928   1.249  21.619  0.00  0.00    -0.000 C 
BRANCH  20  22
ATOM     21  C   UNL     1       7.138   2.978  21.907  0.00  0.00    +0.004 C 
ATOM     22  C   UNL     1       7.618   1.596  22.316  0.00  0.00    -0.003 C 
ENDBRANCH  20  22
ENDBRANCH  19  20
ENDBRANCH  18  19
ENDBRANCH  17  18
ENDBRANCH  16  17
ENDBRANCH  15  16
ENDBRANCH  14  15
ENDBRANCH   1  14
TORSDOF 9
ENDMDL
MODEL 9
REMARK VINA RESULT:      -5.2      2.115      3.062
REMARK  Name = 
REMARK  10 active torsions:
REMARK  status: ('A' for Active; 'I' for Inactive)
REMARK    1  A    between atoms: C_1  and  C_2
REMARK    2  A    between atoms: C_2  and  C_3
REMARK    3  A    between atoms: C_3  and  C_4
REMARK    4  A    between atoms: C_4  and  C_5
REMARK    5  A    between atoms: C_5  and  C_6
REMARK    6  A    between atoms: C_6  and  C_7
REMARK    7  A    between atoms: C_7  and  C_8
REMARK    8  A    between atoms: C_8  and  C_9
REMARK    9  A    between atoms: C_9  and  C_10
REMARK   10  A    between atoms: C_19  and  O_20
REMARK                            x       y       z     vdW  Elec       q    Type
REMARK                         _______ _______ _______ _____ _____    ______ ____
ROOT
ATOM      1  C   UNL     1       8.773  -3.440  24.176  0.00  0.00    +0.199 A 
ATOM      2  C   UNL     1       8.920  -4.201  25.338  0.00  0.00    +0.120 A 
ATOM      3  C   UNL     1       7.920  -5.076  25.725  0.00  0.00    +0.136 A 
ATOM      4  C   UNL     1       6.732  -5.210  24.983  0.00  0.00    +0.089 A 
ATOM      5  C   UNL     1       6.601  -4.447  23.792  0.00  0.00    +0.230 A 
ATOM      6  C   UNL     1       5.421  -4.555  23.023  0.00  0.00    +0.080 A 
ATOM      7  C   UNL     1       4.375  -5.384  23.416  0.00  0.00    +0.007 A 
ATOM      8  C   UNL     1       4.491  -6.125  24.583  0.00  0.00    +0.001 A 
ATOM      9  C   UNL     1       5.653  -6.044  25.357  0.00  0.00    +0.018 A 
ATOM     10  N   UNL     1       7.635  -3.570  23.384  0.00  0.00    -0.167 N 
ATOM     11  O   UNL     1       7.527  -2.892  22.301  0.00  0.00    -0.619 OA
ENDROOT
BRANCH   3  12
ATOM     12  O   UNL     1       8.184  -5.772  26.872  0.00  0.00    -0.506 OA
ATOM     13  H   UNL     1       7.931  -6.702  26.765  0.00  0.00    +0.292 HD
ENDBRANCH   3  12
BRANCH   1  14
ATOM     14  C   UNL     1       9.833  -2.468  23.755  0.00  0.00    +0.108 C 
BRANCH  14  15
ATOM     15  C   UNL     1       9.639  -1.098  24.407  0.00  0.00    +0.011 C 
BRANCH  15  16
ATOM     16  C   UNL     1      10.484  -0.012  23.738  0.00  0.00    +0.001 C 
BRANCH  16  17
ATOM     17  C   UNL     1       9.981   0.324  22.335  0.00  0.00    +0.000 C 
BRANCH  17  18
ATOM     18  C   UNL     1       9.769   1.820  22.152  0.00  0.00    +0.000 C 
BRANCH  18  19
ATOM     19  C   UNL     1      10.634   2.598  23.141  0.00  0.00    -0.000 C 
BRANCH  19  20
ATOM     20  C   UNL     1       9.807   3.650  23.870  0.00  0.00    -0.000 C 
BRANCH  20  22
ATOM     21  C   UNL     1      11.910   4.916  23.364  0.00  0.00    +0.004 C 
ATOM     22  C   UNL     1      10.448   5.030  23.762  0.00  0.00    -0.003 C 
ENDBRANCH  20  22
ENDBRANCH  19  20
ENDBRANCH  18  19
ENDBRANCH  17  18
ENDBRANCH  16  17
ENDBRANCH  15  16
ENDBRANCH  14  15
ENDBRANCH   1  14
TORSDOF 9
ENDMDL
