MODEL 1
REMARK VINA RESULT:      -7.0      0.000      0.000
REMARK  Name = 
REMARK  11 active torsions:
REMARK  status: ('A' for Active; 'I' for Inactive)
REMARK    1  A    between atoms: N_1  and  CA_2
REMARK    2  A    between atoms: CA_2  and  C_4
REMARK    3  A    between atoms: CA_2  and  C_29
REMARK    4  A    between atoms: C_4  and  C_5
REMARK    5  A    between atoms: C_5  and  SE_6
REMARK    6  A    between atoms: SE_6  and  C_7
REMARK    7  A    between atoms: C_7  and  C_8
REMARK    8  A    between atoms: C_11  and  N_19
REMARK    9  A    between atoms: C_13  and  O_15
REMARK   10  A    between atoms: C_16  and  O_18
REMARK   11  A    between atoms: C_29  and  O_30
REMARK                            x       y       z     vdW  Elec       q    Type
REMARK                         _______ _______ _______ _____ _____    ______ ____
ROOT
ATOM      1  C   UNL     1       8.706   2.717  23.213  0.00  0.00    +0.000 C 
ATOM      2  C   UNL     1      10.210   2.426  23.085  0.00  0.00    +0.000 C 
ATOM      3  C   UNL     1      10.334   0.968  23.523  0.00  0.00    +0.000 C 
ATOM      4  C   UNL     1       8.886   0.585  23.844  0.00  0.00    +0.000 C 
ATOM      5  O   UNL     1       8.052   1.469  23.131  0.00  0.00    +0.000 OA
ENDROOT
BRANCH   4   6
ATOM      6  N   UNL     1       8.589  -0.803  23.483  0.00  0.00    +0.000 N 
ATOM      7  C   UNL     1       8.489  -1.858  24.301  0.00  0.00    +0.000 A 
ATOM      8  N   UNL     1       8.643  -1.886  25.646  0.00  0.00    +0.000 NA
ATOM      9  C   UNL     1       8.473  -3.082  26.285  0.00  0.00    +0.000 A 
ATOM     10  N   UNL     1       8.155  -4.213  25.575  0.00  0.00    +0.000 NA
ATOM     11  C   UNL     1       7.997  -4.182  24.217  0.00  0.00    +0.000 A 
ATOM     12  N   UNL     1       7.658  -5.357  23.508  0.00  0.00    +0.000 N 
ATOM     13  H   UNL     1       7.535  -5.340  22.485  0.00  0.00    +0.000 HD
ATOM     14  H   UNL     1       7.523  -6.245  24.012  0.00  0.00    +0.000 HD
ATOM     15  C   UNL     1       8.173  -2.961  23.578  0.00  0.00    +0.000 A 
ATOM     16  N   UNL     1       8.067  -2.643  22.274  0.00  0.00    +0.000 NA
ATOM     17  C   UNL     1       8.324  -1.307  22.249  0.00  0.00    +0.000 A 
ENDBRANCH   4   6
BRANCH   2  18
ATOM     18  O   UNL     1      10.625   2.564  21.745  0.00  0.00    +0.000 OA
ATOM     19  H   UNL     1      10.745   3.531  21.546  0.00  0.00    +0.000 HD
ENDBRANCH   2  18
BRANCH   3  20
ATOM     20  O   UNL     1      11.169   0.827  24.641  0.00  0.00    +0.000 OA
ATOM     21  H   UNL     1      10.577   0.855  25.437  0.00  0.00    +0.000 HD
ENDBRANCH   3  20
BRANCH   1  22
ATOM     22  C   UNL     1       8.321   3.462  24.515  0.00  0.00    +0.000 C 
BRANCH  22  23
ATOM     23 SE   UNL     1       7.927   5.370  24.243  0.00  0.00    +0.000 Se
BRANCH  23  24
ATOM     24  C   UNL     1       9.637   6.053  24.902  0.00  0.00    +0.000 C 
BRANCH  24  25
ATOM     25  C   UNL     1      10.659   6.012  23.765  0.00  0.00    +0.000 C 
BRANCH  25  26
ATOM     26  CA  UNL     1      12.079   5.615  24.232  0.00  0.00    +0.000 C 
BRANCH  26  27
ATOM     27  N   UNL     1      12.740   6.685  24.985  0.00  0.00    +0.000 NA
ATOM     28  H1  UNL     1      13.263   7.324  24.344  0.00  0.00    +0.000 HD
ATOM     29  H2  UNL     1      12.041   7.240  25.529  0.00  0.00    +0.000 HD
ENDBRANCH  26  27
BRANCH  26  30
ATOM     30  C   UNL     1      12.932   5.252  23.039  0.00  0.00    +0.000 C 
ATOM     31  OXT UNL     1      12.407   5.091  21.949  0.00  0.00    +0.000 OA
BRANCH  30  32
ATOM     32  O   UNL     1      14.271   5.096  23.153  0.00  0.00    +0.000 OA
ATOM     33  H   UNL     1      14.690   4.812  23.976  0.00  0.00    +0.000 HD
ENDBRANCH  30  32
ENDBRANCH  26  30
ENDBRANCH  25  26
ENDBRANCH  24  25
ENDBRANCH  23  24
ENDBRANCH  22  23
ENDBRANCH   1  22
TORSDOF 11
ENDMDL
MODEL 2
REMARK VINA RESULT:      -7.0      3.899      6.222
REMARK  Name = 
REMARK  11 active torsions:
REMARK  status: ('A' for Active; 'I' for Inactive)
REMARK    1  A    between atoms: N_1  and  CA_2
REMARK    2  A    between atoms: CA_2  and  C_4
REMARK    3  A    between atoms: CA_2  and  C_29
REMARK    4  A    between atoms: C_4  and  C_5
REMARK    5  A    between atoms: C_5  and  SE_6
REMARK    6  A    between atoms: SE_6  and  C_7
REMARK    7  A    between atoms: C_7  and  C_8
REMARK    8  A    between atoms: C_11  and  N_19
REMARK    9  A    between atoms: C_13  and  O_15
REMARK   10  A    between atoms: C_16  and  O_18
REMARK   11  A    between atoms: C_29  and  O_30
REMARK                            x       y       z     vdW  Elec       q    Type
REMARK                         _______ _______ _______ _____ _____    ______ ____
ROOT
ATOM      1  C   UNL     1       9.008  -3.382  25.102  0.00  0.00    +0.000 C 
ATOM      2  C   UNL     1       9.457  -4.640  25.863  0.00  0.00    +0.000 C 
ATOM      3  C   UNL     1       8.171  -5.447  26.020  0.00  0.00    +0.000 C 
ATOM      4  C   UNL     1       7.129  -4.565  25.324  0.00  0.00    +0.000 C 
ATOM      5  O   UNL     1       7.821  -3.733  24.422  0.00  0.00    +0.000 OA
ENDROOT
BRANCH   4   6
ATOM      6  N   UNL     1       6.118  -5.356  24.619  0.00  0.00    +0.000 N 
ATOM      7  C   UNL     1       5.076  -6.010  25.147  0.00  0.00    +0.000 A 
ATOM      8  N   UNL     1       4.721  -6.096  26.451  0.00  0.00    +0.000 NA
ATOM      9  C   UNL     1       3.596  -6.807  26.763  0.00  0.00    +0.000 A 
ATOM     10  N   UNL     1       2.857  -7.411  25.776  0.00  0.00    +0.000 NA
ATOM     11  C   UNL     1       3.217  -7.322  24.460  0.00  0.00    +0.000 A 
ATOM     12  N   UNL     1       2.435  -7.943  23.459  0.00  0.00    +0.000 N 
ATOM     13  H   UNL     1       2.698  -7.877  22.465  0.00  0.00    +0.000 HD
ATOM     14  H   UNL     1       1.584  -8.464  23.716  0.00  0.00    +0.000 HD
ATOM     15  C   UNL     1       4.362  -6.596  24.155  0.00  0.00    +0.000 A 
ATOM     16  N   UNL     1       4.930  -6.337  22.962  0.00  0.00    +0.000 NA
ATOM     17  C   UNL     1       6.007  -5.567  23.281  0.00  0.00    +0.000 A 
ENDBRANCH   4   6
BRANCH   2  18
ATOM     18  O   UNL     1      10.392  -5.368  25.098  0.00  0.00    +0.000 OA
ATOM     19  H   UNL     1      11.251  -5.407  25.597  0.00  0.00    +0.000 HD
ENDBRANCH   2  18
BRANCH   3  20
ATOM     20  O   UNL     1       7.850  -5.664  27.368  0.00  0.00    +0.000 OA
ATOM     21  H   UNL     1       8.708  -5.637  27.866  0.00  0.00    +0.000 HD
ENDBRANCH   3  20
BRANCH   1  22
ATOM     22  C   UNL     1       8.783  -2.148  26.010  0.00  0.00    +0.000 C 
BRANCH  22  23
ATOM     23 SE   UNL     1       8.279  -0.525  25.021  0.00  0.00    +0.000 Se
BRANCH  23  24
ATOM     24  C   UNL     1      10.069   0.261  24.943  0.00  0.00    +0.000 C 
BRANCH  24  25
ATOM     25  C   UNL     1      10.610   0.123  23.519  0.00  0.00    +0.000 C 
BRANCH  25  26
ATOM     26  CA  UNL     1       9.499  -0.027  22.454  0.00  0.00    +0.000 C 
BRANCH  26  27
ATOM     27  N   UNL     1       9.841  -1.011  21.423  0.00  0.00    +0.000 NA
ATOM     28  H1  UNL     1       9.128  -1.013  20.658  0.00  0.00    +0.000 HD
ATOM     29  H2  UNL     1      10.782  -0.808  21.016  0.00  0.00    +0.000 HD
ENDBRANCH  26  27
BRANCH  26  30
ATOM     30  C   UNL     1       9.232   1.305  21.795  0.00  0.00    +0.000 C 
ATOM     31  OXT UNL     1       8.096   1.591  21.450  0.00  0.00    +0.000 OA
BRANCH  30  32
ATOM     32  O   UNL     1      10.228   2.194  21.574  0.00  0.00    +0.000 OA
ATOM     33  H   UNL     1      11.003   2.254  22.148  0.00  0.00    +0.000 HD
ENDBRANCH  30  32
ENDBRANCH  26  30
ENDBRANCH  25  26
ENDBRANCH  24  25
ENDBRANCH  23  24
ENDBRANCH  22  23
ENDBRANCH   1  22
TORSDOF 11
ENDMDL
MODEL 3
REMARK VINA RESULT:      -7.0      2.669      3.413
REMARK  Name = 
REMARK  11 active torsions:
REMARK  status: ('A' for Active; 'I' for Inactive)
REMARK    1  A    between atoms: N_1  and  CA_2
REMARK    2  A    between atoms: CA_2  and  C_4
REMARK    3  A    between atoms: CA_2  and  C_29
REMARK    4  A    between atoms: C_4  and  C_5
REMARK    5  A    between atoms: C_5  and  SE_6
REMARK    6  A    between atoms: SE_6  and  C_7
REMARK    7  A    between atoms: C_7  and  C_8
REMARK    8  A    between atoms: C_11  and  N_19
REMARK    9  A    between atoms: C_13  and  O_15
REMARK   10  A    between atoms: C_16  and  O_18
REMARK   11  A    between atoms: C_29  and  O_30
REMARK                            x       y       z     vdW  Elec       q    Type
REMARK                         _______ _______ _______ _____ _____    ______ ____
ROOT
ATOM      1  C   UNL     1       8.722  -0.487  22.936  0.00  0.00    +0.000 C 
ATOM      2  C   UNL     1       9.763  -1.603  22.753  0.00  0.00    +0.000 C 
ATOM      3  C   UNL     1       9.022  -2.864  23.190  0.00  0.00    +0.000 C 
ATOM      4  C   UNL     1       7.636  -2.332  23.566  0.00  0.00    +0.000 C 
ATOM      5  O   UNL     1       7.457  -1.113  22.883  0.00  0.00    +0.000 OA
ENDROOT
BRANCH   4   6
ATOM      6  N   UNL     1       6.569  -3.274  23.220  0.00  0.00    +0.000 N 
ATOM      7  C   UNL     1       6.140  -4.323  23.933  0.00  0.00    +0.000 A 
ATOM      8  N   UNL     1       6.596  -4.755  25.133  0.00  0.00    +0.000 NA
ATOM      9  C   UNL     1       5.990  -5.845  25.692  0.00  0.00    +0.000 A 
ATOM     10  N   UNL     1       4.953  -6.473  25.050  0.00  0.00    +0.000 NA
ATOM     11  C   UNL     1       4.493  -6.033  23.839  0.00  0.00    +0.000 A 
ATOM     12  N   UNL     1       3.416  -6.688  23.199  0.00  0.00    +0.000 N 
ATOM     13  H   UNL     1       3.062  -6.360  22.289  0.00  0.00    +0.000 HD
ATOM     14  H   UNL     1       2.966  -7.501  23.645  0.00  0.00    +0.000 HD
ATOM     15  C   UNL     1       5.117  -4.924  23.280  0.00  0.00    +0.000 A 
ATOM     16  N   UNL     1       4.864  -4.280  22.124  0.00  0.00    +0.000 NA
ATOM     17  C   UNL     1       5.772  -3.266  22.120  0.00  0.00    +0.000 A 
ENDBRANCH   4   6
BRANCH   2  18
ATOM     18  O   UNL     1      10.137  -1.708  21.398  0.00  0.00    +0.000 OA
ATOM     19  H   UNL     1       9.630  -1.032  20.874  0.00  0.00    +0.000 HD
ENDBRANCH   2  18
BRANCH   3  20
ATOM     20  O   UNL     1       9.650  -3.491  24.276  0.00  0.00    +0.000 OA
ATOM     21  H   UNL     1       9.418  -2.955  25.079  0.00  0.00    +0.000 HD
ENDBRANCH   3  20
BRANCH   1  22
ATOM     22  C   UNL     1       8.889   0.316  24.250  0.00  0.00    +0.000 C 
BRANCH  22  23
ATOM     23 SE   UNL     1      10.685   1.083  24.479  0.00  0.00    +0.000 Se
BRANCH  23  24
ATOM     24  C   UNL     1      10.239   2.893  23.888  0.00  0.00    +0.000 C 
BRANCH  24  25
ATOM     25  C   UNL     1      11.414   3.457  23.087  0.00  0.00    +0.000 C 
BRANCH  25  26
ATOM     26  CA  UNL     1      11.802   4.897  23.499  0.00  0.00    +0.000 C 
BRANCH  26  27
ATOM     27  N   UNL     1      10.765   5.875  23.158  0.00  0.00    +0.000 NA
ATOM     28  H1  UNL     1       9.828   5.416  23.088  0.00  0.00    +0.000 HD
ATOM     29  H2  UNL     1      10.722   6.635  23.875  0.00  0.00    +0.000 HD
ENDBRANCH  26  27
BRANCH  26  30
ATOM     30  C   UNL     1      13.095   5.295  22.830  0.00  0.00    +0.000 C 
ATOM     31  OXT UNL     1      13.068   6.014  21.843  0.00  0.00    +0.000 OA
BRANCH  30  32
ATOM     32  O   UNL     1      14.291   4.868  23.299  0.00  0.00    +0.000 OA
ATOM     33  H   UNL     1      14.934   5.469  23.697  0.00  0.00    +0.000 HD
ENDBRANCH  30  32
ENDBRANCH  26  30
ENDBRANCH  25  26
ENDBRANCH  24  25
ENDBRANCH  23  24
ENDBRANCH  22  23
ENDBRANCH   1  22
TORSDOF 11
ENDMDL
MODEL 4
REMARK VINA RESULT:      -6.9      5.013      9.027
REMARK  Name = 
REMARK  11 active torsions:
REMARK  status: ('A' for Active; 'I' for Inactive)
REMARK    1  A    between atoms: N_1  and  CA_2
REMARK    2  A    between atoms: CA_2  and  C_4
REMARK    3  A    between atoms: CA_2  and  C_29
REMARK    4  A    between atoms: C_4  and  C_5
REMARK    5  A    between atoms: C_5  and  SE_6
REMARK    6  A    between atoms: SE_6  and  C_7
REMARK    7  A    between atoms: C_7  and  C_8
REMARK    8  A    between atoms: C_11  and  N_19
REMARK    9  A    between atoms: C_13  and  O_15
REMARK   10  A    between atoms: C_16  and  O_18
REMARK   11  A    between atoms: C_29  and  O_30
REMARK                            x       y       z     vdW  Elec       q    Type
REMARK                         _______ _______ _______ _____ _____    ______ ____
ROOT
ATOM      1  C   UNL     1       8.324  -4.034  26.512  0.00  0.00    +0.000 C 
ATOM      2  C   UNL     1       8.733  -5.057  25.441  0.00  0.00    +0.000 C 
ATOM      3  C   UNL     1       8.681  -4.260  24.140  0.00  0.00    +0.000 C 
ATOM      4  C   UNL     1       8.257  -2.866  24.612  0.00  0.00    +0.000 C 
ATOM      5  O   UNL     1       8.608  -2.760  25.972  0.00  0.00    +0.000 OA
ENDROOT
BRANCH   4   6
ATOM      6  N   UNL     1       8.894  -1.801  23.835  0.00  0.00    +0.000 N 
ATOM      7  C   UNL     1       8.345  -0.655  23.411  0.00  0.00    +0.000 A 
ATOM      8  N   UNL     1       7.076  -0.221  23.601  0.00  0.00    +0.000 NA
ATOM      9  C   UNL     1       6.735   1.002  23.093  0.00  0.00    +0.000 A 
ATOM     10  N   UNL     1       7.659   1.757  22.417  0.00  0.00    +0.000 NA
ATOM     11  C   UNL     1       8.941   1.318  22.229  0.00  0.00    +0.000 A 
ATOM     12  N   UNL     1       9.879   2.118  21.537  0.00  0.00    +0.000 N 
ATOM     13  H   UNL     1      10.847   1.795  21.395  0.00  0.00    +0.000 HD
ATOM     14  H   UNL     1       9.604   3.042  21.174  0.00  0.00    +0.000 HD
ATOM     15  C   UNL     1       9.275   0.074  22.748  0.00  0.00    +0.000 A 
ATOM     16  N   UNL     1      10.448  -0.588  22.723  0.00  0.00    +0.000 NA
ATOM     17  C   UNL     1      10.181  -1.736  23.404  0.00  0.00    +0.000 A 
ENDBRANCH   4   6
BRANCH   2  18
ATOM     18  O   UNL     1      10.047  -5.513  25.674  0.00  0.00    +0.000 OA
ATOM     19  H   UNL     1      10.529  -5.556  24.805  0.00  0.00    +0.000 HD
ENDBRANCH   2  18
BRANCH   3  20
ATOM     20  O   UNL     1       7.762  -4.802  23.230  0.00  0.00    +0.000 OA
ATOM     21  H   UNL     1       8.297  -5.300  22.558  0.00  0.00    +0.000 HD
ENDBRANCH   3  20
BRANCH   1  22
ATOM     22  C   UNL     1       6.840  -4.136  26.942  0.00  0.00    +0.000 C 
BRANCH  22  23
ATOM     23 SE   UNL     1       6.400  -5.822  27.854  0.00  0.00    +0.000 Se
BRANCH  23  24
ATOM     24  C   UNL     1       4.921  -6.338  26.682  0.00  0.00    +0.000 C 
BRANCH  24  25
ATOM     25  C   UNL     1       5.004  -5.522  25.391  0.00  0.00    +0.000 C 
BRANCH  25  26
ATOM     26  CA  UNL     1       4.171  -6.120  24.233  0.00  0.00    +0.000 C 
BRANCH  26  27
ATOM     27  N   UNL     1       4.106  -7.584  24.288  0.00  0.00    +0.000 NA
ATOM     28  H1  UNL     1       3.152  -7.924  24.031  0.00  0.00    +0.000 HD
ATOM     29  H2  UNL     1       4.809  -8.010  23.642  0.00  0.00    +0.000 HD
ENDBRANCH  26  27
BRANCH  26  30
ATOM     30  C   UNL     1       4.757  -5.701  22.906  0.00  0.00    +0.000 C 
ATOM     31  OXT UNL     1       4.560  -4.571  22.490  0.00  0.00    +0.000 OA
BRANCH  30  32
ATOM     32  O   UNL     1       5.496  -6.556  22.162  0.00  0.00    +0.000 OA
ATOM     33  H   UNL     1       5.643  -6.423  21.216  0.00  0.00    +0.000 HD
ENDBRANCH  30  32
ENDBRANCH  26  30
ENDBRANCH  25  26
ENDBRANCH  24  25
ENDBRANCH  23  24
ENDBRANCH  22  23
ENDBRANCH   1  22
TORSDOF 11
ENDMDL
MODEL 5
REMARK VINA RESULT:      -6.7      5.469      8.853
REMARK  Name = 
REMARK  11 active torsions:
REMARK  status: ('A' for Active; 'I' for Inactive)
REMARK    1  A    between atoms: N_1  and  CA_2
REMARK    2  A    between atoms: CA_2  and  C_4
REMARK    3  A    between atoms: CA_2  and  C_29
REMARK    4  A    between atoms: C_4  and  C_5
REMARK    5  A    between atoms: C_5  and  SE_6
REMARK    6  A    between atoms: SE_6  and  C_7
REMARK    7  A    between atoms: C_7  and  C_8
REMARK    8  A    between atoms: C_11  and  N_19
REMARK    9  A    between atoms: C_13  and  O_15
REMARK   10  A    between atoms: C_16  and  O_18
REMARK   11  A    between atoms: C_29  and  O_30
REMARK                            x       y       z     vdW  Elec       q    Type
REMARK                         _______ _______ _______ _____ _____    ______ ____
ROOT
ATOM      1  C   UNL     1       6.016  -4.643  26.880  0.00  0.00    +0.000 C 
ATOM      2  C   UNL     1       7.194  -5.555  26.503  0.00  0.00    +0.000 C 
ATOM      3  C   UNL     1       8.055  -4.679  25.597  0.00  0.00    +0.000 C 
ATOM      4  C   UNL     1       7.278  -3.359  25.563  0.00  0.00    +0.000 C 
ATOM      5  O   UNL     1       6.474  -3.317  26.719  0.00  0.00    +0.000 OA
ENDROOT
BRANCH   4   6
ATOM      6  N   UNL     1       8.167  -2.195  25.516  0.00  0.00    +0.000 N 
ATOM      7  C   UNL     1       8.857  -1.734  24.465  0.00  0.00    +0.000 A 
ATOM      8  N   UNL     1       8.896  -2.239  23.209  0.00  0.00    +0.000 NA
ATOM      9  C   UNL     1       9.659  -1.588  22.281  0.00  0.00    +0.000 A 
ATOM     10  N   UNL     1      10.359  -0.458  22.623  0.00  0.00    +0.000 NA
ATOM     11  C   UNL     1      10.317   0.051  23.892  0.00  0.00    +0.000 A 
ATOM     12  N   UNL     1      11.037   1.222  24.219  0.00  0.00    +0.000 N 
ATOM     13  H   UNL     1      11.007   1.613  25.172  0.00  0.00    +0.000 HD
ATOM     14  H   UNL     1      11.597   1.704  23.500  0.00  0.00    +0.000 HD
ATOM     15  C   UNL     1       9.538  -0.619  24.827  0.00  0.00    +0.000 A 
ATOM     16  N   UNL     1       9.307  -0.337  26.123  0.00  0.00    +0.000 NA
ATOM     17  C   UNL     1       8.455  -1.324  26.518  0.00  0.00    +0.000 A 
ENDBRANCH   4   6
BRANCH   2  18
ATOM     18  O   UNL     1       7.922  -5.918  27.655  0.00  0.00    +0.000 OA
ATOM     19  H   UNL     1       8.882  -5.706  27.506  0.00  0.00    +0.000 HD
ENDBRANCH   2  18
BRANCH   3  20
ATOM     20  O   UNL     1       8.197  -5.231  24.316  0.00  0.00    +0.000 OA
ATOM     21  H   UNL     1       9.146  -5.095  24.058  0.00  0.00    +0.000 HD
ENDBRANCH   3  20
BRANCH   1  22
ATOM     22  C   UNL     1       4.737  -4.895  26.044  0.00  0.00    +0.000 C 
BRANCH  22  23
ATOM     23 SE   UNL     1       4.155  -6.773  26.043  0.00  0.00    +0.000 Se
BRANCH  23  24
ATOM     24  C   UNL     1       4.100  -6.994  24.100  0.00  0.00    +0.000 C 
BRANCH  24  25
ATOM     25  C   UNL     1       4.183  -5.616  23.441  0.00  0.00    +0.000 C 
BRANCH  25  26
ATOM     26  CA  UNL     1       5.167  -5.564  22.249  0.00  0.00    +0.000 C 
BRANCH  26  27
ATOM     27  N   UNL     1       6.188  -6.615  22.319  0.00  0.00    +0.000 NA
ATOM     28  H1  UNL     1       5.786  -7.543  22.053  0.00  0.00    +0.000 HD
ATOM     29  H2  UNL     1       6.990  -6.393  21.687  0.00  0.00    +0.000 HD
ENDBRANCH  26  27
BRANCH  26  30
ATOM     30  C   UNL     1       5.848  -4.217  22.200  0.00  0.00    +0.000 C 
ATOM     31  OXT UNL     1       5.204  -3.207  22.436  0.00  0.00    +0.000 OA
BRANCH  30  32
ATOM     32  O   UNL     1       7.162  -4.103  21.896  0.00  0.00    +0.000 OA
ATOM     33  H   UNL     1       7.468  -3.701  21.073  0.00  0.00    +0.000 HD
ENDBRANCH  30  32
ENDBRANCH  26  30
ENDBRANCH  25  26
ENDBRANCH  24  25
ENDBRANCH  23  24
ENDBRANCH  22  23
ENDBRANCH   1  22
TORSDOF 11
ENDMDL
MODEL 6
REMARK VINA RESULT:      -6.6      3.650      8.184
REMARK  Name = 
REMARK  11 active torsions:
REMARK  status: ('A' for Active; 'I' for Inactive)
REMARK    1  A    between atoms: N_1  and  CA_2
REMARK    2  A    between atoms: CA_2  and  C_4
REMARK    3  A    between atoms: CA_2  and  C_29
REMARK    4  A    between atoms: C_4  and  C_5
REMARK    5  A    between atoms: C_5  and  SE_6
REMARK    6  A    between atoms: SE_6  and  C_7
REMARK    7  A    between atoms: C_7  and  C_8
REMARK    8  A    between atoms: C_11  and  N_19
REMARK    9  A    between atoms: C_13  and  O_15
REMARK   10  A    between atoms: C_16  and  O_18
REMARK   11  A    between atoms: C_29  and  O_30
REMARK                            x       y       z     vdW  Elec       q    Type
REMARK                         _______ _______ _______ _____ _____    ______ ____
ROOT
ATOM      1  C   UNL     1       7.748  -1.893  23.641  0.00  0.00    +0.000 C 
ATOM      2  C   UNL     1       9.015  -2.321  22.884  0.00  0.00    +0.000 C 
ATOM      3  C   UNL     1       9.563  -1.010  22.325  0.00  0.00    +0.000 C 
ATOM      4  C   UNL     1       8.554   0.024  22.831  0.00  0.00    +0.000 C 
ATOM      5  O   UNL     1       7.920  -0.528  23.962  0.00  0.00    +0.000 OA
ENDROOT
BRANCH   4   6
ATOM      6  N   UNL     1       9.191   1.298  23.173  0.00  0.00    +0.000 N 
ATOM      7  C   UNL     1       8.632   2.515  23.189  0.00  0.00    +0.000 A 
ATOM      8  N   UNL     1       7.354   2.847  22.890  0.00  0.00    +0.000 NA
ATOM      9  C   UNL     1       6.993   4.161  22.996  0.00  0.00    +0.000 A 
ATOM     10  N   UNL     1       7.905   5.105  23.395  0.00  0.00    +0.000 NA
ATOM     11  C   UNL     1       9.196   4.766  23.699  0.00  0.00    +0.000 A 
ATOM     12  N   UNL     1      10.116   5.753  24.118  0.00  0.00    +0.000 N 
ATOM     13  H   UNL     1      11.089   5.505  24.352  0.00  0.00    +0.000 HD
ATOM     14  H   UNL     1       9.819   6.737  24.203  0.00  0.00    +0.000 HD
ATOM     15  C   UNL     1       9.551   3.428  23.588  0.00  0.00    +0.000 A 
ATOM     16  N   UNL     1      10.728   2.822  23.833  0.00  0.00    +0.000 NA
ATOM     17  C   UNL     1      10.472   1.510  23.573  0.00  0.00    +0.000 A 
ENDBRANCH   4   6
BRANCH   2  18
ATOM     18  O   UNL     1       9.948  -2.893  23.773  0.00  0.00    +0.000 OA
ATOM     19  H   UNL     1       9.461  -3.239  24.568  0.00  0.00    +0.000 HD
ENDBRANCH   2  18
BRANCH   3  20
ATOM     20  O   UNL     1       9.632  -1.026  20.924  0.00  0.00    +0.000 OA
ATOM     21  H   UNL     1       8.907  -0.430  20.603  0.00  0.00    +0.000 HD
ENDBRANCH   3  20
BRANCH   1  22
ATOM     22  C   UNL     1       6.438  -2.114  22.845  0.00  0.00    +0.000 C 
BRANCH  22  23
ATOM     23 SE   UNL     1       5.171  -3.324  23.738  0.00  0.00    +0.000 Se
BRANCH  23  24
ATOM     24  C   UNL     1       6.480  -4.677  24.268  0.00  0.00    +0.000 C 
BRANCH  24  25
ATOM     25  C   UNL     1       6.502  -4.775  25.795  0.00  0.00    +0.000 C 
BRANCH  25  26
ATOM     26  CA  UNL     1       7.657  -5.649  26.337  0.00  0.00    +0.000 C 
BRANCH  26  27
ATOM     27  N   UNL     1       7.521  -5.932  27.768  0.00  0.00    +0.000 NA
ATOM     28  H1  UNL     1       8.198  -6.670  28.068  0.00  0.00    +0.000 HD
ATOM     29  H2  UNL     1       7.682  -5.067  28.334  0.00  0.00    +0.000 HD
ENDBRANCH  26  27
BRANCH  26  30
ATOM     30  C   UNL     1       8.981  -4.965  26.093  0.00  0.00    +0.000 C 
ATOM     31  OXT UNL     1       9.185  -3.859  26.567  0.00  0.00    +0.000 OA
BRANCH  30  32
ATOM     32  O   UNL     1       9.951  -5.551  25.353  0.00  0.00    +0.000 OA
ATOM     33  H   UNL     1      10.712  -5.991  25.754  0.00  0.00    +0.000 HD
ENDBRANCH  30  32
ENDBRANCH  26  30
ENDBRANCH  25  26
ENDBRANCH  24  25
ENDBRANCH  23  24
ENDBRANCH  22  23
ENDBRANCH   1  22
TORSDOF 11
ENDMDL
MODEL 7
REMARK VINA RESULT:      -6.5      3.857      4.905
REMARK  Name = 
REMARK  11 active torsions:
REMARK  status: ('A' for Active; 'I' for Inactive)
REMARK    1  A    between atoms: N_1  and  CA_2
REMARK    2  A    between atoms: CA_2  and  C_4
REMARK    3  A    between atoms: CA_2  and  C_29
REMARK    4  A    between atoms: C_4  and  C_5
REMARK    5  A    between atoms: C_5  and  SE_6
REMARK    6  A    between atoms: SE_6  and  C_7
REMARK    7  A    between atoms: C_7  and  C_8
REMARK    8  A    between atoms: C_11  and  N_19
REMARK    9  A    between atoms: C_13  and  O_15
REMARK   10  A    between atoms: C_16  and  O_18
REMARK   11  A    between atoms: C_29  and  O_30
REMARK                            x       y       z     vdW  Elec       q    Type
REMARK                         _______ _______ _______ _____ _____    ______ ____
ROOT
ATOM      1  C   UNL     1       8.792  -0.373  23.046  0.00  0.00    +0.000 C 
ATOM      2  C   UNL     1       9.826  -1.486  22.809  0.00  0.00    +0.000 C 
ATOM      3  C   UNL     1       9.088  -2.758  23.218  0.00  0.00    +0.000 C 
ATOM      4  C   UNL     1       7.710  -2.233  23.634  0.00  0.00    +0.000 C 
ATOM      5  O   UNL     1       7.524  -0.993  22.994  0.00  0.00    +0.000 OA
ENDROOT
BRANCH   4   6
ATOM      6  N   UNL     1       6.634  -3.160  23.277  0.00  0.00    +0.000 N 
ATOM      7  C   UNL     1       6.212  -4.229  23.965  0.00  0.00    +0.000 A 
ATOM      8  N   UNL     1       6.684  -4.699  25.143  0.00  0.00    +0.000 NA
ATOM      9  C   UNL     1       6.082  -5.804  25.679  0.00  0.00    +0.000 A 
ATOM     10  N   UNL     1       5.032  -6.407  25.033  0.00  0.00    +0.000 NA
ATOM     11  C   UNL     1       4.555  -5.929  23.844  0.00  0.00    +0.000 A 
ATOM     12  N   UNL     1       3.466  -6.560  23.202  0.00  0.00    +0.000 N 
ATOM     13  H   UNL     1       3.099  -6.203  22.308  0.00  0.00    +0.000 HD
ATOM     14  H   UNL     1       3.020  -7.385  23.630  0.00  0.00    +0.000 HD
ATOM     15  C   UNL     1       5.175  -4.806  23.309  0.00  0.00    +0.000 A 
ATOM     16  N   UNL     1       4.907  -4.126  22.178  0.00  0.00    +0.000 NA
ATOM     17  C   UNL     1       5.820  -3.116  22.190  0.00  0.00    +0.000 A 
ENDBRANCH   4   6
BRANCH   2  18
ATOM     18  O   UNL     1      10.176  -1.549  21.445  0.00  0.00    +0.000 OA
ATOM     19  H   UNL     1      10.084  -0.642  21.049  0.00  0.00    +0.000 HD
ENDBRANCH   2  18
BRANCH   3  20
ATOM     20  O   UNL     1       9.731  -3.421  24.273  0.00  0.00    +0.000 OA
ATOM     21  H   UNL     1       9.323  -4.325  24.325  0.00  0.00    +0.000 HD
ENDBRANCH   3  20
BRANCH   1  22
ATOM     22  C   UNL     1       8.985   0.387  24.381  0.00  0.00    +0.000 C 
BRANCH  22  23
ATOM     23 SE   UNL     1       9.500   2.271  24.146  0.00  0.00    +0.000 Se
BRANCH  23  24
ATOM     24  C   UNL     1       8.626   2.533  22.415  0.00  0.00    +0.000 C 
BRANCH  24  25
ATOM     25  C   UNL     1       7.427   3.464  22.601  0.00  0.00    +0.000 C 
BRANCH  25  26
ATOM     26  CA  UNL     1       6.066   2.733  22.535  0.00  0.00    +0.000 C 
BRANCH  26  27
ATOM     27  N   UNL     1       4.975   3.618  22.117  0.00  0.00    +0.000 NA
ATOM     28  H1  UNL     1       5.214   4.618  22.303  0.00  0.00    +0.000 HD
ATOM     29  H2  UNL     1       4.770   3.497  21.099  0.00  0.00    +0.000 HD
ENDBRANCH  26  27
BRANCH  26  30
ATOM     30  C   UNL     1       5.732   2.140  23.883  0.00  0.00    +0.000 C 
ATOM     31  OXT UNL     1       5.723   2.855  24.872  0.00  0.00    +0.000 OA
BRANCH  30  32
ATOM     32  O   UNL     1       5.445   0.824  24.021  0.00  0.00    +0.000 OA
ATOM     33  H   UNL     1       5.793   0.293  24.749  0.00  0.00    +0.000 HD
ENDBRANCH  30  32
ENDBRANCH  26  30
ENDBRANCH  25  26
ENDBRANCH  24  25
ENDBRANCH  23  24
ENDBRANCH  22  23
ENDBRANCH   1  22
TORSDOF 11
ENDMDL
MODEL 8
REMARK VINA RESULT:      -6.4      1.989      2.384
REMARK  Name = 
REMARK  11 active torsions:
REMARK  status: ('A' for Active; 'I' for Inactive)
REMARK    1  A    between atoms: N_1  and  CA_2
REMARK    2  A    between atoms: CA_2  and  C_4
REMARK    3  A    between atoms: CA_2  and  C_29
REMARK    4  A    between atoms: C_4  and  C_5
REMARK    5  A    between atoms: C_5  and  SE_6
REMARK    6  A    between atoms: SE_6  and  C_7
REMARK    7  A    between atoms: C_7  and  C_8
REMARK    8  A    between atoms: C_11  and  N_19
REMARK    9  A    between atoms: C_13  and  O_15
REMARK   10  A    between atoms: C_16  and  O_18
REMARK   11  A    between atoms: C_29  and  O_30
REMARK                            x       y       z     vdW  Elec       q    Type
REMARK                         _______ _______ _______ _____ _____    ______ ____
ROOT
ATOM      1  C   UNL     1       8.971   2.019  22.331  0.00  0.00    +0.000 C 
ATOM      2  C   UNL     1       9.538   2.459  23.690  0.00  0.00    +0.000 C 
ATOM      3  C   UNL     1       9.345   1.232  24.577  0.00  0.00    +0.000 C 
ATOM      4  C   UNL     1       8.697   0.222  23.625  0.00  0.00    +0.000 C 
ATOM      5  O   UNL     1       9.034   0.608  22.313  0.00  0.00    +0.000 OA
ENDROOT
BRANCH   4   6
ATOM      6  N   UNL     1       9.142  -1.149  23.886  0.00  0.00    +0.000 N 
ATOM      7  C   UNL     1       8.690  -1.992  24.824  0.00  0.00    +0.000 A 
ATOM      8  N   UNL     1       7.725  -1.770  25.746  0.00  0.00    +0.000 NA
ATOM      9  C   UNL     1       7.408  -2.790  26.599  0.00  0.00    +0.000 A 
ATOM     10  N   UNL     1       8.055  -3.997  26.513  0.00  0.00    +0.000 NA
ATOM     11  C   UNL     1       9.029  -4.220  25.578  0.00  0.00    +0.000 A 
ATOM     12  N   UNL     1       9.674  -5.475  25.500  0.00  0.00    +0.000 N 
ATOM     13  H   UNL     1      10.406  -5.650  24.797  0.00  0.00    +0.000 HD
ATOM     14  H   UNL     1       9.411  -6.233  26.146  0.00  0.00    +0.000 HD
ATOM     15  C   UNL     1       9.342  -3.175  24.717  0.00  0.00    +0.000 A 
ATOM     16  N   UNL     1      10.235  -3.122  23.710  0.00  0.00    +0.000 NA
ATOM     17  C   UNL     1      10.084  -1.863  23.216  0.00  0.00    +0.000 A 
ENDBRANCH   4   6
BRANCH   2  18
ATOM     18  O   UNL     1      10.911   2.759  23.574  0.00  0.00    +0.000 OA
ATOM     19  H   UNL     1      11.178   3.333  24.341  0.00  0.00    +0.000 HD
ENDBRANCH   2  18
BRANCH   3  20
ATOM     20  O   UNL     1       8.524   1.507  25.680  0.00  0.00    +0.000 OA
ATOM     21  H   UNL     1       8.346   0.635  26.120  0.00  0.00    +0.000 HD
ENDBRANCH   3  20
BRANCH   1  22
ATOM     22  C   UNL     1       7.527   2.513  22.065  0.00  0.00    +0.000 C 
BRANCH  22  23
ATOM     23 SE   UNL     1       6.959   3.962  23.267  0.00  0.00    +0.000 Se
BRANCH  23  24
ATOM     24  C   UNL     1       7.333   5.438  22.040  0.00  0.00    +0.000 C 
BRANCH  24  25
ATOM     25  C   UNL     1       8.025   6.562  22.812  0.00  0.00    +0.000 C 
BRANCH  25  26
ATOM     26  CA  UNL     1       8.703   6.082  24.117  0.00  0.00    +0.000 C 
BRANCH  26  27
ATOM     27  N   UNL     1       8.286   6.863  25.285  0.00  0.00    +0.000 NA
ATOM     28  H1  UNL     1       8.963   6.743  26.074  0.00  0.00    +0.000 HD
ATOM     29  H2  UNL     1       8.214   7.878  25.045  0.00  0.00    +0.000 HD
ENDBRANCH  26  27
BRANCH  26  30
ATOM     30  C   UNL     1      10.205   6.163  23.979  0.00  0.00    +0.000 C 
ATOM     31  OXT UNL     1      10.866   6.672  24.870  0.00  0.00    +0.000 OA
BRANCH  30  32
ATOM     32  O   UNL     1      10.838   5.685  22.882  0.00  0.00    +0.000 OA
ATOM     33  H   UNL     1      11.141   6.261  22.169  0.00  0.00    +0.000 HD
ENDBRANCH  30  32
ENDBRANCH  26  30
ENDBRANCH  25  26
ENDBRANCH  24  25
ENDBRANCH  23  24
ENDBRANCH  22  23
ENDBRANCH   1  22
TORSDOF 11
ENDMDL
MODEL 9
REMARK VINA RESULT:      -6.3      3.468      8.475
REMARK  Name = 
REMARK  11 active torsions:
REMARK  status: ('A' for Active; 'I' for Inactive)
REMARK    1  A    between atoms: N_1  and  CA_2
REMARK    2  A    between atoms: CA_2  and  C_4
REMARK    3  A    between atoms: CA_2  and  C_29
REMARK    4  A    between atoms: C_4  and  C_5
REMARK    5  A    between atoms: C_5  and  SE_6
REMARK    6  A    between atoms: SE_6  and  C_7
REMARK    7  A    between atoms: C_7  and  C_8
REMARK    8  A    between atoms: C_11  and  N_19
REMARK    9  A    between atoms: C_13  and  O_15
REMARK   10  A    between atoms: C_16  and  O_18
REMARK   11  A    between atoms: C_29  and  O_30
REMARK                            x       y       z     vdW  Elec       q    Type
REMARK                         _______ _______ _______ _____ _____    ______ ____
ROOT
ATOM      1  C   UNL     1       8.781  -2.243  24.493  0.00  0.00    +0.000 C 
ATOM      2  C   UNL     1       7.590  -2.021  23.547  0.00  0.00    +0.000 C 
ATOM      3  C   UNL     1       7.443  -0.502  23.500  0.00  0.00    +0.000 C 
ATOM      4  C   UNL     1       8.572  -0.023  24.417  0.00  0.00    +0.000 C 
ATOM      5  O   UNL     1       9.536  -1.050  24.466  0.00  0.00    +0.000 OA
ENDROOT
BRANCH   4   6
ATOM      6  N   UNL     1       9.177   1.224  23.944  0.00  0.00    +0.000 N 
ATOM      7  C   UNL     1       8.931   2.468  24.373  0.00  0.00    +0.000 A 
ATOM      8  N   UNL     1       8.064   2.859  25.338  0.00  0.00    +0.000 NA
ATOM      9  C   UNL     1       7.991   4.192  25.630  0.00  0.00    +0.000 A 
ATOM     10  N   UNL     1       8.775   5.097  24.961  0.00  0.00    +0.000 NA
ATOM     11  C   UNL     1       9.651   4.700  23.988  0.00  0.00    +0.000 A 
ATOM     12  N   UNL     1      10.458   5.648  23.318  0.00  0.00    +0.000 N 
ATOM     13  H   UNL     1      11.122   5.356  22.587  0.00  0.00    +0.000 HD
ATOM     14  H   UNL     1      10.394   6.647  23.563  0.00  0.00    +0.000 HD
ATOM     15  C   UNL     1       9.718   3.342  23.699  0.00  0.00    +0.000 A 
ATOM     16  N   UNL     1      10.488   2.682  22.814  0.00  0.00    +0.000 NA
ATOM     17  C   UNL     1      10.135   1.380  22.992  0.00  0.00    +0.000 A 
ENDBRANCH   4   6
BRANCH   2  18
ATOM     18  O   UNL     1       7.885  -2.517  22.260  0.00  0.00    +0.000 OA
ATOM     19  H   UNL     1       8.862  -2.422  22.098  0.00  0.00    +0.000 HD
ENDBRANCH   2  18
BRANCH   3  20
ATOM     20  O   UNL     1       6.186  -0.083  23.960  0.00  0.00    +0.000 OA
ATOM     21  H   UNL     1       6.184  -0.235  24.941  0.00  0.00    +0.000 HD
ENDBRANCH   3  20
BRANCH   1  22
ATOM     22  C   UNL     1       8.371  -2.609  25.940  0.00  0.00    +0.000 C 
BRANCH  22  23
ATOM     23 SE   UNL     1       6.510  -3.223  26.099  0.00  0.00    +0.000 Se
BRANCH  23  24
ATOM     24  C   UNL     1       6.844  -5.092  25.627  0.00  0.00    +0.000 C 
BRANCH  24  25
ATOM     25  C   UNL     1       5.688  -5.599  24.763  0.00  0.00    +0.000 C 
BRANCH  25  26
ATOM     26  CA  UNL     1       6.059  -5.749  23.269  0.00  0.00    +0.000 C 
BRANCH  26  27
ATOM     27  N   UNL     1       7.472  -5.457  23.010  0.00  0.00    +0.000 NA
ATOM     28  H1  UNL     1       7.951  -5.135  23.882  0.00  0.00    +0.000 HD
ATOM     29  H2  UNL     1       7.962  -6.302  22.640  0.00  0.00    +0.000 HD
ENDBRANCH  26  27
BRANCH  26  30
ATOM     30  C   UNL     1       5.203  -4.830  22.430  0.00  0.00    +0.000 C 
ATOM     31  OXT UNL     1       4.037  -4.642  22.740  0.00  0.00    +0.000 OA
BRANCH  30  32
ATOM     32  O   UNL     1       5.700  -4.209  21.335  0.00  0.00    +0.000 OA
ATOM     33  H   UNL     1       6.356  -4.623  20.760  0.00  0.00    +0.000 HD
ENDBRANCH  30  32
ENDBRANCH  26  30
ENDBRANCH  25  26
ENDBRANCH  24  25
ENDBRANCH  23  24
ENDBRANCH  22  23
ENDBRANCH   1  22
TORSDOF 11
ENDMDL
