MODEL 1
REMARK VINA RESULT:      -7.0      0.000      0.000
REMARK  Name = 
REMARK  1 active torsions:
REMARK  status: ('A' for Active; 'I' for Inactive)
REMARK    1  A    between atoms: C_2  and  C_14
REMARK                            x       y       z     vdW  Elec       q    Type
REMARK                         _______ _______ _______ _____ _____    ______ ____
ROOT
ATOM      1  C   UNL     1      10.546   1.772  23.697  0.00  0.00    +0.118 C 
ATOM      2  N   UNL     1       9.879   1.227  24.897  0.00  0.00    -0.330 N 
ATOM      3  H   UNL     1       9.033   1.722  25.173  0.00  0.00    +0.147 HD
ATOM      4  C   UNL     1       9.569  -0.161  24.768  0.00  0.00    +0.108 A 
ATOM      5  C   UNL     1       9.037  -0.881  25.833  0.00  0.00    +0.144 A 
ATOM      6  N   UNL     1       8.764  -2.191  25.778  0.00  0.00    -0.198 NA
ATOM      7  C   UNL     1       9.040  -2.808  24.626  0.00  0.00    +0.216 A 
ATOM      8  N   UNL     1       9.469  -2.213  23.510  0.00  0.00    -0.198 NA
ATOM      9  N   UNL     1       8.835  -4.172  24.573  0.00  0.00    -0.327 N 
ATOM     10  H   UNL     1       8.683  -4.462  23.618  0.00  0.00    +0.145 HD
ATOM     11  H   UNL     1       8.158  -4.450  25.268  0.00  0.00    +0.145 HD
ATOM     12  N   UNL     1       8.693  -0.215  27.023  0.00  0.00    -0.341 N 
ATOM     13  H   UNL     1       8.443  -0.920  27.708  0.00  0.00    +0.144 HD
ATOM     14  H   UNL     1       9.475   0.369  27.314  0.00  0.00    +0.144 HD
ATOM     15  C   UNL     1       9.733  -0.902  23.591  0.00  0.00    +0.147 A 
ATOM     16  N   UNL     1      10.199  -0.295  22.415  0.00  0.00    -0.325 N 
ATOM     17  H   UNL     1       9.958  -0.856  21.606  0.00  0.00    +0.148 HD
ATOM     18  C   UNL     1       9.979   1.148  22.390  0.00  0.00    +0.130 C 
ENDROOT
BRANCH   1  19
ATOM     19  C   UNL     1      10.502   3.288  23.689  0.00  0.00    -0.026 A 
ATOM     20  C   UNL     1       9.305   3.945  24.027  0.00  0.00    +0.005 A 
ATOM     21  C   UNL     1       9.245   5.338  24.088  0.00  0.00    +0.000 A 
ATOM     22  C   UNL     1      10.377   6.095  23.802  0.00  0.00    +0.000 A 
ATOM     23  C   UNL     1      11.568   5.460  23.450  0.00  0.00    +0.000 A 
ATOM     24  C   UNL     1      11.632   4.066  23.393  0.00  0.00    +0.005 A 
ENDBRANCH   1  19
TORSDOF 1
ENDMDL
MODEL 2
REMARK VINA RESULT:      -7.0      2.019      6.946
REMARK  Name = 
REMARK  1 active torsions:
REMARK  status: ('A' for Active; 'I' for Inactive)
REMARK    1  A    between atoms: C_2  and  C_14
REMARK                            x       y       z     vdW  Elec       q    Type
REMARK                         _______ _______ _______ _____ _____    ______ ____
ROOT
ATOM      1  C   UNL     1       9.074  -2.000  25.165  0.00  0.00    +0.118 C 
ATOM      2  N   UNL     1       9.123  -1.651  23.730  0.00  0.00    -0.330 N 
ATOM      3  H   UNL     1       8.255  -1.819  23.224  0.00  0.00    +0.147 HD
ATOM      4  C   UNL     1       9.519  -0.297  23.510  0.00  0.00    +0.108 A 
ATOM      5  C   UNL     1       9.729   0.190  22.224  0.00  0.00    +0.144 A 
ATOM      6  N   UNL     1      10.139   1.439  21.962  0.00  0.00    -0.198 NA
ATOM      7  C   UNL     1      10.357   2.226  23.020  0.00  0.00    +0.216 A 
ATOM      8  N   UNL     1      10.111   1.904  24.292  0.00  0.00    -0.198 NA
ATOM      9  N   UNL     1      10.850   3.492  22.775  0.00  0.00    -0.327 N 
ATOM     10  H   UNL     1      10.607   4.110  23.536  0.00  0.00    +0.145 HD
ATOM     11  H   UNL     1      10.620   3.780  21.836  0.00  0.00    +0.145 HD
ATOM     12  N   UNL     1       9.441  -0.624  21.114  0.00  0.00    -0.341 N 
ATOM     13  H   UNL     1       9.772  -0.140  20.285  0.00  0.00    +0.144 HD
ATOM     14  H   UNL     1       9.876  -1.535  21.249  0.00  0.00    +0.144 HD
ATOM     15  C   UNL     1       9.700   0.650  24.526  0.00  0.00    +0.147 A 
ATOM     16  N   UNL     1       9.462   0.321  25.869  0.00  0.00    -0.325 N 
ATOM     17  H   UNL     1       9.320   1.160  26.420  0.00  0.00    +0.148 HD
ATOM     18  C   UNL     1       8.559  -0.814  26.028  0.00  0.00    +0.130 C 
ENDROOT
BRANCH   1  19
ATOM     19  C   UNL     1       8.284  -3.275  25.390  0.00  0.00    -0.026 A 
ATOM     20  C   UNL     1       8.499  -4.022  26.562  0.00  0.00    +0.005 A 
ATOM     21  C   UNL     1       7.748  -5.167  26.830  0.00  0.00    +0.000 A 
ATOM     22  C   UNL     1       6.778  -5.588  25.925  0.00  0.00    +0.000 A 
ATOM     23  C   UNL     1       6.563  -4.868  24.751  0.00  0.00    +0.000 A 
ATOM     24  C   UNL     1       7.309  -3.719  24.483  0.00  0.00    +0.005 A 
ENDBRANCH   1  19
TORSDOF 1
ENDMDL
MODEL 3
REMARK VINA RESULT:      -6.8      2.474      6.640
REMARK  Name = 
REMARK  1 active torsions:
REMARK  status: ('A' for Active; 'I' for Inactive)
REMARK    1  A    between atoms: C_2  and  C_14
REMARK                            x       y       z     vdW  Elec       q    Type
REMARK                         _______ _______ _______ _____ _____    ______ ____
ROOT
ATOM      1  C   UNL     1       7.918  -1.588  22.443  0.00  0.00    +0.118 C 
ATOM      2  N   UNL     1       8.044  -0.800  23.686  0.00  0.00    -0.330 N 
ATOM      3  H   UNL     1       8.392  -1.324  24.486  0.00  0.00    +0.147 HD
ATOM      4  C   UNL     1       8.861   0.360  23.517  0.00  0.00    +0.108 A 
ATOM      5  C   UNL     1       9.013   1.287  24.543  0.00  0.00    +0.144 A 
ATOM      6  N   UNL     1       9.734   2.410  24.426  0.00  0.00    -0.198 NA
ATOM      7  C   UNL     1      10.316   2.621  23.242  0.00  0.00    +0.216 A 
ATOM      8  N   UNL     1      10.317   1.769  22.214  0.00  0.00    -0.198 NA
ATOM      9  N   UNL     1      11.003   3.807  23.077  0.00  0.00    -0.327 N 
ATOM     10  H   UNL     1      11.704   3.704  22.358  0.00  0.00    +0.145 HD
ATOM     11  H   UNL     1      11.291   4.171  23.973  0.00  0.00    +0.145 HD
ATOM     12  N   UNL     1       8.447   1.031  25.805  0.00  0.00    -0.341 N 
ATOM     13  H   UNL     1       8.561   1.867  26.368  0.00  0.00    +0.144 HD
ATOM     14  H   UNL     1       7.473   0.758  25.683  0.00  0.00    +0.144 HD
ATOM     15  C   UNL     1       9.589   0.653  22.358  0.00  0.00    +0.147 A 
ATOM     16  N   UNL     1       9.585  -0.224  21.262  0.00  0.00    -0.325 N 
ATOM     17  H   UNL     1      10.383  -0.046  20.662  0.00  0.00    +0.148 HD
ATOM     18  C   UNL     1       9.243  -1.594  21.628  0.00  0.00    +0.130 C 
ENDROOT
BRANCH   1  19
ATOM     19  C   UNL     1       7.402  -2.984  22.732  0.00  0.00    -0.026 A 
ATOM     20  C   UNL     1       6.382  -3.523  21.928  0.00  0.00    +0.005 A 
ATOM     21  C   UNL     1       5.924  -4.826  22.128  0.00  0.00    +0.000 A 
ATOM     22  C   UNL     1       6.473  -5.606  23.141  0.00  0.00    +0.000 A 
ATOM     23  C   UNL     1       7.474  -5.083  23.958  0.00  0.00    +0.000 A 
ATOM     24  C   UNL     1       7.937  -3.781  23.757  0.00  0.00    +0.005 A 
ENDBRANCH   1  19
TORSDOF 1
ENDMDL
MODEL 4
REMARK VINA RESULT:      -6.8      2.994      7.176
REMARK  Name = 
REMARK  1 active torsions:
REMARK  status: ('A' for Active; 'I' for Inactive)
REMARK    1  A    between atoms: C_2  and  C_14
REMARK                            x       y       z     vdW  Elec       q    Type
REMARK                         _______ _______ _______ _____ _____    ______ ____
ROOT
ATOM      1  C   UNL     1       8.089  -3.181  23.814  0.00  0.00    +0.118 C 
ATOM      2  N   UNL     1       7.327  -1.918  23.742  0.00  0.00    -0.330 N 
ATOM      3  H   UNL     1       6.926  -1.614  24.627  0.00  0.00    +0.147 HD
ATOM      4  C   UNL     1       8.100  -0.843  23.205  0.00  0.00    +0.108 A 
ATOM      5  C   UNL     1       7.528   0.400  22.957  0.00  0.00    +0.144 A 
ATOM      6  N   UNL     1       8.196   1.429  22.418  0.00  0.00    -0.198 NA
ATOM      7  C   UNL     1       9.476   1.208  22.107  0.00  0.00    +0.216 A 
ATOM      8  N   UNL     1      10.159   0.092  22.375  0.00  0.00    -0.198 NA
ATOM      9  N   UNL     1      10.162   2.232  21.485  0.00  0.00    -0.327 N 
ATOM     10  H   UNL     1      11.153   2.137  21.653  0.00  0.00    +0.145 HD
ATOM     11  H   UNL     1       9.728   3.119  21.692  0.00  0.00    +0.145 HD
ATOM     12  N   UNL     1       6.197   0.645  23.341  0.00  0.00    -0.341 N 
ATOM     13  H   UNL     1       5.932   1.551  22.968  0.00  0.00    +0.144 HD
ATOM     14  H   UNL     1       5.609  -0.116  23.004  0.00  0.00    +0.144 HD
ATOM     15  C   UNL     1       9.468  -0.921  22.914  0.00  0.00    +0.147 A 
ATOM     16  N   UNL     1      10.195  -2.092  23.173  0.00  0.00    -0.325 N 
ATOM     17  H   UNL     1      11.188  -1.892  23.219  0.00  0.00    +0.148 HD
ATOM     18  C   UNL     1       9.577  -2.936  24.191  0.00  0.00    +0.130 C 
ENDROOT
BRANCH   1  19
ATOM     19  C   UNL     1       7.408  -4.177  24.733  0.00  0.00    -0.026 A 
ATOM     20  C   UNL     1       7.924  -4.389  26.024  0.00  0.00    +0.005 A 
ATOM     21  C   UNL     1       7.289  -5.253  26.917  0.00  0.00    +0.000 A 
ATOM     22  C   UNL     1       6.134  -5.925  26.529  0.00  0.00    +0.000 A 
ATOM     23  C   UNL     1       5.617  -5.738  25.248  0.00  0.00    +0.000 A 
ATOM     24  C   UNL     1       6.248  -4.871  24.354  0.00  0.00    +0.005 A 
ENDBRANCH   1  19
TORSDOF 1
ENDMDL
MODEL 5
REMARK VINA RESULT:      -6.8      2.750      4.632
REMARK  Name = 
REMARK  1 active torsions:
REMARK  status: ('A' for Active; 'I' for Inactive)
REMARK    1  A    between atoms: C_2  and  C_14
REMARK                            x       y       z     vdW  Elec       q    Type
REMARK                         _______ _______ _______ _____ _____    ______ ____
ROOT
ATOM      1  C   UNL     1       8.159  -2.104  23.727  0.00  0.00    +0.118 C 
ATOM      2  N   UNL     1       8.767  -2.946  24.778  0.00  0.00    -0.330 N 
ATOM      3  H   UNL     1       9.182  -2.427  25.549  0.00  0.00    +0.147 HD
ATOM      4  C   UNL     1       7.847  -3.896  25.317  0.00  0.00    +0.108 A 
ATOM      5  C   UNL     1       8.259  -4.851  26.241  0.00  0.00    +0.144 A 
ATOM      6  N   UNL     1       7.449  -5.790  26.748  0.00  0.00    -0.198 NA
ATOM      7  C   UNL     1       6.186  -5.782  26.313  0.00  0.00    +0.216 A 
ATOM      8  N   UNL     1       5.650  -4.869  25.499  0.00  0.00    -0.198 NA
ATOM      9  N   UNL     1       5.354  -6.784  26.768  0.00  0.00    -0.327 N 
ATOM     10  H   UNL     1       4.391  -6.483  26.722  0.00  0.00    +0.145 HD
ATOM     11  H   UNL     1       5.696  -7.152  27.643  0.00  0.00    +0.145 HD
ATOM     12  N   UNL     1       9.574  -4.817  26.740  0.00  0.00    -0.341 N 
ATOM     13  H   UNL     1       9.712  -5.655  27.296  0.00  0.00    +0.144 HD
ATOM     14  H   UNL     1      10.224  -4.741  25.959  0.00  0.00    +0.144 HD
ATOM     15  C   UNL     1       6.482  -3.941  25.007  0.00  0.00    +0.147 A 
ATOM     16  N   UNL     1       5.909  -2.999  24.139  0.00  0.00    -0.325 N 
ATOM     17  H   UNL     1       4.904  -2.961  24.269  0.00  0.00    +0.148 HD
ATOM     18  C   UNL     1       6.677  -1.761  24.050  0.00  0.00    +0.130 C 
ENDROOT
BRANCH   1  19
ATOM     19  C   UNL     1       9.000  -0.871  23.461  0.00  0.00    -0.026 A 
ATOM     20  C   UNL     1       8.974  -0.279  22.186  0.00  0.00    +0.005 A 
ATOM     21  C   UNL     1       9.689   0.890  21.923  0.00  0.00    +0.000 A 
ATOM     22  C   UNL     1      10.449   1.480  22.928  0.00  0.00    +0.000 A 
ATOM     23  C   UNL     1      10.499   0.898  24.195  0.00  0.00    +0.000 A 
ATOM     24  C   UNL     1       9.781  -0.270  24.462  0.00  0.00    +0.005 A 
ENDBRANCH   1  19
TORSDOF 1
ENDMDL
MODEL 6
REMARK VINA RESULT:      -6.7      1.895      2.680
REMARK  Name = 
REMARK  1 active torsions:
REMARK  status: ('A' for Active; 'I' for Inactive)
REMARK    1  A    between atoms: C_2  and  C_14
REMARK                            x       y       z     vdW  Elec       q    Type
REMARK                         _______ _______ _______ _____ _____    ______ ____
ROOT
ATOM      1  C   UNL     1       9.215   0.157  23.758  0.00  0.00    +0.118 C 
ATOM      2  N   UNL     1       8.389  -0.523  24.777  0.00  0.00    -0.330 N 
ATOM      3  H   UNL     1       7.385  -0.456  24.622  0.00  0.00    +0.147 HD
ATOM      4  C   UNL     1       8.731  -1.901  24.927  0.00  0.00    +0.108 A 
ATOM      5  C   UNL     1       8.141  -2.685  25.913  0.00  0.00    +0.144 A 
ATOM      6  N   UNL     1       8.453  -3.971  26.124  0.00  0.00    -0.198 NA
ATOM      7  C   UNL     1       9.394  -4.490  25.331  0.00  0.00    +0.216 A 
ATOM      8  N   UNL     1       9.970  -3.870  24.298  0.00  0.00    -0.198 NA
ATOM      9  N   UNL     1       9.782  -5.792  25.579  0.00  0.00    -0.327 N 
ATOM     10  H   UNL     1      10.162  -6.206  24.739  0.00  0.00    +0.145 HD
ATOM     11  H   UNL     1       9.050  -6.288  26.064  0.00  0.00    +0.145 HD
ATOM     12  N   UNL     1       7.110  -2.149  26.706  0.00  0.00    -0.341 N 
ATOM     13  H   UNL     1       6.900  -2.824  27.434  0.00  0.00    +0.144 HD
ATOM     14  H   UNL     1       7.405  -1.244  27.069  0.00  0.00    +0.144 HD
ATOM     15  C   UNL     1       9.638  -2.585  24.109  0.00  0.00    +0.147 A 
ATOM     16  N   UNL     1      10.265  -1.941  23.031  0.00  0.00    -0.325 N 
ATOM     17  H   UNL     1      10.618  -2.621  22.367  0.00  0.00    +0.148 HD
ATOM     18  C   UNL     1       9.527  -0.776  22.554  0.00  0.00    +0.130 C 
ENDROOT
BRANCH   1  19
ATOM     19  C   UNL     1       8.586   1.470  23.334  0.00  0.00    -0.026 A 
ATOM     20  C   UNL     1       9.092   2.676  23.851  0.00  0.00    +0.005 A 
ATOM     21  C   UNL     1       8.577   3.906  23.438  0.00  0.00    +0.000 A 
ATOM     22  C   UNL     1       7.542   3.947  22.508  0.00  0.00    +0.000 A 
ATOM     23  C   UNL     1       7.019   2.761  21.996  0.00  0.00    +0.000 A 
ATOM     24  C   UNL     1       7.535   1.529  22.404  0.00  0.00    +0.005 A 
ENDBRANCH   1  19
TORSDOF 1
ENDMDL
MODEL 7
REMARK VINA RESULT:      -6.7      2.923      7.193
REMARK  Name = 
REMARK  1 active torsions:
REMARK  status: ('A' for Active; 'I' for Inactive)
REMARK    1  A    between atoms: C_2  and  C_14
REMARK                            x       y       z     vdW  Elec       q    Type
REMARK                         _______ _______ _______ _____ _____    ______ ____
ROOT
ATOM      1  C   UNL     1       8.146  -2.773  22.615  0.00  0.00    +0.118 C 
ATOM      2  N   UNL     1       7.374  -1.513  22.615  0.00  0.00    -0.330 N 
ATOM      3  H   UNL     1       6.658  -1.455  23.337  0.00  0.00    +0.147 HD
ATOM      4  C   UNL     1       8.211  -0.360  22.716  0.00  0.00    +0.108 A 
ATOM      5  C   UNL     1       7.681   0.923  22.624  0.00  0.00    +0.144 A 
ATOM      6  N   UNL     1       8.424   2.037  22.672  0.00  0.00    -0.198 NA
ATOM      7  C   UNL     1       9.742   1.866  22.807  0.00  0.00    +0.216 A 
ATOM      8  N   UNL     1      10.359   0.696  22.992  0.00  0.00    -0.198 NA
ATOM      9  N   UNL     1      10.532   2.997  22.785  0.00  0.00    -0.327 N 
ATOM     10  H   UNL     1      11.399   2.824  23.274  0.00  0.00    +0.145 HD
ATOM     11  H   UNL     1       9.991   3.806  23.051  0.00  0.00    +0.145 HD
ATOM     12  N   UNL     1       6.288   1.098  22.541  0.00  0.00    -0.341 N 
ATOM     13  H   UNL     1       6.113   2.081  22.360  0.00  0.00    +0.144 HD
ATOM     14  H   UNL     1       5.918   0.483  21.818  0.00  0.00    +0.144 HD
ATOM     15  C   UNL     1       9.593  -0.402  22.940  0.00  0.00    +0.147 A 
ATOM     16  N   UNL     1      10.258  -1.625  23.119  0.00  0.00    -0.325 N 
ATOM     17  H   UNL     1      11.149  -1.480  23.580  0.00  0.00    +0.148 HD
ATOM     18  C   UNL     1       9.374  -2.696  23.566  0.00  0.00    +0.130 C 
ENDROOT
BRANCH   1  19
ATOM     19  C   UNL     1       7.250  -3.961  22.909  0.00  0.00    -0.026 A 
ATOM     20  C   UNL     1       6.580  -4.030  24.144  0.00  0.00    +0.005 A 
ATOM     21  C   UNL     1       5.702  -5.078  24.425  0.00  0.00    +0.000 A 
ATOM     22  C   UNL     1       5.489  -6.077  23.480  0.00  0.00    +0.000 A 
ATOM     23  C   UNL     1       6.157  -6.032  22.257  0.00  0.00    +0.000 A 
ATOM     24  C   UNL     1       7.032  -4.982  21.971  0.00  0.00    +0.005 A 
ENDBRANCH   1  19
TORSDOF 1
ENDMDL
MODEL 8
REMARK VINA RESULT:      -6.7      3.452      5.574
REMARK  Name = 
REMARK  1 active torsions:
REMARK  status: ('A' for Active; 'I' for Inactive)
REMARK    1  A    between atoms: C_2  and  C_14
REMARK                            x       y       z     vdW  Elec       q    Type
REMARK                         _______ _______ _______ _____ _____    ______ ____
ROOT
ATOM      1  C   UNL     1       9.064  -2.894  25.359  0.00  0.00    +0.118 C 
ATOM      2  N   UNL     1       7.666  -2.749  25.813  0.00  0.00    -0.330 N 
ATOM      3  H   UNL     1       6.989  -2.608  25.066  0.00  0.00    +0.147 HD
ATOM      4  C   UNL     1       7.233  -3.852  26.611  0.00  0.00    +0.108 A 
ATOM      5  C   UNL     1       5.984  -3.850  27.222  0.00  0.00    +0.144 A 
ATOM      6  N   UNL     1       5.544  -4.839  28.012  0.00  0.00    -0.198 NA
ATOM      7  C   UNL     1       6.382  -5.861  28.206  0.00  0.00    +0.216 A 
ATOM      8  N   UNL     1       7.566  -6.019  27.609  0.00  0.00    -0.198 NA
ATOM      9  N   UNL     1       5.977  -6.856  29.073  0.00  0.00    -0.327 N 
ATOM     10  H   UNL     1       6.451  -7.720  28.854  0.00  0.00    +0.145 HD
ATOM     11  H   UNL     1       4.971  -6.870  29.143  0.00  0.00    +0.145 HD
ATOM     12  N   UNL     1       5.083  -2.801  26.967  0.00  0.00    -0.341 N 
ATOM     13  H   UNL     1       4.292  -2.917  27.591  0.00  0.00    +0.144 HD
ATOM     14  H   UNL     1       5.566  -1.912  27.090  0.00  0.00    +0.144 HD
ATOM     15  C   UNL     1       7.981  -5.016  26.824  0.00  0.00    +0.147 A 
ATOM     16  N   UNL     1       9.235  -5.189  26.217  0.00  0.00    -0.325 N 
ATOM     17  H   UNL     1       9.489  -6.170  26.199  0.00  0.00    +0.148 HD
ATOM     18  C   UNL     1       9.409  -4.372  25.021  0.00  0.00    +0.130 C 
ENDROOT
BRANCH   1  19
ATOM     19  C   UNL     1       9.367  -1.945  24.215  0.00  0.00    -0.026 A 
ATOM     20  C   UNL     1       8.980  -2.294  22.909  0.00  0.00    +0.005 A 
ATOM     21  C   UNL     1       9.189  -1.420  21.841  0.00  0.00    +0.000 A 
ATOM     22  C   UNL     1       9.797  -0.188  22.063  0.00  0.00    +0.000 A 
ATOM     23  C   UNL     1      10.201   0.168  23.349  0.00  0.00    +0.000 A 
ATOM     24  C   UNL     1       9.988  -0.703  24.419  0.00  0.00    +0.005 A 
ENDBRANCH   1  19
TORSDOF 1
ENDMDL
MODEL 9
REMARK VINA RESULT:      -6.3      1.821      2.901
REMARK  Name = 
REMARK  1 active torsions:
REMARK  status: ('A' for Active; 'I' for Inactive)
REMARK    1  A    between atoms: C_2  and  C_14
REMARK                            x       y       z     vdW  Elec       q    Type
REMARK                         _______ _______ _______ _____ _____    ______ ____
ROOT
ATOM      1  C   UNL     1       8.721   2.392  23.629  0.00  0.00    +0.118 C 
ATOM      2  N   UNL     1       9.228   1.311  22.760  0.00  0.00    -0.330 N 
ATOM      3  H   UNL     1      10.227   1.135  22.842  0.00  0.00    +0.147 HD
ATOM      4  C   UNL     1       8.536   0.078  22.962  0.00  0.00    +0.108 A 
ATOM      5  C   UNL     1       8.794  -1.031  22.162  0.00  0.00    +0.144 A 
ATOM      6  N   UNL     1       8.147  -2.198  22.282  0.00  0.00    -0.198 NA
ATOM      7  C   UNL     1       7.203  -2.259  23.225  0.00  0.00    +0.216 A 
ATOM      8  N   UNL     1       6.923  -1.297  24.108  0.00  0.00    -0.198 NA
ATOM      9  N   UNL     1       6.475  -3.428  23.316  0.00  0.00    -0.327 N 
ATOM     10  H   UNL     1       6.102  -3.532  24.249  0.00  0.00    +0.145 HD
ATOM     11  H   UNL     1       6.998  -4.197  22.925  0.00  0.00    +0.145 HD
ATOM     12  N   UNL     1       9.829  -0.979  21.212  0.00  0.00    -0.341 N 
ATOM     13  H   UNL     1       9.778  -1.826  20.655  0.00  0.00    +0.144 HD
ATOM     14  H   UNL     1       9.731  -0.129  20.659  0.00  0.00    +0.144 HD
ATOM     15  C   UNL     1       7.585  -0.141  23.967  0.00  0.00    +0.147 A 
ATOM     16  N   UNL     1       7.268   0.866  24.891  0.00  0.00    -0.325 N 
ATOM     17  H   UNL     1       6.834   0.467  25.716  0.00  0.00    +0.148 HD
ATOM     18  C   UNL     1       8.324   1.862  25.036  0.00  0.00    +0.130 C 
ENDROOT
BRANCH   1  19
ATOM     19  C   UNL     1       9.703   3.546  23.693  0.00  0.00    -0.026 A 
ATOM     20  C   UNL     1      11.036   3.340  23.297  0.00  0.00    +0.005 A 
ATOM     21  C   UNL     1      11.953   4.393  23.287  0.00  0.00    +0.000 A 
ATOM     22  C   UNL     1      11.551   5.665  23.682  0.00  0.00    +0.000 A 
ATOM     23  C   UNL     1      10.237   5.884  24.093  0.00  0.00    +0.000 A 
ATOM     24  C   UNL     1       9.317   4.834  24.099  0.00  0.00    +0.005 A 
ENDBRANCH   1  19
TORSDOF 1
ENDMDL
