MODEL 1
REMARK VINA RESULT:      -4.8      0.000      0.000
REMARK  Name = 
REMARK  4 active torsions:
REMARK  status: ('A' for Active; 'I' for Inactive)
REMARK    1  A    between atoms: C_1  and  C_2
REMARK    2  A    between atoms: C_2  and  C_3
REMARK    3  A    between atoms: C_7  and  C_9
REMARK    4  A    between atoms: C_9  and  N_10
REMARK                            x       y       z     vdW  Elec       q    Type
REMARK                         _______ _______ _______ _____ _____    ______ ____
ROOT
ATOM      1  C   UNL     1       9.405  -2.072  23.012  0.00  0.00    +0.042 A 
ATOM      2  C   UNL     1       9.655  -2.901  24.101  0.00  0.00    +0.033 A 
ATOM      3  C   UNL     1       8.790  -3.971  24.345  0.00  0.00    +0.006 A 
ATOM      4  C   UNL     1       7.709  -4.178  23.488  0.00  0.00    +0.030 A 
ATOM      5  C   UNL     1       7.541  -3.308  22.427  0.00  0.00    +0.111 A 
ATOM      6  N   UNL     1       8.361  -2.268  22.173  0.00  0.00    -0.260 NA
ENDROOT
BRANCH   1   8
ATOM      7  C   UNL     1       9.675  -0.001  21.649  0.00  0.00    +0.010 C 
ATOM      8  C   UNL     1      10.253  -0.853  22.770  0.00  0.00    +0.052 C 
ENDBRANCH   1   8
BRANCH   3   9
ATOM      9  C   UNL     1       9.010  -4.848  25.528  0.00  0.00    +0.077 C 
ATOM     10  S   UNL     1       7.897  -5.134  26.743  0.00  0.00    -0.035 S 
BRANCH   9  11
ATOM     11  N   UNL     1      10.232  -5.466  25.622  0.00  0.00    -0.352 N 
ATOM     12  H   UNL     1      10.252  -6.464  25.803  0.00  0.00    +0.143 HD
ATOM     13  H   UNL     1      11.108  -5.022  25.386  0.00  0.00    +0.143 HD
ENDBRANCH   9  11
ENDBRANCH   3   9
TORSDOF 3
ENDMDL
MODEL 2
REMARK VINA RESULT:      -4.3      2.526      4.481
REMARK  Name = 
REMARK  4 active torsions:
REMARK  status: ('A' for Active; 'I' for Inactive)
REMARK    1  A    between atoms: C_1  and  C_2
REMARK    2  A    between atoms: C_2  and  C_3
REMARK    3  A    between atoms: C_7  and  C_9
REMARK    4  A    between atoms: C_9  and  N_10
REMARK                            x       y       z     vdW  Elec       q    Type
REMARK                         _______ _______ _______ _____ _____    ______ ____
ROOT
ATOM      1  C   UNL     1       7.569  -3.892  22.745  0.00  0.00    +0.042 A 
ATOM      2  C   UNL     1       8.156  -2.694  22.352  0.00  0.00    +0.033 A 
ATOM      3  C   UNL     1       9.208  -2.177  23.113  0.00  0.00    +0.006 A 
ATOM      4  C   UNL     1       9.639  -2.881  24.239  0.00  0.00    +0.030 A 
ATOM      5  C   UNL     1       9.001  -4.067  24.551  0.00  0.00    +0.111 A 
ATOM      6  N   UNL     1       7.983  -4.583  23.832  0.00  0.00    -0.260 NA
ENDROOT
BRANCH   1   8
ATOM      7  C   UNL     1       6.628  -5.850  21.520  0.00  0.00    +0.010 C 
ATOM      8  C   UNL     1       6.372  -4.432  22.010  0.00  0.00    +0.052 C 
ENDBRANCH   1   8
BRANCH   3   9
ATOM      9  C   UNL     1       9.826  -0.876  22.740  0.00  0.00    +0.077 C 
ATOM     10  S   UNL     1      10.518   0.210  23.806  0.00  0.00    -0.035 S 
BRANCH   9  11
ATOM     11  N   UNL     1       9.819  -0.547  21.407  0.00  0.00    -0.352 N 
ATOM     12  H   UNL     1       9.565  -1.267  20.738  0.00  0.00    +0.143 HD
ATOM     13  H   UNL     1       9.914   0.396  21.057  0.00  0.00    +0.143 HD
ENDBRANCH   9  11
ENDBRANCH   3   9
TORSDOF 3
ENDMDL
MODEL 3
REMARK VINA RESULT:      -4.3      1.535      1.757
REMARK  Name = 
REMARK  4 active torsions:
REMARK  status: ('A' for Active; 'I' for Inactive)
REMARK    1  A    between atoms: C_1  and  C_2
REMARK    2  A    between atoms: C_2  and  C_3
REMARK    3  A    between atoms: C_7  and  C_9
REMARK    4  A    between atoms: C_9  and  N_10
REMARK                            x       y       z     vdW  Elec       q    Type
REMARK                         _______ _______ _______ _____ _____    ______ ____
ROOT
ATOM      1  C   UNL     1       8.786  -3.017  23.806  0.00  0.00    +0.042 A 
ATOM      2  C   UNL     1       8.485  -3.763  24.941  0.00  0.00    +0.033 A 
ATOM      3  C   UNL     1       7.423  -4.671  24.889  0.00  0.00    +0.006 A 
ATOM      4  C   UNL     1       6.702  -4.803  23.703  0.00  0.00    +0.030 A 
ATOM      5  C   UNL     1       7.075  -4.025  22.622  0.00  0.00    +0.111 A 
ATOM      6  N   UNL     1       8.094  -3.142  22.650  0.00  0.00    -0.260 NA
ENDROOT
BRANCH   1   8
ATOM      7  C   UNL     1      10.223  -1.501  22.445  0.00  0.00    +0.010 C 
ATOM      8  C   UNL     1       9.857  -1.961  23.849  0.00  0.00    +0.052 C 
ENDBRANCH   1   8
BRANCH   3   9
ATOM      9  C   UNL     1       7.054  -5.451  26.102  0.00  0.00    +0.077 C 
ATOM     10  S   UNL     1       5.513  -5.976  26.485  0.00  0.00    -0.035 S 
BRANCH   9  11
ATOM     11  N   UNL     1       8.069  -5.756  26.975  0.00  0.00    -0.352 N 
ATOM     12  H   UNL     1       8.473  -5.003  27.522  0.00  0.00    +0.143 HD
ATOM     13  H   UNL     1       8.346  -6.699  27.210  0.00  0.00    +0.143 HD
ENDBRANCH   9  11
ENDBRANCH   3   9
TORSDOF 3
ENDMDL
MODEL 4
REMARK VINA RESULT:      -4.3      2.394      4.402
REMARK  Name = 
REMARK  4 active torsions:
REMARK  status: ('A' for Active; 'I' for Inactive)
REMARK    1  A    between atoms: C_1  and  C_2
REMARK    2  A    between atoms: C_2  and  C_3
REMARK    3  A    between atoms: C_7  and  C_9
REMARK    4  A    between atoms: C_9  and  N_10
REMARK                            x       y       z     vdW  Elec       q    Type
REMARK                         _______ _______ _______ _____ _____    ______ ____
ROOT
ATOM      1  C   UNL     1       8.842  -4.110  24.496  0.00  0.00    +0.042 A 
ATOM      2  C   UNL     1       9.485  -2.929  24.142  0.00  0.00    +0.033 A 
ATOM      3  C   UNL     1       9.030  -2.223  23.025  0.00  0.00    +0.006 A 
ATOM      4  C   UNL     1       7.945  -2.721  22.304  0.00  0.00    +0.030 A 
ATOM      5  C   UNL     1       7.362  -3.900  22.732  0.00  0.00    +0.111 A 
ATOM      6  N   UNL     1       7.785  -4.599  23.805  0.00  0.00    -0.260 NA
ENDROOT
BRANCH   1   8
ATOM      7  C   UNL     1       8.308  -5.097  26.723  0.00  0.00    +0.010 C 
ATOM      8  C   UNL     1       9.359  -4.950  25.632  0.00  0.00    +0.052 C 
ENDBRANCH   1   8
BRANCH   3   9
ATOM      9  C   UNL     1       9.728  -0.978  22.599  0.00  0.00    +0.077 C 
ATOM     10  S   UNL     1      10.434   0.137  23.626  0.00  0.00    -0.035 S 
BRANCH   9  11
ATOM     11  N   UNL     1       9.787  -0.733  21.250  0.00  0.00    -0.352 N 
ATOM     12  H   UNL     1       9.827  -1.528  20.620  0.00  0.00    +0.143 HD
ATOM     13  H   UNL     1       9.653   0.179  20.836  0.00  0.00    +0.143 HD
ENDBRANCH   9  11
ENDBRANCH   3   9
TORSDOF 3
ENDMDL
MODEL 5
REMARK VINA RESULT:      -4.2      5.079      7.215
REMARK  Name = 
REMARK  4 active torsions:
REMARK  status: ('A' for Active; 'I' for Inactive)
REMARK    1  A    between atoms: C_1  and  C_2
REMARK    2  A    between atoms: C_2  and  C_3
REMARK    3  A    between atoms: C_7  and  C_9
REMARK    4  A    between atoms: C_9  and  N_10
REMARK                            x       y       z     vdW  Elec       q    Type
REMARK                         _______ _______ _______ _____ _____    ______ ____
ROOT
ATOM      1  C   UNL     1       9.363   1.098  22.072  0.00  0.00    +0.042 A 
ATOM      2  C   UNL     1       8.353   2.006  21.773  0.00  0.00    +0.033 A 
ATOM      3  C   UNL     1       8.275   3.193  22.509  0.00  0.00    +0.006 A 
ATOM      4  C   UNL     1       9.213   3.429  23.514  0.00  0.00    +0.030 A 
ATOM      5  C   UNL     1      10.186   2.473  23.737  0.00  0.00    +0.111 A 
ATOM      6  N   UNL     1      10.280   1.322  23.042  0.00  0.00    -0.260 NA
ENDROOT
BRANCH   1   8
ATOM      7  C   UNL     1      10.093  -1.280  22.249  0.00  0.00    +0.010 C 
ATOM      8  C   UNL     1       9.424  -0.232  21.370  0.00  0.00    +0.052 C 
ENDBRANCH   1   8
BRANCH   3   9
ATOM      9  C   UNL     1       7.179   4.163  22.239  0.00  0.00    +0.077 C 
ATOM     10  S   UNL     1       7.339   5.827  22.223  0.00  0.00    -0.035 S 
BRANCH   9  11
ATOM     11  N   UNL     1       5.936   3.638  21.986  0.00  0.00    -0.352 N 
ATOM     12  H   UNL     1       5.839   2.628  21.958  0.00  0.00    +0.143 HD
ATOM     13  H   UNL     1       5.086   4.184  21.964  0.00  0.00    +0.143 HD
ENDBRANCH   9  11
ENDBRANCH   3   9
TORSDOF 3
ENDMDL
MODEL 6
REMARK VINA RESULT:      -4.2      3.949      5.912
REMARK  Name = 
REMARK  4 active torsions:
REMARK  status: ('A' for Active; 'I' for Inactive)
REMARK    1  A    between atoms: C_1  and  C_2
REMARK    2  A    between atoms: C_2  and  C_3
REMARK    3  A    between atoms: C_7  and  C_9
REMARK    4  A    between atoms: C_9  and  N_10
REMARK                            x       y       z     vdW  Elec       q    Type
REMARK                         _______ _______ _______ _____ _____    ______ ____
ROOT
ATOM      1  C   UNL     1       9.341  -0.516  23.812  0.00  0.00    +0.042 A 
ATOM      2  C   UNL     1       9.494   0.811  24.200  0.00  0.00    +0.033 A 
ATOM      3  C   UNL     1       9.750   1.775  23.220  0.00  0.00    +0.006 A 
ATOM      4  C   UNL     1       9.839   1.377  21.886  0.00  0.00    +0.030 A 
ATOM      5  C   UNL     1       9.667   0.037  21.591  0.00  0.00    +0.111 A 
ATOM      6  N   UNL     1       9.421  -0.909  22.520  0.00  0.00    -0.260 NA
ENDROOT
BRANCH   1   8
ATOM      7  C   UNL     1       9.542  -2.957  24.278  0.00  0.00    +0.010 C 
ATOM      8  C   UNL     1       9.161  -1.597  24.843  0.00  0.00    +0.052 C 
ENDBRANCH   1   8
BRANCH   3   9
ATOM      9  C   UNL     1       9.960   3.195  23.613  0.00  0.00    +0.077 C 
ATOM     10  S   UNL     1       8.907   4.112  24.533  0.00  0.00    -0.035 S 
BRANCH   9  11
ATOM     11  N   UNL     1      11.114   3.794  23.175  0.00  0.00    -0.352 N 
ATOM     12  H   UNL     1      11.297   4.750  23.462  0.00  0.00    +0.143 HD
ATOM     13  H   UNL     1      11.860   3.303  22.701  0.00  0.00    +0.143 HD
ENDBRANCH   9  11
ENDBRANCH   3   9
TORSDOF 3
ENDMDL
MODEL 7
REMARK VINA RESULT:      -4.2      2.321      3.134
REMARK  Name = 
REMARK  4 active torsions:
REMARK  status: ('A' for Active; 'I' for Inactive)
REMARK    1  A    between atoms: C_1  and  C_2
REMARK    2  A    between atoms: C_2  and  C_3
REMARK    3  A    between atoms: C_7  and  C_9
REMARK    4  A    between atoms: C_9  and  N_10
REMARK                            x       y       z     vdW  Elec       q    Type
REMARK                         _______ _______ _______ _____ _____    ______ ____
ROOT
ATOM      1  C   UNL     1       9.225  -1.233  22.323  0.00  0.00    +0.042 A 
ATOM      2  C   UNL     1       8.116  -2.013  22.014  0.00  0.00    +0.033 A 
ATOM      3  C   UNL     1       7.862  -3.157  22.776  0.00  0.00    +0.006 A 
ATOM      4  C   UNL     1       8.725  -3.477  23.825  0.00  0.00    +0.030 A 
ATOM      5  C   UNL     1       9.800  -2.640  24.065  0.00  0.00    +0.111 A 
ATOM      6  N   UNL     1      10.064  -1.533  23.341  0.00  0.00    -0.260 NA
ENDROOT
BRANCH   1   8
ATOM      7  C   UNL     1      10.035   1.125  22.327  0.00  0.00    +0.010 C 
ATOM      8  C   UNL     1       9.587  -0.049  21.468  0.00  0.00    +0.052 C 
ENDBRANCH   1   8
BRANCH   3   9
ATOM      9  C   UNL     1       6.707  -4.033  22.440  0.00  0.00    +0.077 C 
ATOM     10  S   UNL     1       6.806  -5.647  22.012  0.00  0.00    -0.035 S 
BRANCH   9  11
ATOM     11  N   UNL     1       5.461  -3.458  22.483  0.00  0.00    -0.352 N 
ATOM     12  H   UNL     1       4.672  -4.043  22.739  0.00  0.00    +0.143 HD
ATOM     13  H   UNL     1       5.296  -2.464  22.413  0.00  0.00    +0.143 HD
ENDBRANCH   9  11
ENDBRANCH   3   9
TORSDOF 3
ENDMDL
MODEL 8
REMARK VINA RESULT:      -4.1      3.330      5.298
REMARK  Name = 
REMARK  4 active torsions:
REMARK  status: ('A' for Active; 'I' for Inactive)
REMARK    1  A    between atoms: C_1  and  C_2
REMARK    2  A    between atoms: C_2  and  C_3
REMARK    3  A    between atoms: C_7  and  C_9
REMARK    4  A    between atoms: C_9  and  N_10
REMARK                            x       y       z     vdW  Elec       q    Type
REMARK                         _______ _______ _______ _____ _____    ______ ____
ROOT
ATOM      1  C   UNL     1       7.971  -2.082  23.120  0.00  0.00    +0.042 A 
ATOM      2  C   UNL     1       7.798  -0.785  22.648  0.00  0.00    +0.033 A 
ATOM      3  C   UNL     1       8.926   0.017  22.452  0.00  0.00    +0.006 A 
ATOM      4  C   UNL     1      10.187  -0.508  22.731  0.00  0.00    +0.030 A 
ATOM      5  C   UNL     1      10.266  -1.810  23.191  0.00  0.00    +0.111 A 
ATOM      6  N   UNL     1       9.191  -2.601  23.389  0.00  0.00    -0.260 NA
ENDROOT
BRANCH   1   8
ATOM      7  C   UNL     1       5.743  -2.868  22.325  0.00  0.00    +0.010 C 
ATOM      8  C   UNL     1       6.779  -2.944  23.436  0.00  0.00    +0.052 C 
ENDBRANCH   1   8
BRANCH   3   9
ATOM      9  C   UNL     1       8.766   1.423  21.987  0.00  0.00    +0.077 C 
ATOM     10  S   UNL     1       7.333   2.285  21.985  0.00  0.00    -0.035 S 
BRANCH   9  11
ATOM     11  N   UNL     1       9.893   2.052  21.521  0.00  0.00    -0.352 N 
ATOM     12  H   UNL     1      10.056   3.014  21.803  0.00  0.00    +0.143 HD
ATOM     13  H   UNL     1      10.640   1.581  21.031  0.00  0.00    +0.143 HD
ENDBRANCH   9  11
ENDBRANCH   3   9
TORSDOF 3
ENDMDL
MODEL 9
REMARK VINA RESULT:      -4.1      5.051      6.900
REMARK  Name = 
REMARK  4 active torsions:
REMARK  status: ('A' for Active; 'I' for Inactive)
REMARK    1  A    between atoms: C_1  and  C_2
REMARK    2  A    between atoms: C_2  and  C_3
REMARK    3  A    between atoms: C_7  and  C_9
REMARK    4  A    between atoms: C_9  and  N_10
REMARK                            x       y       z     vdW  Elec       q    Type
REMARK                         _______ _______ _______ _____ _____    ______ ____
ROOT
ATOM      1  C   UNL     1       9.495   0.975  22.700  0.00  0.00    +0.042 A 
ATOM      2  C   UNL     1      10.212   2.166  22.651  0.00  0.00    +0.033 A 
ATOM      3  C   UNL     1       9.953   3.149  23.611  0.00  0.00    +0.006 A 
ATOM      4  C   UNL     1       8.988   2.903  24.589  0.00  0.00    +0.030 A 
ATOM      5  C   UNL     1       8.329   1.688  24.564  0.00  0.00    +0.111 A 
ATOM      6  N   UNL     1       8.561   0.727  23.647  0.00  0.00    -0.260 NA
ENDROOT
BRANCH   1   8
ATOM      7  C   UNL     1      10.098  -1.399  22.233  0.00  0.00    +0.010 C 
ATOM      8  C   UNL     1       9.674  -0.068  21.630  0.00  0.00    +0.052 C 
ENDBRANCH   1   8
BRANCH   3   9
ATOM      9  C   UNL     1      10.676   4.449  23.557  0.00  0.00    +0.077 C 
ATOM     10  S   UNL     1      10.096   5.905  24.140  0.00  0.00    -0.035 S 
BRANCH   9  11
ATOM     11  N   UNL     1      11.918   4.442  22.974  0.00  0.00    -0.352 N 
ATOM     12  H   UNL     1      12.195   3.622  22.444  0.00  0.00    +0.143 HD
ATOM     13  H   UNL     1      12.521   5.252  22.919  0.00  0.00    +0.143 HD
ENDBRANCH   9  11
ENDBRANCH   3   9
TORSDOF 3
ENDMDL
