MODEL 1
REMARK VINA RESULT:      -7.2      0.000      0.000
REMARK  Name = 
REMARK  9 active torsions:
REMARK  status: ('A' for Active; 'I' for Inactive)
REMARK    1  A    between atoms: C_1  and  C_2
REMARK    2  A    between atoms: C_2  and  N_3
REMARK    3  A    between atoms: N_3  and  C_4
REMARK    4  A    between atoms: N_3  and  C_6
REMARK    5  A    between atoms: C_4  and  C_5
REMARK    6  A    between atoms: C_6  and  C_7
REMARK    7  A    between atoms: C_8  and  O_9
REMARK    8  A    between atoms: C_12  and  N_13
REMARK    9  A    between atoms: N_13  and  C_14
REMARK                            x       y       z     vdW  Elec       q    Type
REMARK                         _______ _______ _______ _____ _____    ______ ____
ROOT
ATOM      1  C   UNL     1       9.950   0.779  23.314  0.00  0.00    +0.010 A 
ATOM      2  C   UNL     1       9.864  -0.461  23.971  0.00  0.00    +0.031 A 
ATOM      3  C   UNL     1       9.645  -1.651  23.279  0.00  0.00    +0.032 A 
ATOM      4  C   UNL     1       9.338  -1.564  21.910  0.00  0.00    +0.027 A 
ATOM      5  C   UNL     1       9.307  -0.329  21.256  0.00  0.00    +0.047 A 
ATOM      6  C   UNL     1       9.622   0.830  21.957  0.00  0.00    +0.121 A 
ENDROOT
BRANCH   3   7
ATOM      7  N   UNL     1       9.752  -2.928  23.868  0.00  0.00    -0.314 N 
ATOM      8  H   UNL     1      10.727  -3.158  24.018  0.00  0.00    +0.152 HD
BRANCH   7   9
ATOM      9  C   UNL     1       8.905  -3.679  24.732  0.00  0.00    +0.042 A 
ATOM     10  C   UNL     1       9.289  -4.068  26.016  0.00  0.00    +0.043 A 
ATOM     11  C   UNL     1       8.407  -4.772  26.809  0.00  0.00    +0.113 A 
ATOM     12  N   UNL     1       7.180  -5.152  26.409  0.00  0.00    -0.255 NA
ATOM     13  C   UNL     1       6.807  -4.846  25.162  0.00  0.00    +0.074 A 
ATOM     14  C   UNL     1       5.609  -5.376  24.711  0.00  0.00    +0.048 A 
ATOM     15  C   UNL     1       5.201  -5.210  23.391  0.00  0.00    +0.043 A 
ATOM     16 CL   UNL     1       3.810  -6.037  22.811  0.00  0.00    -0.083 Cl
ATOM     17  C   UNL     1       5.931  -4.405  22.531  0.00  0.00    +0.021 A 
ATOM     18  C   UNL     1       7.099  -3.800  22.989  0.00  0.00    +0.013 A 
ATOM     19  C   UNL     1       7.607  -4.071  24.283  0.00  0.00    +0.022 A 
ENDBRANCH   7   9
ENDBRANCH   3   7
BRANCH   6  20
ATOM     20  O   UNL     1       9.602   2.008  21.270  0.00  0.00    -0.506 OA
ATOM     21  H   UNL     1       9.462   2.715  21.931  0.00  0.00    +0.292 HD
ENDBRANCH   6  20
BRANCH   1  22
ATOM     22  C   UNL     1      10.577   1.937  24.064  0.00  0.00    +0.123 C 
BRANCH  22  23
ATOM     23  N   UNL     1      10.338   3.283  23.516  0.00  0.00    -0.299 NA
BRANCH  23  25
ATOM     24  C   UNL     1       8.088   4.425  23.455  0.00  0.00    +0.020 C 
ATOM     25  C   UNL     1       9.293   3.988  24.284  0.00  0.00    +0.081 C 
ENDBRANCH  23  25
BRANCH  23  26
ATOM     26  C   UNL     1      11.618   4.026  23.433  0.00  0.00    +0.081 C 
ATOM     27  C   UNL     1      11.602   5.533  23.711  0.00  0.00    +0.020 C 
ENDBRANCH  23  26
ENDBRANCH  22  23
ENDBRANCH   1  22
TORSDOF 7
ENDMDL
MODEL 2
REMARK VINA RESULT:      -6.9      1.547      1.856
REMARK  Name = 
REMARK  9 active torsions:
REMARK  status: ('A' for Active; 'I' for Inactive)
REMARK    1  A    between atoms: C_1  and  C_2
REMARK    2  A    between atoms: C_2  and  N_3
REMARK    3  A    between atoms: N_3  and  C_4
REMARK    4  A    between atoms: N_3  and  C_6
REMARK    5  A    between atoms: C_4  and  C_5
REMARK    6  A    between atoms: C_6  and  C_7
REMARK    7  A    between atoms: C_8  and  O_9
REMARK    8  A    between atoms: C_12  and  N_13
REMARK    9  A    between atoms: N_13  and  C_14
REMARK                            x       y       z     vdW  Elec       q    Type
REMARK                         _______ _______ _______ _____ _____    ______ ____
ROOT
ATOM      1  C   UNL     1       9.095   2.277  23.699  0.00  0.00    +0.010 A 
ATOM      2  C   UNL     1       8.288   1.328  24.352  0.00  0.00    +0.031 A 
ATOM      3  C   UNL     1       8.365  -0.034  24.060  0.00  0.00    +0.032 A 
ATOM      4  C   UNL     1       9.154  -0.423  22.964  0.00  0.00    +0.027 A 
ATOM      5  C   UNL     1       9.879   0.518  22.228  0.00  0.00    +0.047 A 
ATOM      6  C   UNL     1       9.853   1.856  22.604  0.00  0.00    +0.121 A 
ENDROOT
BRANCH   3   7
ATOM      7  N   UNL     1       7.727  -1.033  24.825  0.00  0.00    -0.314 N 
ATOM      8  H   UNL     1       6.774  -0.758  25.026  0.00  0.00    +0.152 HD
BRANCH   7   9
ATOM      9  C   UNL     1       7.888  -2.445  24.913  0.00  0.00    +0.042 A 
ATOM     10  C   UNL     1       8.637  -3.059  25.918  0.00  0.00    +0.043 A 
ATOM     11  C   UNL     1       8.729  -4.435  25.958  0.00  0.00    +0.113 A 
ATOM     12  N   UNL     1       8.161  -5.249  25.051  0.00  0.00    -0.255 NA
ATOM     13  C   UNL     1       7.488  -4.688  24.042  0.00  0.00    +0.074 A 
ATOM     14  C   UNL     1       7.042  -5.526  23.032  0.00  0.00    +0.048 A 
ATOM     15  C   UNL     1       6.439  -5.015  21.887  0.00  0.00    +0.043 A 
ATOM     16 CL   UNL     1       6.072  -6.058  20.572  0.00  0.00    -0.083 Cl
ATOM     17  C   UNL     1       6.164  -3.661  21.788  0.00  0.00    +0.021 A 
ATOM     18  C   UNL     1       6.534  -2.811  22.828  0.00  0.00    +0.013 A 
ATOM     19  C   UNL     1       7.276  -3.289  23.936  0.00  0.00    +0.022 A 
ENDBRANCH   7   9
ENDBRANCH   3   7
BRANCH   6  20
ATOM     20  O   UNL     1      10.596   2.732  21.869  0.00  0.00    -0.506 OA
ATOM     21  H   UNL     1      10.407   3.624  22.224  0.00  0.00    +0.292 HD
ENDBRANCH   6  20
BRANCH   1  22
ATOM     22  C   UNL     1       9.241   3.642  24.340  0.00  0.00    +0.123 C 
BRANCH  22  23
ATOM     23  N   UNL     1       9.168   4.804  23.436  0.00  0.00    -0.299 NA
BRANCH  23  25
ATOM     24  C   UNL     1       7.480   6.025  22.012  0.00  0.00    +0.020 C 
ATOM     25  C   UNL     1       7.781   5.295  23.319  0.00  0.00    +0.081 C 
ENDBRANCH  23  25
BRANCH  23  26
ATOM     26  C   UNL     1      10.131   5.843  23.875  0.00  0.00    +0.081 C 
ATOM     27  C   UNL     1      11.613   5.643  23.548  0.00  0.00    +0.020 C 
ENDBRANCH  23  26
ENDBRANCH  22  23
ENDBRANCH   1  22
TORSDOF 7
ENDMDL
MODEL 3
REMARK VINA RESULT:      -6.9      3.652      8.086
REMARK  Name = 
REMARK  9 active torsions:
REMARK  status: ('A' for Active; 'I' for Inactive)
REMARK    1  A    between atoms: C_1  and  C_2
REMARK    2  A    between atoms: C_2  and  N_3
REMARK    3  A    between atoms: N_3  and  C_4
REMARK    4  A    between atoms: N_3  and  C_6
REMARK    5  A    between atoms: C_4  and  C_5
REMARK    6  A    between atoms: C_6  and  C_7
REMARK    7  A    between atoms: C_8  and  O_9
REMARK    8  A    between atoms: C_12  and  N_13
REMARK    9  A    between atoms: N_13  and  C_14
REMARK                            x       y       z     vdW  Elec       q    Type
REMARK                         _______ _______ _______ _____ _____    ______ ____
ROOT
ATOM      1  C   UNL     1       6.111  -4.282  25.216  0.00  0.00    +0.010 A 
ATOM      2  C   UNL     1       6.865  -3.107  25.044  0.00  0.00    +0.031 A 
ATOM      3  C   UNL     1       8.153  -2.972  25.561  0.00  0.00    +0.032 A 
ATOM      4  C   UNL     1       8.623  -3.985  26.415  0.00  0.00    +0.027 A 
ATOM      5  C   UNL     1       7.846  -5.113  26.690  0.00  0.00    +0.047 A 
ATOM      6  C   UNL     1       6.604  -5.259  26.084  0.00  0.00    +0.121 A 
ENDROOT
BRANCH   3   7
ATOM      7  N   UNL     1       9.013  -1.900  25.244  0.00  0.00    -0.314 N 
ATOM      8  H   UNL     1       9.817  -1.909  25.859  0.00  0.00    +0.152 HD
BRANCH   7   9
ATOM      9  C   UNL     1       9.292  -1.198  24.037  0.00  0.00    +0.042 A 
ATOM     10  C   UNL     1       9.806  -1.824  22.901  0.00  0.00    +0.043 A 
ATOM     11  C   UNL     1      10.029  -1.086  21.756  0.00  0.00    +0.113 A 
ATOM     12  N   UNL     1       9.813   0.238  21.665  0.00  0.00    -0.255 NA
ATOM     13  C   UNL     1       9.378   0.876  22.757  0.00  0.00    +0.074 A 
ATOM     14  C   UNL     1       9.310   2.259  22.698  0.00  0.00    +0.048 A 
ATOM     15  C   UNL     1       8.984   3.012  23.822  0.00  0.00    +0.043 A 
ATOM     16 CL   UNL     1       9.093   4.726  23.769  0.00  0.00    -0.083 Cl
ATOM     17  C   UNL     1       8.603   2.383  24.997  0.00  0.00    +0.021 A 
ATOM     18  C   UNL     1       8.591   0.991  25.053  0.00  0.00    +0.013 A 
ATOM     19  C   UNL     1       9.056   0.209  23.967  0.00  0.00    +0.022 A 
ENDBRANCH   7   9
ENDBRANCH   3   7
BRANCH   6  20
ATOM     20  O   UNL     1       5.894  -6.389  26.365  0.00  0.00    -0.506 OA
ATOM     21  H   UNL     1       6.199  -6.699  27.241  0.00  0.00    +0.292 HD
ENDBRANCH   6  20
BRANCH   1  22
ATOM     22  C   UNL     1       4.920  -4.498  24.305  0.00  0.00    +0.123 C 
BRANCH  22  23
ATOM     23  N   UNL     1       4.929  -5.725  23.489  0.00  0.00    -0.299 NA
BRANCH  23  25
ATOM     24  C   UNL     1       2.468  -5.165  23.473  0.00  0.00    +0.020 C 
ATOM     25  C   UNL     1       3.556  -6.214  23.257  0.00  0.00    +0.081 C 
ENDBRANCH  23  25
BRANCH  23  26
ATOM     26  C   UNL     1       5.696  -5.493  22.242  0.00  0.00    +0.081 C 
ATOM     27  C   UNL     1       7.151  -5.970  22.185  0.00  0.00    +0.020 C 
ENDBRANCH  23  26
ENDBRANCH  22  23
ENDBRANCH   1  22
TORSDOF 7
ENDMDL
MODEL 4
REMARK VINA RESULT:      -6.9      1.891      2.189
REMARK  Name = 
REMARK  9 active torsions:
REMARK  status: ('A' for Active; 'I' for Inactive)
REMARK    1  A    between atoms: C_1  and  C_2
REMARK    2  A    between atoms: C_2  and  N_3
REMARK    3  A    between atoms: N_3  and  C_4
REMARK    4  A    between atoms: N_3  and  C_6
REMARK    5  A    between atoms: C_4  and  C_5
REMARK    6  A    between atoms: C_6  and  C_7
REMARK    7  A    between atoms: C_8  and  O_9
REMARK    8  A    between atoms: C_12  and  N_13
REMARK    9  A    between atoms: N_13  and  C_14
REMARK                            x       y       z     vdW  Elec       q    Type
REMARK                         _______ _______ _______ _____ _____    ______ ____
ROOT
ATOM      1  C   UNL     1       7.810   0.667  22.606  0.00  0.00    +0.010 A 
ATOM      2  C   UNL     1       7.453  -0.675  22.829  0.00  0.00    +0.031 A 
ATOM      3  C   UNL     1       8.314  -1.729  22.527  0.00  0.00    +0.032 A 
ATOM      4  C   UNL     1       9.495  -1.428  21.827  0.00  0.00    +0.027 A 
ATOM      5  C   UNL     1       9.818  -0.110  21.494  0.00  0.00    +0.047 A 
ATOM      6  C   UNL     1       8.982   0.927  21.893  0.00  0.00    +0.121 A 
ENDROOT
BRANCH   3   7
ATOM      7  N   UNL     1       8.081  -3.064  22.918  0.00  0.00    -0.314 N 
ATOM      8  H   UNL     1       8.397  -3.696  22.193  0.00  0.00    +0.152 HD
BRANCH   7   9
ATOM      9  C   UNL     1       8.024  -3.715  24.183  0.00  0.00    +0.042 A 
ATOM     10  C   UNL     1       9.065  -3.654  25.111  0.00  0.00    +0.043 A 
ATOM     11  C   UNL     1       8.933  -4.287  26.329  0.00  0.00    +0.113 A 
ATOM     12  N   UNL     1       7.855  -5.009  26.684  0.00  0.00    -0.255 NA
ATOM     13  C   UNL     1       6.867  -5.135  25.793  0.00  0.00    +0.074 A 
ATOM     14  C   UNL     1       5.836  -6.007  26.107  0.00  0.00    +0.048 A 
ATOM     15  C   UNL     1       4.829  -6.291  25.190  0.00  0.00    +0.043 A 
ATOM     16 CL   UNL     1       3.674  -7.516  25.535  0.00  0.00    -0.083 Cl
ATOM     17  C   UNL     1       4.773  -5.614  23.983  0.00  0.00    +0.021 A 
ATOM     18  C   UNL     1       5.758  -4.677  23.680  0.00  0.00    +0.013 A 
ATOM     19  C   UNL     1       6.869  -4.477  24.536  0.00  0.00    +0.022 A 
ENDBRANCH   7   9
ENDBRANCH   3   7
BRANCH   6  20
ATOM     20  O   UNL     1       9.353   2.198  21.566  0.00  0.00    -0.506 OA
ATOM     21  H   UNL     1       8.818   2.453  20.787  0.00  0.00    +0.292 HD
ENDBRANCH   6  20
BRANCH   1  22
ATOM     22  C   UNL     1       7.010   1.740  23.317  0.00  0.00    +0.123 C 
BRANCH  22  23
ATOM     23  N   UNL     1       7.752   2.937  23.750  0.00  0.00    -0.299 NA
BRANCH  23  25
ATOM     24  C   UNL     1       7.193   4.877  22.236  0.00  0.00    +0.020 C 
ATOM     25  C   UNL     1       6.944   4.157  23.559  0.00  0.00    +0.081 C 
ENDBRANCH  23  25
BRANCH  23  26
ATOM     26  C   UNL     1       8.234   2.755  25.139  0.00  0.00    +0.081 C 
ATOM     27  C   UNL     1       7.568   3.571  26.251  0.00  0.00    +0.020 C 
ENDBRANCH  23  26
ENDBRANCH  22  23
ENDBRANCH   1  22
TORSDOF 7
ENDMDL
MODEL 5
REMARK VINA RESULT:      -6.9      1.729      2.620
REMARK  Name = 
REMARK  9 active torsions:
REMARK  status: ('A' for Active; 'I' for Inactive)
REMARK    1  A    between atoms: C_1  and  C_2
REMARK    2  A    between atoms: C_2  and  N_3
REMARK    3  A    between atoms: N_3  and  C_4
REMARK    4  A    between atoms: N_3  and  C_6
REMARK    5  A    between atoms: C_4  and  C_5
REMARK    6  A    between atoms: C_6  and  C_7
REMARK    7  A    between atoms: C_8  and  O_9
REMARK    8  A    between atoms: C_12  and  N_13
REMARK    9  A    between atoms: N_13  and  C_14
REMARK                            x       y       z     vdW  Elec       q    Type
REMARK                         _______ _______ _______ _____ _____    ______ ____
ROOT
ATOM      1  C   UNL     1       9.069   1.166  23.445  0.00  0.00    +0.010 A 
ATOM      2  C   UNL     1       8.528  -0.014  23.988  0.00  0.00    +0.031 A 
ATOM      3  C   UNL     1       8.718  -1.258  23.389  0.00  0.00    +0.032 A 
ATOM      4  C   UNL     1       9.325  -1.287  22.121  0.00  0.00    +0.027 A 
ATOM      5  C   UNL     1       9.771  -0.112  21.510  0.00  0.00    +0.047 A 
ATOM      6  C   UNL     1       9.650   1.101  22.177  0.00  0.00    +0.121 A 
ENDROOT
BRANCH   3   7
ATOM      7  N   UNL     1       8.370  -2.480  24.000  0.00  0.00    -0.314 N 
ATOM      8  H   UNL     1       8.665  -2.479  24.968  0.00  0.00    +0.152 HD
BRANCH   7   9
ATOM      9  C   UNL     1       7.319  -3.416  23.781  0.00  0.00    +0.042 A 
ATOM     10  C   UNL     1       6.597  -3.476  22.589  0.00  0.00    +0.043 A 
ATOM     11  C   UNL     1       5.608  -4.426  22.436  0.00  0.00    +0.113 A 
ATOM     12  N   UNL     1       5.256  -5.301  23.394  0.00  0.00    -0.255 NA
ATOM     13  C   UNL     1       5.889  -5.228  24.570  0.00  0.00    +0.074 A 
ATOM     14  C   UNL     1       5.413  -6.026  25.597  0.00  0.00    +0.048 A 
ATOM     15  C   UNL     1       5.932  -5.928  26.884  0.00  0.00    +0.043 A 
ATOM     16 CL   UNL     1       5.195  -6.789  28.176  0.00  0.00    -0.083 Cl
ATOM     17  C   UNL     1       7.022  -5.110  27.137  0.00  0.00    +0.021 A 
ATOM     18  C   UNL     1       7.565  -4.357  26.098  0.00  0.00    +0.013 A 
ATOM     19  C   UNL     1       6.963  -4.334  24.816  0.00  0.00    +0.022 A 
ENDBRANCH   7   9
ENDBRANCH   3   7
BRANCH   6  20
ATOM     20  O   UNL     1      10.122   2.216  21.549  0.00  0.00    -0.506 OA
ATOM     21  H   UNL     1       9.452   2.917  21.683  0.00  0.00    +0.292 HD
ENDBRANCH   6  20
BRANCH   1  22
ATOM     22  C   UNL     1       9.161   2.382  24.345  0.00  0.00    +0.123 C 
BRANCH  22  23
ATOM     23  N   UNL     1       8.795   3.676  23.743  0.00  0.00    -0.299 NA
BRANCH  23  25
ATOM     24  C   UNL     1       6.837   3.796  22.155  0.00  0.00    +0.020 C 
ATOM     25  C   UNL     1       7.331   3.794  23.600  0.00  0.00    +0.081 C 
ENDBRANCH  23  25
BRANCH  23  26
ATOM     26  C   UNL     1       9.408   4.782  24.516  0.00  0.00    +0.081 C 
ATOM     27  C   UNL     1      10.458   5.656  23.824  0.00  0.00    +0.020 C 
ENDBRANCH  23  26
ENDBRANCH  22  23
ENDBRANCH   1  22
TORSDOF 7
ENDMDL
MODEL 6
REMARK VINA RESULT:      -6.7      2.219      3.324
REMARK  Name = 
REMARK  9 active torsions:
REMARK  status: ('A' for Active; 'I' for Inactive)
REMARK    1  A    between atoms: C_1  and  C_2
REMARK    2  A    between atoms: C_2  and  N_3
REMARK    3  A    between atoms: N_3  and  C_4
REMARK    4  A    between atoms: N_3  and  C_6
REMARK    5  A    between atoms: C_4  and  C_5
REMARK    6  A    between atoms: C_6  and  C_7
REMARK    7  A    between atoms: C_8  and  O_9
REMARK    8  A    between atoms: C_12  and  N_13
REMARK    9  A    between atoms: N_13  and  C_14
REMARK                            x       y       z     vdW  Elec       q    Type
REMARK                         _______ _______ _______ _____ _____    ______ ____
ROOT
ATOM      1  C   UNL     1       8.281   2.228  22.561  0.00  0.00    +0.010 A 
ATOM      2  C   UNL     1       7.213   1.347  22.813  0.00  0.00    +0.031 A 
ATOM      3  C   UNL     1       7.363  -0.037  22.737  0.00  0.00    +0.032 A 
ATOM      4  C   UNL     1       8.576  -0.536  22.230  0.00  0.00    +0.027 A 
ATOM      5  C   UNL     1       9.614   0.327  21.866  0.00  0.00    +0.047 A 
ATOM      6  C   UNL     1       9.464   1.698  22.042  0.00  0.00    +0.121 A 
ENDROOT
BRANCH   3   7
ATOM      7  N   UNL     1       6.385  -0.953  23.175  0.00  0.00    -0.314 N 
ATOM      8  H   UNL     1       5.469  -0.521  23.145  0.00  0.00    +0.152 HD
BRANCH   7   9
ATOM      9  C   UNL     1       6.288  -2.373  23.130  0.00  0.00    +0.042 A 
ATOM     10  C   UNL     1       5.887  -3.067  21.988  0.00  0.00    +0.043 A 
ATOM     11  C   UNL     1       5.841  -4.446  22.007  0.00  0.00    +0.113 A 
ATOM     12  N   UNL     1       6.130  -5.189  23.090  0.00  0.00    -0.255 NA
ATOM     13  C   UNL     1       6.459  -4.550  24.217  0.00  0.00    +0.074 A 
ATOM     14  C   UNL     1       6.600  -5.316  25.363  0.00  0.00    +0.048 A 
ATOM     15  C   UNL     1       6.823  -4.723  26.601  0.00  0.00    +0.043 A 
ATOM     16 CL   UNL     1       6.803  -5.681  28.028  0.00  0.00    -0.083 Cl
ATOM     17  C   UNL     1       7.027  -3.356  26.694  0.00  0.00    +0.021 A 
ATOM     18  C   UNL     1       6.965  -2.576  25.541  0.00  0.00    +0.013 A 
ATOM     19  C   UNL     1       6.599  -3.140  24.294  0.00  0.00    +0.022 A 
ENDBRANCH   7   9
ENDBRANCH   3   7
BRANCH   6  20
ATOM     20  O   UNL     1      10.514   2.496  21.695  0.00  0.00    -0.506 OA
ATOM     21  H   UNL     1      10.130   3.320  21.333  0.00  0.00    +0.292 HD
ENDBRANCH   6  20
BRANCH   1  22
ATOM     22  C   UNL     1       8.149   3.657  23.047  0.00  0.00    +0.123 C 
BRANCH  22  23
ATOM     23  N   UNL     1       9.019   4.054  24.168  0.00  0.00    -0.299 NA
BRANCH  23  25
ATOM     24  C   UNL     1       9.994   6.279  24.853  0.00  0.00    +0.020 C 
ATOM     25  C   UNL     1       9.883   5.189  23.789  0.00  0.00    +0.081 C 
ENDBRANCH  23  25
BRANCH  23  26
ATOM     26  C   UNL     1       8.198   4.309  25.375  0.00  0.00    +0.081 C 
ATOM     27  C   UNL     1       7.501   3.120  26.043  0.00  0.00    +0.020 C 
ENDBRANCH  23  26
ENDBRANCH  22  23
ENDBRANCH   1  22
TORSDOF 7
ENDMDL
MODEL 7
REMARK VINA RESULT:      -6.7      3.720      8.417
REMARK  Name = 
REMARK  9 active torsions:
REMARK  status: ('A' for Active; 'I' for Inactive)
REMARK    1  A    between atoms: C_1  and  C_2
REMARK    2  A    between atoms: C_2  and  N_3
REMARK    3  A    between atoms: N_3  and  C_4
REMARK    4  A    between atoms: N_3  and  C_6
REMARK    5  A    between atoms: C_4  and  C_5
REMARK    6  A    between atoms: C_6  and  C_7
REMARK    7  A    between atoms: C_8  and  O_9
REMARK    8  A    between atoms: C_12  and  N_13
REMARK    9  A    between atoms: N_13  and  C_14
REMARK                            x       y       z     vdW  Elec       q    Type
REMARK                         _______ _______ _______ _____ _____    ______ ____
ROOT
ATOM      1  C   UNL     1       8.119  -2.326  24.135  0.00  0.00    +0.010 A 
ATOM      2  C   UNL     1       7.796  -1.055  23.625  0.00  0.00    +0.031 A 
ATOM      3  C   UNL     1       8.658  -0.357  22.781  0.00  0.00    +0.032 A 
ATOM      4  C   UNL     1       9.948  -0.881  22.584  0.00  0.00    +0.027 A 
ATOM      5  C   UNL     1      10.331  -2.089  23.172  0.00  0.00    +0.047 A 
ATOM      6  C   UNL     1       9.415  -2.806  23.933  0.00  0.00    +0.121 A 
ENDROOT
BRANCH   3   7
ATOM      7  N   UNL     1       8.293   0.817  22.090  0.00  0.00    -0.314 N 
ATOM      8  H   UNL     1       7.837   0.578  21.218  0.00  0.00    +0.152 HD
BRANCH   7   9
ATOM      9  C   UNL     1       7.937   2.129  22.516  0.00  0.00    +0.042 A 
ATOM     10  C   UNL     1       6.636   2.625  22.428  0.00  0.00    +0.043 A 
ATOM     11  C   UNL     1       6.356   3.897  22.883  0.00  0.00    +0.113 A 
ATOM     12  N   UNL     1       7.282   4.730  23.389  0.00  0.00    -0.255 NA
ATOM     13  C   UNL     1       8.549   4.305  23.430  0.00  0.00    +0.074 A 
ATOM     14  C   UNL     1       9.515   5.226  23.805  0.00  0.00    +0.048 A 
ATOM     15  C   UNL     1      10.869   4.907  23.760  0.00  0.00    +0.043 A 
ATOM     16 CL   UNL     1      12.048   6.124  24.046  0.00  0.00    -0.083 Cl
ATOM     17  C   UNL     1      11.272   3.617  23.452  0.00  0.00    +0.021 A 
ATOM     18  C   UNL     1      10.311   2.656  23.148  0.00  0.00    +0.013 A 
ATOM     19  C   UNL     1       8.940   2.996  23.048  0.00  0.00    +0.022 A 
ENDBRANCH   7   9
ENDBRANCH   3   7
BRANCH   6  20
ATOM     20  O   UNL     1       9.829  -3.991  24.467  0.00  0.00    -0.506 OA
ATOM     21  H   UNL     1      10.095  -3.804  25.390  0.00  0.00    +0.292 HD
ENDBRANCH   6  20
BRANCH   1  22
ATOM     22  C   UNL     1       6.994  -3.170  24.697  0.00  0.00    +0.123 C 
BRANCH  22  23
ATOM     23  N   UNL     1       6.179  -3.914  23.721  0.00  0.00    -0.299 NA
BRANCH  23  25
ATOM     24  C   UNL     1       7.240  -5.688  22.272  0.00  0.00    +0.020 C 
ATOM     25  C   UNL     1       6.626  -5.317  23.620  0.00  0.00    +0.081 C 
ENDBRANCH  23  25
BRANCH  23  26
ATOM     26  C   UNL     1       4.741  -3.771  24.053  0.00  0.00    +0.081 C 
ATOM     27  C   UNL     1       3.749  -4.752  23.422  0.00  0.00    +0.020 C 
ENDBRANCH  23  26
ENDBRANCH  22  23
ENDBRANCH   1  22
TORSDOF 7
ENDMDL
MODEL 8
REMARK VINA RESULT:      -6.6      2.389      3.145
REMARK  Name = 
REMARK  9 active torsions:
REMARK  status: ('A' for Active; 'I' for Inactive)
REMARK    1  A    between atoms: C_1  and  C_2
REMARK    2  A    between atoms: C_2  and  N_3
REMARK    3  A    between atoms: N_3  and  C_4
REMARK    4  A    between atoms: N_3  and  C_6
REMARK    5  A    between atoms: C_4  and  C_5
REMARK    6  A    between atoms: C_6  and  C_7
REMARK    7  A    between atoms: C_8  and  O_9
REMARK    8  A    between atoms: C_12  and  N_13
REMARK    9  A    between atoms: N_13  and  C_14
REMARK                            x       y       z     vdW  Elec       q    Type
REMARK                         _______ _______ _______ _____ _____    ______ ____
ROOT
ATOM      1  C   UNL     1       7.937   0.867  22.586  0.00  0.00    +0.010 A 
ATOM      2  C   UNL     1       7.401  -0.370  22.985  0.00  0.00    +0.031 A 
ATOM      3  C   UNL     1       8.085  -1.570  22.789  0.00  0.00    +0.032 A 
ATOM      4  C   UNL     1       9.261  -1.533  22.020  0.00  0.00    +0.027 A 
ATOM      5  C   UNL     1       9.755  -0.326  21.517  0.00  0.00    +0.047 A 
ATOM      6  C   UNL     1       9.098   0.863  21.810  0.00  0.00    +0.121 A 
ENDROOT
BRANCH   3   7
ATOM      7  N   UNL     1       7.681  -2.799  23.349  0.00  0.00    -0.314 N 
ATOM      8  H   UNL     1       7.794  -2.774  24.355  0.00  0.00    +0.152 HD
BRANCH   7   9
ATOM      9  C   UNL     1       6.726  -3.782  22.961  0.00  0.00    +0.042 A 
ATOM     10  C   UNL     1       6.931  -4.652  21.890  0.00  0.00    +0.043 A 
ATOM     11  C   UNL     1       5.975  -5.598  21.584  0.00  0.00    +0.113 A 
ATOM     12  N   UNL     1       4.809  -5.722  22.243  0.00  0.00    -0.255 NA
ATOM     13  C   UNL     1       4.558  -4.863  23.236  0.00  0.00    +0.074 A 
ATOM     14  C   UNL     1       3.293  -4.899  23.802  0.00  0.00    +0.048 A 
ATOM     15  C   UNL     1       2.905  -3.964  24.756  0.00  0.00    +0.043 A 
ATOM     16 CL   UNL     1       1.274  -3.915  25.297  0.00  0.00    -0.083 Cl
ATOM     17  C   UNL     1       3.820  -3.047  25.248  0.00  0.00    +0.021 A 
ATOM     18  C   UNL     1       5.120  -3.045  24.747  0.00  0.00    +0.013 A 
ATOM     19  C   UNL     1       5.494  -3.893  23.676  0.00  0.00    +0.022 A 
ENDBRANCH   7   9
ENDBRANCH   3   7
BRANCH   6  20
ATOM     20  O   UNL     1       9.633   2.017  21.316  0.00  0.00    -0.506 OA
ATOM     21  H   UNL     1       9.322   2.739  21.898  0.00  0.00    +0.292 HD
ENDBRANCH   6  20
BRANCH   1  22
ATOM     22  C   UNL     1       7.337   2.124  23.183  0.00  0.00    +0.123 C 
BRANCH  22  23
ATOM     23  N   UNL     1       8.263   3.021  23.897  0.00  0.00    -0.299 NA
BRANCH  23  25
ATOM     24  C   UNL     1       7.122   4.588  22.281  0.00  0.00    +0.020 C 
ATOM     25  C   UNL     1       8.152   4.404  23.393  0.00  0.00    +0.081 C 
ENDBRANCH  23  25
BRANCH  23  26
ATOM     26  C   UNL     1       8.050   2.903  25.359  0.00  0.00    +0.081 C 
ATOM     27  C   UNL     1       6.663   3.232  25.920  0.00  0.00    +0.020 C 
ENDBRANCH  23  26
ENDBRANCH  22  23
ENDBRANCH   1  22
TORSDOF 7
ENDMDL
MODEL 9
REMARK VINA RESULT:      -6.6      3.676      7.709
REMARK  Name = 
REMARK  9 active torsions:
REMARK  status: ('A' for Active; 'I' for Inactive)
REMARK    1  A    between atoms: C_1  and  C_2
REMARK    2  A    between atoms: C_2  and  N_3
REMARK    3  A    between atoms: N_3  and  C_4
REMARK    4  A    between atoms: N_3  and  C_6
REMARK    5  A    between atoms: C_4  and  C_5
REMARK    6  A    between atoms: C_6  and  C_7
REMARK    7  A    between atoms: C_8  and  O_9
REMARK    8  A    between atoms: C_12  and  N_13
REMARK    9  A    between atoms: N_13  and  C_14
REMARK                            x       y       z     vdW  Elec       q    Type
REMARK                         _______ _______ _______ _____ _____    ______ ____
ROOT
ATOM      1  C   UNL     1       5.222  -5.719  24.121  0.00  0.00    +0.010 A 
ATOM      2  C   UNL     1       6.447  -5.236  24.615  0.00  0.00    +0.031 A 
ATOM      3  C   UNL     1       7.447  -4.756  23.770  0.00  0.00    +0.032 A 
ATOM      4  C   UNL     1       7.270  -4.926  22.386  0.00  0.00    +0.027 A 
ATOM      5  C   UNL     1       6.107  -5.507  21.874  0.00  0.00    +0.047 A 
ATOM      6  C   UNL     1       5.089  -5.890  22.741  0.00  0.00    +0.121 A 
ENDROOT
BRANCH   3   7
ATOM      7  N   UNL     1       8.598  -4.081  24.228  0.00  0.00    -0.314 N 
ATOM      8  H   UNL     1       9.392  -4.322  23.648  0.00  0.00    +0.152 HD
BRANCH   7   9
ATOM      9  C   UNL     1       8.800  -2.839  24.893  0.00  0.00    +0.042 A 
ATOM     10  C   UNL     1       8.477  -2.640  26.236  0.00  0.00    +0.043 A 
ATOM     11  C   UNL     1       8.724  -1.417  26.825  0.00  0.00    +0.113 A 
ATOM     12  N   UNL     1       9.238  -0.361  26.169  0.00  0.00    -0.255 NA
ATOM     13  C   UNL     1       9.501  -0.503  24.866  0.00  0.00    +0.074 A 
ATOM     14  C   UNL     1       9.880   0.633  24.168  0.00  0.00    +0.048 A 
ATOM     15  C   UNL     1      10.057   0.603  22.788  0.00  0.00    +0.043 A 
ATOM     16 CL   UNL     1      10.339   2.064  21.926  0.00  0.00    -0.083 Cl
ATOM     17  C   UNL     1       9.974  -0.596  22.099  0.00  0.00    +0.021 A 
ATOM     18  C   UNL     1       9.670  -1.764  22.795  0.00  0.00    +0.013 A 
ATOM     19  C   UNL     1       9.346  -1.732  24.174  0.00  0.00    +0.022 A 
ENDBRANCH   7   9
ENDBRANCH   3   7
BRANCH   6  20
ATOM     20  O   UNL     1       3.964  -6.430  22.192  0.00  0.00    -0.506 OA
ATOM     21  H   UNL     1       3.730  -7.206  22.740  0.00  0.00    +0.292 HD
ENDBRANCH   6  20
BRANCH   1  22
ATOM     22  C   UNL     1       4.064  -5.838  25.091  0.00  0.00    +0.123 C 
BRANCH  22  23
ATOM     23  N   UNL     1       2.927  -4.928  24.874  0.00  0.00    -0.299 NA
BRANCH  23  25
ATOM     24  C   UNL     1       0.729  -5.121  23.647  0.00  0.00    +0.020 C 
ATOM     25  C   UNL     1       1.670  -5.684  24.710  0.00  0.00    +0.081 C 
ENDBRANCH  23  25
BRANCH  23  26
ATOM     26  C   UNL     1       2.876  -3.919  25.958  0.00  0.00    +0.081 C 
ATOM     27  C   UNL     1       3.802  -2.702  25.862  0.00  0.00    +0.020 C 
ENDBRANCH  23  26
ENDBRANCH  22  23
ENDBRANCH   1  22
TORSDOF 7
ENDMDL
