MODEL 1
REMARK VINA RESULT:      -7.5      0.000      0.000
REMARK  Name = 
REMARK  5 active torsions:
REMARK  status: ('A' for Active; 'I' for Inactive)
REMARK    1  A    between atoms: C_1  and  C_2
REMARK    2  A    between atoms: C_2  and  C_3
REMARK    3  A    between atoms: C_2  and  N_4
REMARK    4  A    between atoms: C_11  and  C_14
REMARK    5  A    between atoms: C_15  and  C_19
REMARK                            x       y       z     vdW  Elec       q    Type
REMARK                         _______ _______ _______ _____ _____    ______ ____
ROOT
ATOM      1  N   UNL     1      10.810   3.173  22.654  0.00  0.00    -0.321 N 
ATOM      2  H   UNL     1      10.492   3.562  21.773  0.00  0.00    +0.148 HD
ATOM      3  C   UNL     1      10.151   2.058  23.040  0.00  0.00    +0.159 A 
ATOM      4  S   UNL     1       9.007   1.392  21.949  0.00  0.00    -0.052 S 
ATOM      5  C   UNL     1       8.722   0.109  23.042  0.00  0.00    +0.041 A 
ATOM      6  C   UNL     1       7.905  -1.010  22.854  0.00  0.00    +0.029 A 
ATOM      7  C   UNL     1       7.970  -2.066  23.778  0.00  0.00    +0.021 A 
ATOM      8  C   UNL     1       8.715  -1.890  24.947  0.00  0.00    +0.014 A 
ATOM      9  C   UNL     1       9.435  -0.703  25.186  0.00  0.00    +0.029 A 
ATOM     10  C   UNL     1       9.490   0.289  24.187  0.00  0.00    +0.080 A 
ATOM     11  N   UNL     1      10.264   1.439  24.193  0.00  0.00    -0.225 NA
ENDROOT
BRANCH   7  12
ATOM     12  C   UNL     1       7.359  -3.335  23.385  0.00  0.00    +0.163 A 
ATOM     13  O   UNL     1       7.545  -3.629  22.053  0.00  0.00    -0.442 OA
ATOM     14  C   UNL     1       7.033  -4.869  21.885  0.00  0.00    +0.309 A 
ATOM     15  N   UNL     1       6.495  -5.389  22.956  0.00  0.00    -0.215 NA
ATOM     16  C   UNL     1       6.711  -4.432  23.937  0.00  0.00    +0.120 A 
BRANCH  16  17
ATOM     17  C   UNL     1       6.382  -4.669  25.331  0.00  0.00    +0.039 A 
ATOM     18  C   UNL     1       7.320  -5.271  26.180  0.00  0.00    +0.133 A 
ATOM     19  F   UNL     1       8.490  -5.734  25.711  0.00  0.00    -0.205 F 
ATOM     20  C   UNL     1       7.092  -5.376  27.550  0.00  0.00    +0.039 A 
ATOM     21  C   UNL     1       5.914  -4.875  28.097  0.00  0.00    +0.003 A 
ATOM     22  C   UNL     1       4.939  -4.334  27.261  0.00  0.00    +0.001 A 
ATOM     23  C   UNL     1       5.159  -4.261  25.882  0.00  0.00    +0.013 A 
ENDBRANCH  16  17
ENDBRANCH   7  12
BRANCH   1  25
ATOM     24  C   UNL     1      12.429   4.890  23.146  0.00  0.00    +0.027 C 
ATOM     25  C   UNL     1      11.175   4.171  23.648  0.00  0.00    +0.066 C 
ATOM     26  C   UNL     1      10.036   5.174  23.831  0.00  0.00    +0.027 C 
ENDBRANCH   1  25
TORSDOF 3
ENDMDL
MODEL 2
REMARK VINA RESULT:      -7.4      3.554      8.813
REMARK  Name = 
REMARK  5 active torsions:
REMARK  status: ('A' for Active; 'I' for Inactive)
REMARK    1  A    between atoms: C_1  and  C_2
REMARK    2  A    between atoms: C_2  and  C_3
REMARK    3  A    between atoms: C_2  and  N_4
REMARK    4  A    between atoms: C_11  and  C_14
REMARK    5  A    between atoms: C_15  and  C_19
REMARK                            x       y       z     vdW  Elec       q    Type
REMARK                         _______ _______ _______ _____ _____    ______ ____
ROOT
ATOM      1  N   UNL     1       8.859  -3.080  25.109  0.00  0.00    -0.321 N 
ATOM      2  H   UNL     1       8.609  -3.092  26.092  0.00  0.00    +0.148 HD
ATOM      3  C   UNL     1       9.052  -1.843  24.600  0.00  0.00    +0.159 A 
ATOM      4  S   UNL     1       8.995  -0.517  25.686  0.00  0.00    -0.052 S 
ATOM      5  C   UNL     1       9.373   0.544  24.400  0.00  0.00    +0.041 A 
ATOM      6  C   UNL     1       9.610   1.920  24.467  0.00  0.00    +0.029 A 
ATOM      7  C   UNL     1      10.122   2.581  23.339  0.00  0.00    +0.021 A 
ATOM      8  C   UNL     1      10.211   1.880  22.133  0.00  0.00    +0.014 A 
ATOM      9  C   UNL     1       9.849   0.521  22.047  0.00  0.00    +0.029 A 
ATOM     10  C   UNL     1       9.482  -0.176  23.215  0.00  0.00    +0.080 A 
ATOM     11  N   UNL     1       9.243  -1.536  23.338  0.00  0.00    -0.225 NA
ENDROOT
BRANCH   7  12
ATOM     12  C   UNL     1      10.656   3.927  23.539  0.00  0.00    +0.163 A 
ATOM     13  O   UNL     1      12.026   3.983  23.417  0.00  0.00    -0.442 OA
ATOM     14  C   UNL     1      12.340   5.295  23.508  0.00  0.00    +0.309 A 
ATOM     15  N   UNL     1      11.325   6.088  23.722  0.00  0.00    -0.215 NA
ATOM     16  C   UNL     1      10.230   5.235  23.724  0.00  0.00    +0.120 A 
BRANCH  16  17
ATOM     17  C   UNL     1       8.867   5.731  23.800  0.00  0.00    +0.039 A 
ATOM     18  C   UNL     1       8.118   5.547  24.970  0.00  0.00    +0.133 A 
ATOM     19  F   UNL     1       8.596   4.828  25.998  0.00  0.00    -0.205 F 
ATOM     20  C   UNL     1       6.867   6.138  25.127  0.00  0.00    +0.039 A 
ATOM     21  C   UNL     1       6.341   6.929  24.109  0.00  0.00    +0.003 A 
ATOM     22  C   UNL     1       7.039   7.068  22.911  0.00  0.00    +0.001 A 
ATOM     23  C   UNL     1       8.281   6.445  22.746  0.00  0.00    +0.013 A 
ENDBRANCH  16  17
ENDBRANCH   7  12
BRANCH   1  25
ATOM     24  C   UNL     1       8.797  -5.445  24.651  0.00  0.00    +0.027 C 
ATOM     25  C   UNL     1       8.180  -4.088  24.310  0.00  0.00    +0.066 C 
ATOM     26  C   UNL     1       6.686  -4.098  24.634  0.00  0.00    +0.027 C 
ENDBRANCH   1  25
TORSDOF 3
ENDMDL
MODEL 3
REMARK VINA RESULT:      -7.4      1.024      1.391
REMARK  Name = 
REMARK  5 active torsions:
REMARK  status: ('A' for Active; 'I' for Inactive)
REMARK    1  A    between atoms: C_1  and  C_2
REMARK    2  A    between atoms: C_2  and  C_3
REMARK    3  A    between atoms: C_2  and  N_4
REMARK    4  A    between atoms: C_11  and  C_14
REMARK    5  A    between atoms: C_15  and  C_19
REMARK                            x       y       z     vdW  Elec       q    Type
REMARK                         _______ _______ _______ _____ _____    ______ ____
ROOT
ATOM      1  N   UNL     1      10.958   3.394  22.637  0.00  0.00    -0.321 N 
ATOM      2  H   UNL     1      10.620   3.774  21.759  0.00  0.00    +0.148 HD
ATOM      3  C   UNL     1      10.293   2.296  23.060  0.00  0.00    +0.159 A 
ATOM      4  S   UNL     1       9.106   1.632  22.015  0.00  0.00    -0.052 S 
ATOM      5  C   UNL     1       8.834   0.371  23.136  0.00  0.00    +0.041 A 
ATOM      6  C   UNL     1       7.993  -0.736  22.991  0.00  0.00    +0.029 A 
ATOM      7  C   UNL     1       8.069  -1.779  23.929  0.00  0.00    +0.021 A 
ATOM      8  C   UNL     1       8.851  -1.597  25.073  0.00  0.00    +0.014 A 
ATOM      9  C   UNL     1       9.597  -0.419  25.271  0.00  0.00    +0.029 A 
ATOM     10  C   UNL     1       9.638   0.557  24.255  0.00  0.00    +0.080 A 
ATOM     11  N   UNL     1      10.431   1.694  24.219  0.00  0.00    -0.225 NA
ENDROOT
BRANCH   7  12
ATOM     12  C   UNL     1       7.426  -3.043  23.575  0.00  0.00    +0.163 A 
ATOM     13  O   UNL     1       7.559  -3.357  22.242  0.00  0.00    -0.442 OA
ATOM     14  C   UNL     1       7.024  -4.591  22.109  0.00  0.00    +0.309 A 
ATOM     15  N   UNL     1       6.518  -5.090  23.204  0.00  0.00    -0.215 NA
ATOM     16  C   UNL     1       6.783  -4.124  24.165  0.00  0.00    +0.120 A 
BRANCH  16  17
ATOM     17  C   UNL     1       6.501  -4.338  25.573  0.00  0.00    +0.039 A 
ATOM     18  C   UNL     1       5.439  -3.661  26.186  0.00  0.00    +0.133 A 
ATOM     19  F   UNL     1       4.730  -2.731  25.525  0.00  0.00    -0.205 F 
ATOM     20  C   UNL     1       5.051  -3.955  27.491  0.00  0.00    +0.039 A 
ATOM     21  C   UNL     1       5.724  -4.940  28.208  0.00  0.00    +0.003 A 
ATOM     22  C   UNL     1       6.826  -5.577  27.641  0.00  0.00    +0.001 A 
ATOM     23  C   UNL     1       7.232  -5.254  26.342  0.00  0.00    +0.013 A 
ENDBRANCH  16  17
ENDBRANCH   7  12
BRANCH   1  25
ATOM     24  C   UNL     1      12.634   5.072  23.065  0.00  0.00    +0.027 C 
ATOM     25  C   UNL     1      11.369   4.401  23.602  0.00  0.00    +0.066 C 
ATOM     26  C   UNL     1      10.263   5.441  23.783  0.00  0.00    +0.027 C 
ENDBRANCH   1  25
TORSDOF 3
ENDMDL
MODEL 4
REMARK VINA RESULT:      -7.1      2.979      4.389
REMARK  Name = 
REMARK  5 active torsions:
REMARK  status: ('A' for Active; 'I' for Inactive)
REMARK    1  A    between atoms: C_1  and  C_2
REMARK    2  A    between atoms: C_2  and  C_3
REMARK    3  A    between atoms: C_2  and  N_4
REMARK    4  A    between atoms: C_11  and  C_14
REMARK    5  A    between atoms: C_15  and  C_19
REMARK                            x       y       z     vdW  Elec       q    Type
REMARK                         _______ _______ _______ _____ _____    ______ ____
ROOT
ATOM      1  N   UNL     1       8.823   0.327  23.458  0.00  0.00    -0.321 N 
ATOM      2  H   UNL     1       8.217   1.080  23.764  0.00  0.00    +0.148 HD
ATOM      3  C   UNL     1       8.687  -0.818  24.162  0.00  0.00    +0.159 A 
ATOM      4  S   UNL     1       7.442  -0.883  25.341  0.00  0.00    -0.052 S 
ATOM      5  C   UNL     1       7.854  -2.508  25.675  0.00  0.00    +0.041 A 
ATOM      6  C   UNL     1       7.207  -3.394  26.542  0.00  0.00    +0.029 A 
ATOM      7  C   UNL     1       7.559  -4.754  26.517  0.00  0.00    +0.021 A 
ATOM      8  C   UNL     1       8.665  -5.147  25.758  0.00  0.00    +0.014 A 
ATOM      9  C   UNL     1       9.390  -4.219  24.985  0.00  0.00    +0.029 A 
ATOM     10  C   UNL     1       8.939  -2.888  24.893  0.00  0.00    +0.080 A 
ATOM     11  N   UNL     1       9.438  -1.891  24.069  0.00  0.00    -0.225 NA
ENDROOT
BRANCH   7  12
ATOM     12  C   UNL     1       6.657  -5.690  27.186  0.00  0.00    +0.163 A 
ATOM     13  O   UNL     1       7.115  -6.084  28.422  0.00  0.00    -0.442 OA
ATOM     14  C   UNL     1       6.124  -6.840  28.947  0.00  0.00    +0.309 A 
ATOM     15  N   UNL     1       5.093  -7.013  28.164  0.00  0.00    -0.215 NA
ATOM     16  C   UNL     1       5.403  -6.266  27.035  0.00  0.00    +0.120 A 
BRANCH  16  17
ATOM     17  C   UNL     1       4.453  -6.075  25.953  0.00  0.00    +0.039 A 
ATOM     18  C   UNL     1       3.757  -4.865  25.838  0.00  0.00    +0.133 A 
ATOM     19  F   UNL     1       3.868  -3.904  26.769  0.00  0.00    -0.205 F 
ATOM     20  C   UNL     1       2.955  -4.595  24.732  0.00  0.00    +0.039 A 
ATOM     21  C   UNL     1       2.836  -5.539  23.715  0.00  0.00    +0.003 A 
ATOM     22  C   UNL     1       3.466  -6.776  23.843  0.00  0.00    +0.001 A 
ATOM     23  C   UNL     1       4.244  -7.054  24.972  0.00  0.00    +0.013 A 
ENDBRANCH  16  17
ENDBRANCH   7  12
BRANCH   1  25
ATOM     24  C   UNL     1       9.971   1.813  21.946  0.00  0.00    +0.027 C 
ATOM     25  C   UNL     1      10.148   0.761  23.043  0.00  0.00    +0.066 C 
ATOM     26  C   UNL     1      10.900   1.365  24.229  0.00  0.00    +0.027 C 
ENDBRANCH   1  25
TORSDOF 3
ENDMDL
MODEL 5
REMARK VINA RESULT:      -7.0      2.357      3.115
REMARK  Name = 
REMARK  5 active torsions:
REMARK  status: ('A' for Active; 'I' for Inactive)
REMARK    1  A    between atoms: C_1  and  C_2
REMARK    2  A    between atoms: C_2  and  C_3
REMARK    3  A    between atoms: C_2  and  N_4
REMARK    4  A    between atoms: C_11  and  C_14
REMARK    5  A    between atoms: C_15  and  C_19
REMARK                            x       y       z     vdW  Elec       q    Type
REMARK                         _______ _______ _______ _____ _____    ______ ____
ROOT
ATOM      1  N   UNL     1       7.814   3.730  23.824  0.00  0.00    -0.321 N 
ATOM      2  H   UNL     1       7.727   4.041  24.785  0.00  0.00    +0.148 HD
ATOM      3  C   UNL     1       8.213   2.446  23.688  0.00  0.00    +0.159 A 
ATOM      4  S   UNL     1       8.368   1.506  25.114  0.00  0.00    -0.052 S 
ATOM      5  C   UNL     1       8.784   0.147  24.165  0.00  0.00    +0.041 A 
ATOM      6  C   UNL     1       9.011  -1.163  24.599  0.00  0.00    +0.029 A 
ATOM      7  C   UNL     1       9.125  -2.188  23.646  0.00  0.00    +0.021 A 
ATOM      8  C   UNL     1       9.186  -1.843  22.293  0.00  0.00    +0.014 A 
ATOM      9  C   UNL     1       9.083  -0.502  21.873  0.00  0.00    +0.029 A 
ATOM     10  C   UNL     1       8.814   0.505  22.822  0.00  0.00    +0.080 A 
ATOM     11  N   UNL     1       8.536   1.839  22.570  0.00  0.00    -0.225 NA
ENDROOT
BRANCH   7  12
ATOM     12  C   UNL     1       9.037  -3.564  24.131  0.00  0.00    +0.163 A 
ATOM     13  O   UNL     1      10.193  -3.991  24.744  0.00  0.00    -0.442 OA
ATOM     14  C   UNL     1       9.908  -5.218  25.233  0.00  0.00    +0.309 A 
ATOM     15  N   UNL     1       8.705  -5.649  24.964  0.00  0.00    -0.215 NA
ATOM     16  C   UNL     1       8.119  -4.596  24.275  0.00  0.00    +0.120 A 
BRANCH  16  17
ATOM     17  C   UNL     1       6.717  -4.606  23.898  0.00  0.00    +0.039 A 
ATOM     18  C   UNL     1       6.268  -5.471  22.891  0.00  0.00    +0.133 A 
ATOM     19  F   UNL     1       7.126  -6.226  22.187  0.00  0.00    -0.205 F 
ATOM     20  C   UNL     1       4.911  -5.611  22.611  0.00  0.00    +0.039 A 
ATOM     21  C   UNL     1       3.974  -4.883  23.340  0.00  0.00    +0.003 A 
ATOM     22  C   UNL     1       4.404  -3.967  24.298  0.00  0.00    +0.001 A 
ATOM     23  C   UNL     1       5.770  -3.806  24.553  0.00  0.00    +0.013 A 
ENDBRANCH  16  17
ENDBRANCH   7  12
BRANCH   1  25
ATOM     24  C   UNL     1       7.134   5.410  22.235  0.00  0.00    +0.027 C 
ATOM     25  C   UNL     1       8.330   4.742  22.915  0.00  0.00    +0.066 C 
ATOM     26  C   UNL     1       9.139   5.783  23.690  0.00  0.00    +0.027 C 
ENDBRANCH   1  25
TORSDOF 3
ENDMDL
MODEL 6
REMARK VINA RESULT:      -7.0      3.797      8.833
REMARK  Name = 
REMARK  5 active torsions:
REMARK  status: ('A' for Active; 'I' for Inactive)
REMARK    1  A    between atoms: C_1  and  C_2
REMARK    2  A    between atoms: C_2  and  C_3
REMARK    3  A    between atoms: C_2  and  N_4
REMARK    4  A    between atoms: C_11  and  C_14
REMARK    5  A    between atoms: C_15  and  C_19
REMARK                            x       y       z     vdW  Elec       q    Type
REMARK                         _______ _______ _______ _____ _____    ______ ____
ROOT
ATOM      1  N   UNL     1       7.998  -2.841  24.650  0.00  0.00    -0.321 N 
ATOM      2  H   UNL     1       7.632  -2.861  25.595  0.00  0.00    +0.148 HD
ATOM      3  C   UNL     1       8.359  -1.613  24.218  0.00  0.00    +0.159 A 
ATOM      4  S   UNL     1       8.292  -0.322  25.346  0.00  0.00    -0.052 S 
ATOM      5  C   UNL     1       8.914   0.739  24.158  0.00  0.00    +0.041 A 
ATOM      6  C   UNL     1       9.263   2.084  24.311  0.00  0.00    +0.029 A 
ATOM      7  C   UNL     1       9.964   2.729  23.279  0.00  0.00    +0.021 A 
ATOM      8  C   UNL     1      10.134   2.061  22.063  0.00  0.00    +0.014 A 
ATOM      9  C   UNL     1       9.664   0.746  21.878  0.00  0.00    +0.029 A 
ATOM     10  C   UNL     1       9.099   0.050  22.965  0.00  0.00    +0.080 A 
ATOM     11  N   UNL     1       8.727  -1.285  23.001  0.00  0.00    -0.225 NA
ENDROOT
BRANCH   7  12
ATOM     12  C   UNL     1      10.587   4.012  23.596  0.00  0.00    +0.163 A 
ATOM     13  O   UNL     1      11.907   4.076  23.209  0.00  0.00    -0.442 OA
ATOM     14  C   UNL     1      12.293   5.348  23.461  0.00  0.00    +0.309 A 
ATOM     15  N   UNL     1      11.378   6.100  24.010  0.00  0.00    -0.215 NA
ATOM     16  C   UNL     1      10.267   5.271  24.088  0.00  0.00    +0.120 A 
BRANCH  16  17
ATOM     17  C   UNL     1       8.970   5.758  24.524  0.00  0.00    +0.039 A 
ATOM     18  C   UNL     1       8.090   6.332  23.597  0.00  0.00    +0.133 A 
ATOM     19  F   UNL     1       8.457   6.540  22.322  0.00  0.00    -0.205 F 
ATOM     20  C   UNL     1       6.787   6.671  23.953  0.00  0.00    +0.039 A 
ATOM     21  C   UNL     1       6.340   6.439  25.250  0.00  0.00    +0.003 A 
ATOM     22  C   UNL     1       7.220   5.932  26.204  0.00  0.00    +0.001 A 
ATOM     23  C   UNL     1       8.538   5.623  25.850  0.00  0.00    +0.013 A 
ENDBRANCH  16  17
ENDBRANCH   7  12
BRANCH   1  25
ATOM     24  C   UNL     1       7.996  -5.126  23.882  0.00  0.00    +0.027 C 
ATOM     25  C   UNL     1       7.332  -3.756  23.735  0.00  0.00    +0.066 C 
ATOM     26  C   UNL     1       5.846  -3.857  24.080  0.00  0.00    +0.027 C 
ENDBRANCH   1  25
TORSDOF 3
ENDMDL
MODEL 7
REMARK VINA RESULT:      -6.7      2.510      3.745
REMARK  Name = 
REMARK  5 active torsions:
REMARK  status: ('A' for Active; 'I' for Inactive)
REMARK    1  A    between atoms: C_1  and  C_2
REMARK    2  A    between atoms: C_2  and  C_3
REMARK    3  A    between atoms: C_2  and  N_4
REMARK    4  A    between atoms: C_11  and  C_14
REMARK    5  A    between atoms: C_15  and  C_19
REMARK                            x       y       z     vdW  Elec       q    Type
REMARK                         _______ _______ _______ _____ _____    ______ ____
ROOT
ATOM      1  N   UNL     1       7.130   3.104  23.840  0.00  0.00    -0.321 N 
ATOM      2  H   UNL     1       6.346   3.502  24.346  0.00  0.00    +0.148 HD
ATOM      3  C   UNL     1       7.469   1.856  24.231  0.00  0.00    +0.159 A 
ATOM      4  S   UNL     1       6.464   1.084  25.387  0.00  0.00    -0.052 S 
ATOM      5  C   UNL     1       7.434  -0.320  25.281  0.00  0.00    +0.041 A 
ATOM      6  C   UNL     1       7.227  -1.552  25.909  0.00  0.00    +0.029 A 
ATOM      7  C   UNL     1       8.010  -2.653  25.527  0.00  0.00    +0.021 A 
ATOM      8  C   UNL     1       9.088  -2.443  24.662  0.00  0.00    +0.014 A 
ATOM      9  C   UNL     1       9.365  -1.167  24.134  0.00  0.00    +0.029 A 
ATOM     10  C   UNL     1       8.485  -0.098  24.399  0.00  0.00    +0.080 A 
ATOM     11  N   UNL     1       8.521   1.172  23.845  0.00  0.00    -0.225 NA
ENDROOT
BRANCH   7  12
ATOM     12  C   UNL     1       7.558  -3.975  25.957  0.00  0.00    +0.163 A 
ATOM     13  O   UNL     1       7.580  -4.129  27.325  0.00  0.00    -0.442 OA
ATOM     14  C   UNL     1       7.028  -5.341  27.558  0.00  0.00    +0.309 A 
ATOM     15  N   UNL     1       6.694  -6.007  26.485  0.00  0.00    -0.215 NA
ATOM     16  C   UNL     1       7.006  -5.141  25.445  0.00  0.00    +0.120 A 
BRANCH  16  17
ATOM     17  C   UNL     1       6.665  -5.440  24.065  0.00  0.00    +0.039 A 
ATOM     18  C   UNL     1       5.322  -5.557  23.684  0.00  0.00    +0.133 A 
ATOM     19  F   UNL     1       4.333  -5.502  24.590  0.00  0.00    -0.205 F 
ATOM     20  C   UNL     1       4.960  -5.695  22.347  0.00  0.00    +0.039 A 
ATOM     21  C   UNL     1       5.942  -5.715  21.361  0.00  0.00    +0.003 A 
ATOM     22  C   UNL     1       7.287  -5.669  21.725  0.00  0.00    +0.001 A 
ATOM     23  C   UNL     1       7.647  -5.564  23.073  0.00  0.00    +0.013 A 
ENDBRANCH  16  17
ENDBRANCH   7  12
BRANCH   1  25
ATOM     24  C   UNL     1       7.561   5.129  22.605  0.00  0.00    +0.027 C 
ATOM     25  C   UNL     1       8.175   4.063  23.514  0.00  0.00    +0.066 C 
ATOM     26  C   UNL     1       8.712   4.712  24.790  0.00  0.00    +0.027 C 
ENDBRANCH   1  25
TORSDOF 3
ENDMDL
MODEL 8
REMARK VINA RESULT:      -6.7      1.459      1.654
REMARK  Name = 
REMARK  5 active torsions:
REMARK  status: ('A' for Active; 'I' for Inactive)
REMARK    1  A    between atoms: C_1  and  C_2
REMARK    2  A    between atoms: C_2  and  C_3
REMARK    3  A    between atoms: C_2  and  N_4
REMARK    4  A    between atoms: C_11  and  C_14
REMARK    5  A    between atoms: C_15  and  C_19
REMARK                            x       y       z     vdW  Elec       q    Type
REMARK                         _______ _______ _______ _____ _____    ______ ____
ROOT
ATOM      1  N   UNL     1       9.573   2.979  23.451  0.00  0.00    -0.321 N 
ATOM      2  H   UNL     1      10.170   3.074  22.636  0.00  0.00    +0.148 HD
ATOM      3  C   UNL     1       8.767   1.896  23.427  0.00  0.00    +0.159 A 
ATOM      4  S   UNL     1       8.965   0.785  22.135  0.00  0.00    -0.052 S 
ATOM      5  C   UNL     1       7.760  -0.216  22.821  0.00  0.00    +0.041 A 
ATOM      6  C   UNL     1       7.340  -1.475  22.380  0.00  0.00    +0.029 A 
ATOM      7  C   UNL     1       6.495  -2.239  23.201  0.00  0.00    +0.021 A 
ATOM      8  C   UNL     1       5.957  -1.647  24.347  0.00  0.00    +0.014 A 
ATOM      9  C   UNL     1       6.289  -0.328  24.715  0.00  0.00    +0.029 A 
ATOM     10  C   UNL     1       7.256   0.378  23.972  0.00  0.00    +0.080 A 
ATOM     11  N   UNL     1       7.807   1.613  24.277  0.00  0.00    -0.225 NA
ENDROOT
BRANCH   7  12
ATOM     12  C   UNL     1       6.341  -3.654  22.867  0.00  0.00    +0.163 A 
ATOM     13  O   UNL     1       6.297  -3.883  21.511  0.00  0.00    -0.442 OA
ATOM     14  C   UNL     1       6.275  -5.228  21.374  0.00  0.00    +0.309 A 
ATOM     15  N   UNL     1       6.254  -5.892  22.498  0.00  0.00    -0.215 NA
ATOM     16  C   UNL     1       6.317  -4.904  23.472  0.00  0.00    +0.120 A 
BRANCH  16  17
ATOM     17  C   UNL     1       6.452  -5.218  24.883  0.00  0.00    +0.039 A 
ATOM     18  C   UNL     1       7.698  -5.096  25.512  0.00  0.00    +0.133 A 
ATOM     19  F   UNL     1       8.804  -4.791  24.816  0.00  0.00    -0.205 F 
ATOM     20  C   UNL     1       7.829  -5.246  26.891  0.00  0.00    +0.039 A 
ATOM     21  C   UNL     1       6.707  -5.521  27.668  0.00  0.00    +0.003 A 
ATOM     22  C   UNL     1       5.471  -5.714  27.053  0.00  0.00    +0.001 A 
ATOM     23  C   UNL     1       5.351  -5.595  25.664  0.00  0.00    +0.013 A 
ENDBRANCH  16  17
ENDBRANCH   7  12
BRANCH   1  25
ATOM     24  C   UNL     1      10.241   5.215  24.055  0.00  0.00    +0.027 C 
ATOM     25  C   UNL     1       9.065   4.242  23.964  0.00  0.00    +0.066 C 
ATOM     26  C   UNL     1       7.996   4.801  23.024  0.00  0.00    +0.027 C 
ENDBRANCH   1  25
TORSDOF 3
ENDMDL
MODEL 9
REMARK VINA RESULT:      -6.6      3.808      8.732
REMARK  Name = 
REMARK  5 active torsions:
REMARK  status: ('A' for Active; 'I' for Inactive)
REMARK    1  A    between atoms: C_1  and  C_2
REMARK    2  A    between atoms: C_2  and  C_3
REMARK    3  A    between atoms: C_2  and  N_4
REMARK    4  A    between atoms: C_11  and  C_14
REMARK    5  A    between atoms: C_15  and  C_19
REMARK                            x       y       z     vdW  Elec       q    Type
REMARK                         _______ _______ _______ _____ _____    ______ ____
ROOT
ATOM      1  N   UNL     1       7.578  -3.273  22.123  0.00  0.00    -0.321 N 
ATOM      2  H   UNL     1       8.172  -3.623  21.379  0.00  0.00    +0.148 HD
ATOM      3  C   UNL     1       8.009  -2.122  22.685  0.00  0.00    +0.159 A 
ATOM      4  S   UNL     1       9.377  -1.359  21.984  0.00  0.00    -0.052 S 
ATOM      5  C   UNL     1       9.229  -0.079  23.108  0.00  0.00    +0.041 A 
ATOM      6  C   UNL     1       9.983   1.097  23.169  0.00  0.00    +0.029 A 
ATOM      7  C   UNL     1       9.569   2.129  24.027  0.00  0.00    +0.021 A 
ATOM      8  C   UNL     1       8.523   1.881  24.920  0.00  0.00    +0.014 A 
ATOM      9  C   UNL     1       7.851   0.643  24.936  0.00  0.00    +0.029 A 
ATOM     10  C   UNL     1       8.169  -0.333  23.970  0.00  0.00    +0.080 A 
ATOM     11  N   UNL     1       7.513  -1.533  23.748  0.00  0.00    -0.225 NA
ENDROOT
BRANCH   7  12
ATOM     12  C   UNL     1      10.177   3.444  23.830  0.00  0.00    +0.163 A 
ATOM     13  O   UNL     1      11.535   3.379  23.612  0.00  0.00    -0.442 OA
ATOM     14  C   UNL     1      11.914   4.646  23.335  0.00  0.00    +0.309 A 
ATOM     15  N   UNL     1      10.956   5.531  23.394  0.00  0.00    -0.215 NA
ATOM     16  C   UNL     1       9.826   4.780  23.690  0.00  0.00    +0.120 A 
BRANCH  16  17
ATOM     17  C   UNL     1       8.497   5.364  23.717  0.00  0.00    +0.039 A 
ATOM     18  C   UNL     1       8.208   6.407  24.608  0.00  0.00    +0.133 A 
ATOM     19  F   UNL     1       9.106   6.816  25.518  0.00  0.00    -0.205 F 
ATOM     20  C   UNL     1       6.993   7.086  24.555  0.00  0.00    +0.039 A 
ATOM     21  C   UNL     1       6.041   6.731  23.603  0.00  0.00    +0.003 A 
ATOM     22  C   UNL     1       6.282   5.653  22.753  0.00  0.00    +0.001 A 
ATOM     23  C   UNL     1       7.491   4.953  22.833  0.00  0.00    +0.013 A 
ENDBRANCH  16  17
ENDBRANCH   7  12
BRANCH   1  25
ATOM     24  C   UNL     1       6.368  -5.357  22.046  0.00  0.00    +0.027 C 
ATOM     25  C   UNL     1       7.004  -4.311  22.965  0.00  0.00    +0.066 C 
ATOM     26  C   UNL     1       8.094  -4.960  23.819  0.00  0.00    +0.027 C 
ENDBRANCH   1  25
TORSDOF 3
ENDMDL
