MODEL 1
REMARK VINA RESULT:      -6.1      0.000      0.000
REMARK  Name = 
REMARK  13 active torsions:
REMARK  status: ('A' for Active; 'I' for Inactive)
REMARK    1  A    between atoms: C_1  and  C_2
REMARK    2  A    between atoms: C_2  and  N_4
REMARK    3  A    between atoms: C_2  and  C_21
REMARK    4  A    between atoms: N_4  and  C_5
REMARK    5  A    between atoms: C_5  and  N_7
REMARK    6  A    between atoms: C_5  and  N_12
REMARK    7  A    between atoms: N_7  and  C_8
REMARK    8  A    between atoms: C_8  and  C_9
REMARK    9  A    between atoms: C_9  and  O_10
REMARK   10  A    between atoms: C_9  and  O_11
REMARK   11  A    between atoms: N_12  and  C_13
REMARK   12  A    between atoms: C_16  and  C_17
REMARK   13  A    between atoms: C_17  and  N_18
REMARK                            x       y       z     vdW  Elec       q    Type
REMARK                         _______ _______ _______ _____ _____    ______ ____
ROOT
ATOM      1  C   UNL     1       8.584  -1.538  23.106  0.00  0.00    +0.212 C 
ENDROOT
BRANCH   1   2
ATOM      2  N   UNL     1       9.035  -1.860  24.440  0.00  0.00    -0.280 NA
ATOM      3  H   UNL     1       9.983  -2.186  24.585  0.00  0.00    +0.125 HD
BRANCH   2   5
ATOM      4  C   UNL     1       8.844  -0.890  26.747  0.00  0.00    +0.029 C 
ATOM      5  C   UNL     1       8.159  -1.639  25.601  0.00  0.00    +0.084 C 
BRANCH   5   6
ATOM      6  C   UNL     1       7.649  -2.949  26.176  0.00  0.00    -0.031 A 
ATOM      7  C   UNL     1       6.305  -3.120  26.549  0.00  0.00    +0.005 A 
ATOM      8  C   UNL     1       5.770  -4.404  26.685  0.00  0.00    +0.000 A 
ATOM      9  C   UNL     1       6.573  -5.523  26.474  0.00  0.00    +0.000 A 
ATOM     10  C   UNL     1       7.927  -5.366  26.194  0.00  0.00    +0.000 A 
ATOM     11  C   UNL     1       8.467  -4.086  26.062  0.00  0.00    +0.005 A 
ENDBRANCH   5   6
ENDBRANCH   2   5
ENDBRANCH   1   2
BRANCH   1  12
ATOM     12  N   UNL     1       8.265  -2.736  22.372  0.00  0.00    -0.317 N 
ATOM     13  H   UNL     1       8.957  -3.085  21.723  0.00  0.00    +0.149 HD
BRANCH  12  14
ATOM     14  C   UNL     1       7.115  -3.566  22.584  0.00  0.00    +0.029 A 
ATOM     15  C   UNL     1       7.286  -4.952  22.527  0.00  0.00    +0.023 A 
ATOM     16  C   UNL     1       6.213  -5.816  22.784  0.00  0.00    +0.007 A 
ATOM     17  C   UNL     1       4.945  -5.308  23.106  0.00  0.00    -0.034 A 
ATOM     18  C   UNL     1       4.774  -3.919  23.125  0.00  0.00    +0.007 A 
ATOM     19  C   UNL     1       5.848  -3.055  22.861  0.00  0.00    +0.023 A 
BRANCH  17  20
ATOM     20  C   UNL     1       3.809  -6.237  23.463  0.00  0.00    +0.113 C 
BRANCH  20  21
ATOM     21  N   UNL     1       4.283  -7.454  24.105  0.00  0.00    -0.326 NA
ATOM     22  H   UNL     1       3.487  -7.940  24.521  0.00  0.00    +0.119 HD
ATOM     23  H   UNL     1       4.649  -8.087  23.395  0.00  0.00    +0.119 HD
ENDBRANCH  20  21
ENDBRANCH  17  20
ENDBRANCH  12  14
ENDBRANCH   1  12
BRANCH   1  24
ATOM     24  N   UNL     1       9.588  -0.789  22.423  0.00  0.00    -0.279 NA
ATOM     25  H   UNL     1      10.056  -1.167  21.601  0.00  0.00    +0.125 HD
BRANCH  24  26
ATOM     26  C   UNL     1      10.109   0.503  22.914  0.00  0.00    +0.172 C 
BRANCH  26  27
ATOM     27  C   UNL     1       9.494   1.645  22.090  0.00  0.00    +0.360 C 
BRANCH  27  28
ATOM     28  O   UNL     1       8.911   1.083  20.929  0.00  0.00    -0.506 OA
ATOM     29  H   UNL     1       8.011   1.449  20.867  0.00  0.00    +0.287 HD
ENDBRANCH  27  28
BRANCH  27  30
ATOM     30  O   UNL     1      10.537   2.507  21.683  0.00  0.00    -0.506 OA
ATOM     31  H   UNL     1      10.734   2.306  20.750  0.00  0.00    +0.287 HD
ENDBRANCH  27  30
ENDBRANCH  26  27
ENDBRANCH  24  26
ENDBRANCH   1  24
TORSDOF 12
ENDMDL
MODEL 2
REMARK VINA RESULT:      -6.1      4.182      7.019
REMARK  Name = 
REMARK  13 active torsions:
REMARK  status: ('A' for Active; 'I' for Inactive)
REMARK    1  A    between atoms: C_1  and  C_2
REMARK    2  A    between atoms: C_2  and  N_4
REMARK    3  A    between atoms: C_2  and  C_21
REMARK    4  A    between atoms: N_4  and  C_5
REMARK    5  A    between atoms: C_5  and  N_7
REMARK    6  A    between atoms: C_5  and  N_12
REMARK    7  A    between atoms: N_7  and  C_8
REMARK    8  A    between atoms: C_8  and  C_9
REMARK    9  A    between atoms: C_9  and  O_10
REMARK   10  A    between atoms: C_9  and  O_11
REMARK   11  A    between atoms: N_12  and  C_13
REMARK   12  A    between atoms: C_16  and  C_17
REMARK   13  A    between atoms: C_17  and  N_18
REMARK                            x       y       z     vdW  Elec       q    Type
REMARK                         _______ _______ _______ _____ _____    ______ ____
ROOT
ATOM      1  C   UNL     1       6.908  -5.135  27.096  0.00  0.00    +0.212 C 
ENDROOT
BRANCH   1   2
ATOM      2  N   UNL     1       6.452  -6.011  26.041  0.00  0.00    -0.280 NA
ATOM      3  H   UNL     1       6.949  -6.872  25.854  0.00  0.00    +0.125 HD
BRANCH   2   5
ATOM      4  C   UNL     1       4.405  -6.947  24.933  0.00  0.00    +0.029 C 
ATOM      5  C   UNL     1       5.224  -5.704  25.291  0.00  0.00    +0.084 C 
BRANCH   5   6
ATOM      6  C   UNL     1       5.526  -4.986  23.988  0.00  0.00    -0.031 A 
ATOM      7  C   UNL     1       5.041  -3.694  23.725  0.00  0.00    +0.005 A 
ATOM      8  C   UNL     1       5.641  -2.905  22.739  0.00  0.00    +0.000 A 
ATOM      9  C   UNL     1       6.709  -3.404  21.995  0.00  0.00    +0.000 A 
ATOM     10  C   UNL     1       7.137  -4.714  22.184  0.00  0.00    +0.000 A 
ATOM     11  C   UNL     1       6.538  -5.507  23.163  0.00  0.00    +0.005 A 
ENDBRANCH   5   6
ENDBRANCH   2   5
ENDBRANCH   1   2
BRANCH   1  12
ATOM     12  N   UNL     1       8.239  -4.657  26.823  0.00  0.00    -0.317 N 
ATOM     13  H   UNL     1       9.010  -5.149  27.253  0.00  0.00    +0.149 HD
BRANCH  12  14
ATOM     14  C   UNL     1       8.585  -3.635  25.878  0.00  0.00    +0.029 A 
ATOM     15  C   UNL     1       9.569  -3.924  24.930  0.00  0.00    +0.023 A 
ATOM     16  C   UNL     1       9.908  -2.988  23.943  0.00  0.00    +0.007 A 
ATOM     17  C   UNL     1       9.265  -1.742  23.886  0.00  0.00    -0.034 A 
ATOM     18  C   UNL     1       8.306  -1.447  24.862  0.00  0.00    +0.007 A 
ATOM     19  C   UNL     1       7.972  -2.383  25.853  0.00  0.00    +0.023 A 
BRANCH  17  20
ATOM     20  C   UNL     1       9.570  -0.765  22.776  0.00  0.00    +0.113 C 
BRANCH  20  21
ATOM     21  N   UNL     1      10.033  -1.438  21.571  0.00  0.00    -0.326 NA
ATOM     22  H   UNL     1       9.808  -2.431  21.641  0.00  0.00    +0.119 HD
ATOM     23  H   UNL     1       9.505  -1.094  20.770  0.00  0.00    +0.119 HD
ENDBRANCH  20  21
ENDBRANCH  17  20
ENDBRANCH  12  14
ENDBRANCH   1  12
BRANCH   1  24
ATOM     24  N   UNL     1       6.873  -5.823  28.345  0.00  0.00    -0.279 NA
ATOM     25  H   UNL     1       7.583  -6.514  28.584  0.00  0.00    +0.125 HD
BRANCH  24  26
ATOM     26  C   UNL     1       5.764  -5.690  29.313  0.00  0.00    +0.172 C 
BRANCH  26  27
ATOM     27  C   UNL     1       4.696  -6.753  29.011  0.00  0.00    +0.360 C 
BRANCH  27  28
ATOM     28  O   UNL     1       4.197  -7.236  30.244  0.00  0.00    -0.506 OA
ATOM     29  H   UNL     1       3.240  -7.364  30.124  0.00  0.00    +0.287 HD
ENDBRANCH  27  28
BRANCH  27  30
ATOM     30  O   UNL     1       5.322  -7.828  28.341  0.00  0.00    -0.506 OA
ATOM     31  H   UNL     1       5.647  -7.490  27.487  0.00  0.00    +0.287 HD
ENDBRANCH  27  30
ENDBRANCH  26  27
ENDBRANCH  24  26
ENDBRANCH   1  24
TORSDOF 12
ENDMDL
MODEL 3
REMARK VINA RESULT:      -6.0      4.080      6.481
REMARK  Name = 
REMARK  13 active torsions:
REMARK  status: ('A' for Active; 'I' for Inactive)
REMARK    1  A    between atoms: C_1  and  C_2
REMARK    2  A    between atoms: C_2  and  N_4
REMARK    3  A    between atoms: C_2  and  C_21
REMARK    4  A    between atoms: N_4  and  C_5
REMARK    5  A    between atoms: C_5  and  N_7
REMARK    6  A    between atoms: C_5  and  N_12
REMARK    7  A    between atoms: N_7  and  C_8
REMARK    8  A    between atoms: C_8  and  C_9
REMARK    9  A    between atoms: C_9  and  O_10
REMARK   10  A    between atoms: C_9  and  O_11
REMARK   11  A    between atoms: N_12  and  C_13
REMARK   12  A    between atoms: C_16  and  C_17
REMARK   13  A    between atoms: C_17  and  N_18
REMARK                            x       y       z     vdW  Elec       q    Type
REMARK                         _______ _______ _______ _____ _____    ______ ____
ROOT
ATOM      1  C   UNL     1      10.094   4.439  23.429  0.00  0.00    +0.212 C 
ENDROOT
BRANCH   1   2
ATOM      2  N   UNL     1       9.466   4.520  24.727  0.00  0.00    -0.280 NA
ATOM      3  H   UNL     1      10.036   4.492  25.563  0.00  0.00    +0.125 HD
BRANCH   2   5
ATOM      4  C   UNL     1       7.583   5.231  26.225  0.00  0.00    +0.029 C 
ATOM      5  C   UNL     1       8.015   4.727  24.845  0.00  0.00    +0.084 C 
BRANCH   5   6
ATOM      6  C   UNL     1       7.241   3.447  24.583  0.00  0.00    -0.031 A 
ATOM      7  C   UNL     1       6.684   3.164  23.324  0.00  0.00    +0.005 A 
ATOM      8  C   UNL     1       6.344   1.851  22.986  0.00  0.00    +0.000 A 
ATOM      9  C   UNL     1       6.533   0.819  23.902  0.00  0.00    +0.000 A 
ATOM     10  C   UNL     1       6.998   1.102  25.183  0.00  0.00    +0.000 A 
ATOM     11  C   UNL     1       7.334   2.411  25.528  0.00  0.00    +0.005 A 
ENDBRANCH   5   6
ENDBRANCH   2   5
ENDBRANCH   1   2
BRANCH   1  12
ATOM     12  N   UNL     1      10.966   3.294  23.353  0.00  0.00    -0.317 N 
ATOM     13  H   UNL     1      11.950   3.443  23.529  0.00  0.00    +0.149 HD
BRANCH  12  14
ATOM     14  C   UNL     1      10.546   1.932  23.197  0.00  0.00    +0.029 A 
ATOM     15  C   UNL     1      10.709   1.066  24.282  0.00  0.00    +0.023 A 
ATOM     16  C   UNL     1      10.265  -0.261  24.212  0.00  0.00    +0.007 A 
ATOM     17  C   UNL     1       9.645  -0.748  23.050  0.00  0.00    -0.034 A 
ATOM     18  C   UNL     1       9.519   0.115  21.956  0.00  0.00    +0.007 A 
ATOM     19  C   UNL     1       9.970   1.442  22.026  0.00  0.00    +0.023 A 
BRANCH  17  20
ATOM     20  C   UNL     1       9.093  -2.153  23.001  0.00  0.00    +0.113 C 
BRANCH  20  21
ATOM     21  N   UNL     1       9.826  -3.056  23.875  0.00  0.00    -0.326 NA
ATOM     22  H   UNL     1       9.160  -3.645  24.376  0.00  0.00    +0.119 HD
ATOM     23  H   UNL     1      10.383  -3.695  23.308  0.00  0.00    +0.119 HD
ENDBRANCH  20  21
ENDBRANCH  17  20
ENDBRANCH  12  14
ENDBRANCH   1  12
BRANCH   1  24
ATOM     24  N   UNL     1      10.824   5.637  23.169  0.00  0.00    -0.279 NA
ATOM     25  H   UNL     1      10.506   6.303  22.466  0.00  0.00    +0.125 HD
BRANCH  24  26
ATOM     26  C   UNL     1      12.131   5.941  23.787  0.00  0.00    +0.172 C 
BRANCH  26  27
ATOM     27  C   UNL     1      13.232   5.848  22.719  0.00  0.00    +0.360 C 
BRANCH  27  28
ATOM     28  O   UNL     1      12.681   5.225  21.575  0.00  0.00    -0.506 OA
ATOM     29  H   UNL     1      11.832   4.836  21.853  0.00  0.00    +0.287 HD
ENDBRANCH  27  28
BRANCH  27  30
ATOM     30  O   UNL     1      14.261   5.018  23.218  0.00  0.00    -0.506 OA
ATOM     31  H   UNL     1      15.086   5.535  23.204  0.00  0.00    +0.287 HD
ENDBRANCH  27  30
ENDBRANCH  26  27
ENDBRANCH  24  26
ENDBRANCH   1  24
TORSDOF 12
ENDMDL
MODEL 4
REMARK VINA RESULT:      -6.0      3.557      7.039
REMARK  Name = 
REMARK  13 active torsions:
REMARK  status: ('A' for Active; 'I' for Inactive)
REMARK    1  A    between atoms: C_1  and  C_2
REMARK    2  A    between atoms: C_2  and  N_4
REMARK    3  A    between atoms: C_2  and  C_21
REMARK    4  A    between atoms: N_4  and  C_5
REMARK    5  A    between atoms: C_5  and  N_7
REMARK    6  A    between atoms: C_5  and  N_12
REMARK    7  A    between atoms: N_7  and  C_8
REMARK    8  A    between atoms: C_8  and  C_9
REMARK    9  A    between atoms: C_9  and  O_10
REMARK   10  A    between atoms: C_9  and  O_11
REMARK   11  A    between atoms: N_12  and  C_13
REMARK   12  A    between atoms: C_16  and  C_17
REMARK   13  A    between atoms: C_17  and  N_18
REMARK                            x       y       z     vdW  Elec       q    Type
REMARK                         _______ _______ _______ _____ _____    ______ ____
ROOT
ATOM      1  C   UNL     1       8.957  -2.555  24.072  0.00  0.00    +0.212 C 
ENDROOT
BRANCH   1   2
ATOM      2  N   UNL     1       7.608  -2.089  24.301  0.00  0.00    -0.280 NA
ATOM      3  H   UNL     1       6.882  -2.307  23.631  0.00  0.00    +0.125 HD
BRANCH   2   5
ATOM      4  C   UNL     1       6.029  -1.940  26.245  0.00  0.00    +0.029 C 
ATOM      5  C   UNL     1       7.263  -1.373  25.538  0.00  0.00    +0.084 C 
BRANCH   5   6
ATOM      6  C   UNL     1       6.983   0.097  25.277  0.00  0.00    -0.031 A 
ATOM      7  C   UNL     1       7.503   1.107  26.104  0.00  0.00    +0.005 A 
ATOM      8  C   UNL     1       7.583   2.423  25.640  0.00  0.00    +0.000 A 
ATOM      9  C   UNL     1       7.126   2.746  24.363  0.00  0.00    +0.000 A 
ATOM     10  C   UNL     1       6.526   1.771  23.572  0.00  0.00    +0.000 A 
ATOM     11  C   UNL     1       6.439   0.457  24.032  0.00  0.00    +0.005 A 
ENDBRANCH   5   6
ENDBRANCH   2   5
ENDBRANCH   1   2
BRANCH   1  12
ATOM     12  N   UNL     1       9.589  -1.796  23.023  0.00  0.00    -0.317 N 
ATOM     13  H   UNL     1       9.734  -2.256  22.135  0.00  0.00    +0.149 HD
BRANCH  12  14
ATOM     14  C   UNL     1       9.898  -0.396  23.072  0.00  0.00    +0.029 A 
ATOM     15  C   UNL     1      10.506   0.101  24.228  0.00  0.00    +0.023 A 
ATOM     16  C   UNL     1      10.887   1.448  24.313  0.00  0.00    +0.007 A 
ATOM     17  C   UNL     1      10.667   2.323  23.238  0.00  0.00    -0.034 A 
ATOM     18  C   UNL     1      10.025   1.825  22.099  0.00  0.00    +0.007 A 
ATOM     19  C   UNL     1       9.639   0.478  22.018  0.00  0.00    +0.023 A 
BRANCH  17  20
ATOM     20  C   UNL     1      11.149   3.753  23.296  0.00  0.00    +0.113 C 
BRANCH  20  21
ATOM     21  N   UNL     1      10.043   4.700  23.315  0.00  0.00    -0.326 NA
ATOM     22  H   UNL     1      10.074   5.225  24.189  0.00  0.00    +0.119 HD
ATOM     23  H   UNL     1      10.179   5.389  22.577  0.00  0.00    +0.119 HD
ENDBRANCH  20  21
ENDBRANCH  17  20
ENDBRANCH  12  14
ENDBRANCH   1  12
BRANCH   1  24
ATOM     24  N   UNL     1       8.940  -3.942  23.741  0.00  0.00    -0.279 NA
ATOM     25  H   UNL     1       9.315  -4.275  22.854  0.00  0.00    +0.125 HD
BRANCH  24  26
ATOM     26  C   UNL     1       8.278  -4.967  24.575  0.00  0.00    +0.172 C 
BRANCH  26  27
ATOM     27  C   UNL     1       8.978  -5.040  25.940  0.00  0.00    +0.360 C 
BRANCH  27  28
ATOM     28  O   UNL     1      10.260  -5.606  25.746  0.00  0.00    -0.506 OA
ATOM     29  H   UNL     1      10.192  -6.184  24.966  0.00  0.00    +0.287 HD
ENDBRANCH  27  28
BRANCH  27  30
ATOM     30  O   UNL     1       8.236  -5.911  26.770  0.00  0.00    -0.506 OA
ATOM     31  H   UNL     1       8.791  -6.693  26.942  0.00  0.00    +0.287 HD
ENDBRANCH  27  30
ENDBRANCH  26  27
ENDBRANCH  24  26
ENDBRANCH   1  24
TORSDOF 12
ENDMDL
MODEL 5
REMARK VINA RESULT:      -5.9      3.373      7.331
REMARK  Name = 
REMARK  13 active torsions:
REMARK  status: ('A' for Active; 'I' for Inactive)
REMARK    1  A    between atoms: C_1  and  C_2
REMARK    2  A    between atoms: C_2  and  N_4
REMARK    3  A    between atoms: C_2  and  C_21
REMARK    4  A    between atoms: N_4  and  C_5
REMARK    5  A    between atoms: C_5  and  N_7
REMARK    6  A    between atoms: C_5  and  N_12
REMARK    7  A    between atoms: N_7  and  C_8
REMARK    8  A    between atoms: C_8  and  C_9
REMARK    9  A    between atoms: C_9  and  O_10
REMARK   10  A    between atoms: C_9  and  O_11
REMARK   11  A    between atoms: N_12  and  C_13
REMARK   12  A    between atoms: C_16  and  C_17
REMARK   13  A    between atoms: C_17  and  N_18
REMARK                            x       y       z     vdW  Elec       q    Type
REMARK                         _______ _______ _______ _____ _____    ______ ____
ROOT
ATOM      1  C   UNL     1       6.626  -1.028  23.209  0.00  0.00    +0.212 C 
ENDROOT
BRANCH   1   2
ATOM      2  N   UNL     1       7.825  -1.451  23.895  0.00  0.00    -0.280 NA
ATOM      3  H   UNL     1       7.782  -1.693  24.877  0.00  0.00    +0.125 HD
BRANCH   2   5
ATOM      4  C   UNL     1      10.059  -2.592  23.829  0.00  0.00    +0.029 C 
ATOM      5  C   UNL     1       9.090  -1.613  23.161  0.00  0.00    +0.084 C 
BRANCH   5   6
ATOM      6  C   UNL     1       9.829  -0.294  23.017  0.00  0.00    -0.031 A 
ATOM      7  C   UNL     1       9.749   0.474  21.844  0.00  0.00    +0.005 A 
ATOM      8  C   UNL     1      10.082   1.831  21.868  0.00  0.00    +0.000 A 
ATOM      9  C   UNL     1      10.517   2.426  23.051  0.00  0.00    +0.000 A 
ATOM     10  C   UNL     1      10.687   1.654  24.196  0.00  0.00    +0.000 A 
ATOM     11  C   UNL     1      10.361   0.297  24.176  0.00  0.00    +0.005 A 
ENDBRANCH   5   6
ENDBRANCH   2   5
ENDBRANCH   1   2
BRANCH   1  12
ATOM     12  N   UNL     1       6.066   0.143  23.832  0.00  0.00    -0.317 N 
ATOM     13  H   UNL     1       5.427   0.003  24.603  0.00  0.00    +0.149 HD
BRANCH  12  14
ATOM     14  C   UNL     1       6.446   1.499  23.560  0.00  0.00    +0.029 A 
ATOM     15  C   UNL     1       6.921   2.274  24.621  0.00  0.00    +0.023 A 
ATOM     16  C   UNL     1       7.362   3.587  24.407  0.00  0.00    +0.007 A 
ATOM     17  C   UNL     1       7.339   4.150  23.121  0.00  0.00    -0.034 A 
ATOM     18  C   UNL     1       6.827   3.379  22.070  0.00  0.00    +0.007 A 
ATOM     19  C   UNL     1       6.379   2.067  22.288  0.00  0.00    +0.023 A 
BRANCH  17  20
ATOM     20  C   UNL     1       7.889   5.534  22.873  0.00  0.00    +0.113 C 
BRANCH  20  21
ATOM     21  N   UNL     1       7.523   6.037  21.557  0.00  0.00    -0.326 NA
ATOM     22  H   UNL     1       8.278   5.830  20.902  0.00  0.00    +0.119 HD
ATOM     23  H   UNL     1       6.714   5.521  21.214  0.00  0.00    +0.119 HD
ENDBRANCH  20  21
ENDBRANCH  17  20
ENDBRANCH  12  14
ENDBRANCH   1  12
BRANCH   1  24
ATOM     24  N   UNL     1       5.674  -2.090  23.200  0.00  0.00    -0.279 NA
ATOM     25  H   UNL     1       5.053  -2.245  23.993  0.00  0.00    +0.125 HD
BRANCH  24  26
ATOM     26  C   UNL     1       5.599  -3.105  22.128  0.00  0.00    +0.172 C 
BRANCH  26  27
ATOM     27  C   UNL     1       6.083  -4.457  22.673  0.00  0.00    +0.360 C 
BRANCH  27  28
ATOM     28  O   UNL     1       6.611  -4.244  23.969  0.00  0.00    -0.506 OA
ATOM     29  H   UNL     1       5.971  -3.682  24.440  0.00  0.00    +0.287 HD
ENDBRANCH  27  28
BRANCH  27  30
ATOM     30  O   UNL     1       7.130  -4.918  21.843  0.00  0.00    -0.506 OA
ATOM     31  H   UNL     1       7.773  -5.376  22.413  0.00  0.00    +0.287 HD
ENDBRANCH  27  30
ENDBRANCH  26  27
ENDBRANCH  24  26
ENDBRANCH   1  24
TORSDOF 12
ENDMDL
MODEL 6
REMARK VINA RESULT:      -5.8      1.737      3.757
REMARK  Name = 
REMARK  13 active torsions:
REMARK  status: ('A' for Active; 'I' for Inactive)
REMARK    1  A    between atoms: C_1  and  C_2
REMARK    2  A    between atoms: C_2  and  N_4
REMARK    3  A    between atoms: C_2  and  C_21
REMARK    4  A    between atoms: N_4  and  C_5
REMARK    5  A    between atoms: C_5  and  N_7
REMARK    6  A    between atoms: C_5  and  N_12
REMARK    7  A    between atoms: N_7  and  C_8
REMARK    8  A    between atoms: C_8  and  C_9
REMARK    9  A    between atoms: C_9  and  O_10
REMARK   10  A    between atoms: C_9  and  O_11
REMARK   11  A    between atoms: N_12  and  C_13
REMARK   12  A    between atoms: C_16  and  C_17
REMARK   13  A    between atoms: C_17  and  N_18
REMARK                            x       y       z     vdW  Elec       q    Type
REMARK                         _______ _______ _______ _____ _____    ______ ____
ROOT
ATOM      1  C   UNL     1       9.406  -0.296  24.942  0.00  0.00    +0.212 C 
ENDROOT
BRANCH   1   2
ATOM      2  N   UNL     1       8.595  -0.547  23.772  0.00  0.00    -0.280 NA
ATOM      3  H   UNL     1       7.853   0.097  23.529  0.00  0.00    +0.125 HD
BRANCH   2   5
ATOM      4  C   UNL     1       9.208  -1.263  21.447  0.00  0.00    +0.029 C 
ATOM      5  C   UNL     1       8.892  -1.682  22.885  0.00  0.00    +0.084 C 
BRANCH   5   6
ATOM      6  C   UNL     1       7.730  -2.657  22.814  0.00  0.00    -0.031 A 
ATOM      7  C   UNL     1       7.923  -4.046  22.903  0.00  0.00    +0.005 A 
ATOM      8  C   UNL     1       6.857  -4.884  23.240  0.00  0.00    +0.000 A 
ATOM      9  C   UNL     1       5.590  -4.350  23.467  0.00  0.00    +0.000 A 
ATOM     10  C   UNL     1       5.367  -2.988  23.292  0.00  0.00    +0.000 A 
ATOM     11  C   UNL     1       6.427  -2.147  22.950  0.00  0.00    +0.005 A 
ENDBRANCH   5   6
ENDBRANCH   2   5
ENDBRANCH   1   2
BRANCH   1  12
ATOM     12  N   UNL     1       8.680  -0.617  26.144  0.00  0.00    -0.317 N 
ATOM     13  H   UNL     1       8.556   0.119  26.827  0.00  0.00    +0.149 HD
BRANCH  12  14
ATOM     14  C   UNL     1       7.987  -1.846  26.401  0.00  0.00    +0.029 A 
ATOM     15  C   UNL     1       8.722  -3.033  26.370  0.00  0.00    +0.023 A 
ATOM     16  C   UNL     1       8.113  -4.260  26.670  0.00  0.00    +0.007 A 
ATOM     17  C   UNL     1       6.753  -4.320  27.011  0.00  0.00    -0.034 A 
ATOM     18  C   UNL     1       6.016  -3.130  27.005  0.00  0.00    +0.007 A 
ATOM     19  C   UNL     1       6.626  -1.904  26.697  0.00  0.00    +0.023 A 
BRANCH  17  20
ATOM     20  C   UNL     1       6.115  -5.627  27.414  0.00  0.00    +0.113 C 
BRANCH  20  21
ATOM     21  N   UNL     1       6.849  -6.283  28.487  0.00  0.00    -0.326 NA
ATOM     22  H   UNL     1       6.525  -7.247  28.569  0.00  0.00    +0.119 HD
ATOM     23  H   UNL     1       7.833  -6.346  28.230  0.00  0.00    +0.119 HD
ENDBRANCH  20  21
ENDBRANCH  17  20
ENDBRANCH  12  14
ENDBRANCH   1  12
BRANCH   1  24
ATOM     24  N   UNL     1       9.819   1.069  24.960  0.00  0.00    -0.279 NA
ATOM     25  H   UNL     1       9.370   1.746  25.576  0.00  0.00    +0.125 HD
BRANCH  24  26
ATOM     26  C   UNL     1      10.815   1.628  24.022  0.00  0.00    +0.172 C 
BRANCH  26  27
ATOM     27  C   UNL     1      10.126   2.636  23.090  0.00  0.00    +0.360 C 
BRANCH  27  28
ATOM     28  O   UNL     1      10.191   2.128  21.771  0.00  0.00    -0.506 OA
ATOM     29  H   UNL     1       9.339   2.342  21.350  0.00  0.00    +0.287 HD
ENDBRANCH  27  28
BRANCH  27  30
ATOM     30  O   UNL     1      10.857   3.845  23.131  0.00  0.00    -0.506 OA
ATOM     31  H   UNL     1      11.385   3.894  22.313  0.00  0.00    +0.287 HD
ENDBRANCH  27  30
ENDBRANCH  26  27
ENDBRANCH  24  26
ENDBRANCH   1  24
TORSDOF 12
ENDMDL
MODEL 7
REMARK VINA RESULT:      -5.8      3.144      6.589
REMARK  Name = 
REMARK  13 active torsions:
REMARK  status: ('A' for Active; 'I' for Inactive)
REMARK    1  A    between atoms: C_1  and  C_2
REMARK    2  A    between atoms: C_2  and  N_4
REMARK    3  A    between atoms: C_2  and  C_21
REMARK    4  A    between atoms: N_4  and  C_5
REMARK    5  A    between atoms: C_5  and  N_7
REMARK    6  A    between atoms: C_5  and  N_12
REMARK    7  A    between atoms: N_7  and  C_8
REMARK    8  A    between atoms: C_8  and  C_9
REMARK    9  A    between atoms: C_9  and  O_10
REMARK   10  A    between atoms: C_9  and  O_11
REMARK   11  A    between atoms: N_12  and  C_13
REMARK   12  A    between atoms: C_16  and  C_17
REMARK   13  A    between atoms: C_17  and  N_18
REMARK                            x       y       z     vdW  Elec       q    Type
REMARK                         _______ _______ _______ _____ _____    ______ ____
ROOT
ATOM      1  C   UNL     1       8.909  -2.855  23.657  0.00  0.00    +0.212 C 
ENDROOT
BRANCH   1   2
ATOM      2  N   UNL     1       7.981  -3.153  22.590  0.00  0.00    -0.280 NA
ATOM      3  H   UNL     1       8.274  -3.740  21.819  0.00  0.00    +0.125 HD
BRANCH   2   5
ATOM      4  C   UNL     1       6.413  -1.423  23.511  0.00  0.00    +0.029 C 
ATOM      5  C   UNL     1       6.590  -2.680  22.654  0.00  0.00    +0.084 C 
BRANCH   5   6
ATOM      6  C   UNL     1       5.663  -3.737  23.228  0.00  0.00    -0.031 A 
ATOM      7  C   UNL     1       5.526  -5.003  22.634  0.00  0.00    +0.005 A 
ATOM      8  C   UNL     1       5.010  -6.073  23.370  0.00  0.00    +0.000 A 
ATOM      9  C   UNL     1       4.606  -5.885  24.691  0.00  0.00    +0.000 A 
ATOM     10  C   UNL     1       4.652  -4.616  25.259  0.00  0.00    +0.000 A 
ATOM     11  C   UNL     1       5.161  -3.543  24.527  0.00  0.00    +0.005 A 
ENDBRANCH   5   6
ENDBRANCH   2   5
ENDBRANCH   1   2
BRANCH   1  12
ATOM     12  N   UNL     1       9.982  -2.020  23.182  0.00  0.00    -0.317 N 
ATOM     13  H   UNL     1      10.744  -2.470  22.693  0.00  0.00    +0.149 HD
BRANCH  12  14
ATOM     14  C   UNL     1      10.002  -0.586  23.209  0.00  0.00    +0.029 A 
ATOM     15  C   UNL     1      10.170   0.046  24.443  0.00  0.00    +0.023 A 
ATOM     16  C   UNL     1      10.256   1.442  24.527  0.00  0.00    +0.007 A 
ATOM     17  C   UNL     1      10.178   2.235  23.371  0.00  0.00    -0.034 A 
ATOM     18  C   UNL     1       9.973   1.596  22.143  0.00  0.00    +0.007 A 
ATOM     19  C   UNL     1       9.880   0.198  22.062  0.00  0.00    +0.023 A 
BRANCH  17  20
ATOM     20  C   UNL     1      10.352   3.733  23.448  0.00  0.00    +0.113 C 
BRANCH  20  21
ATOM     21  N   UNL     1      11.683   4.148  23.029  0.00  0.00    -0.326 NA
ATOM     22  H   UNL     1      12.152   3.357  22.585  0.00  0.00    +0.119 HD
ATOM     23  H   UNL     1      11.600   4.859  22.303  0.00  0.00    +0.119 HD
ENDBRANCH  20  21
ENDBRANCH  17  20
ENDBRANCH  12  14
ENDBRANCH   1  12
BRANCH   1  24
ATOM     24  N   UNL     1       9.426  -4.069  24.200  0.00  0.00    -0.279 NA
ATOM     25  H   UNL     1      10.411  -4.310  24.103  0.00  0.00    +0.125 HD
BRANCH  24  26
ATOM     26  C   UNL     1       8.576  -5.107  24.819  0.00  0.00    +0.172 C 
BRANCH  26  27
ATOM     27  C   UNL     1       8.521  -4.880  26.337  0.00  0.00    +0.360 C 
BRANCH  27  28
ATOM     28  O   UNL     1       9.848  -4.880  26.829  0.00  0.00    -0.506 OA
ATOM     29  H   UNL     1      10.405  -4.508  26.122  0.00  0.00    +0.287 HD
ENDBRANCH  27  28
BRANCH  27  30
ATOM     30  O   UNL     1       7.838  -5.971  26.921  0.00  0.00    -0.506 OA
ATOM     31  H   UNL     1       8.508  -6.625  27.192  0.00  0.00    +0.287 HD
ENDBRANCH  27  30
ENDBRANCH  26  27
ENDBRANCH  24  26
ENDBRANCH   1  24
TORSDOF 12
ENDMDL
MODEL 8
REMARK VINA RESULT:      -5.7      3.018      7.088
REMARK  Name = 
REMARK  13 active torsions:
REMARK  status: ('A' for Active; 'I' for Inactive)
REMARK    1  A    between atoms: C_1  and  C_2
REMARK    2  A    between atoms: C_2  and  N_4
REMARK    3  A    between atoms: C_2  and  C_21
REMARK    4  A    between atoms: N_4  and  C_5
REMARK    5  A    between atoms: C_5  and  N_7
REMARK    6  A    between atoms: C_5  and  N_12
REMARK    7  A    between atoms: N_7  and  C_8
REMARK    8  A    between atoms: C_8  and  C_9
REMARK    9  A    between atoms: C_9  and  O_10
REMARK   10  A    between atoms: C_9  and  O_11
REMARK   11  A    between atoms: N_12  and  C_13
REMARK   12  A    between atoms: C_16  and  C_17
REMARK   13  A    between atoms: C_17  and  N_18
REMARK                            x       y       z     vdW  Elec       q    Type
REMARK                         _______ _______ _______ _____ _____    ______ ____
ROOT
ATOM      1  C   UNL     1       7.615  -2.242  25.976  0.00  0.00    +0.212 C 
ENDROOT
BRANCH   1   2
ATOM      2  N   UNL     1       7.602  -2.475  24.550  0.00  0.00    -0.280 NA
ATOM      3  H   UNL     1       8.221  -3.169  24.149  0.00  0.00    +0.125 HD
BRANCH   2   5
ATOM      4  C   UNL     1       5.686  -2.717  22.948  0.00  0.00    +0.029 C 
ATOM      5  C   UNL     1       6.641  -1.774  23.685  0.00  0.00    +0.084 C 
BRANCH   5   6
ATOM      6  C   UNL     1       7.341  -0.942  22.625  0.00  0.00    -0.031 A 
ATOM      7  C   UNL     1       6.980   0.392  22.374  0.00  0.00    +0.005 A 
ATOM      8  C   UNL     1       7.867   1.248  21.713  0.00  0.00    +0.000 A 
ATOM      9  C   UNL     1       9.104   0.776  21.279  0.00  0.00    +0.000 A 
ATOM     10  C   UNL     1       9.434  -0.566  21.442  0.00  0.00    +0.000 A 
ATOM     11  C   UNL     1       8.550  -1.425  22.096  0.00  0.00    +0.005 A 
ENDBRANCH   5   6
ENDBRANCH   2   5
ENDBRANCH   1   2
BRANCH   1  12
ATOM     12  N   UNL     1       8.693  -1.360  26.340  0.00  0.00    -0.317 N 
ATOM     13  H   UNL     1       9.332  -1.673  27.059  0.00  0.00    +0.149 HD
BRANCH  12  14
ATOM     14  C   UNL     1       9.037  -0.138  25.673  0.00  0.00    +0.029 A 
ATOM     15  C   UNL     1       8.118   0.914  25.716  0.00  0.00    +0.023 A 
ATOM     16  C   UNL     1       8.421   2.153  25.134  0.00  0.00    +0.007 A 
ATOM     17  C   UNL     1       9.655   2.363  24.498  0.00  0.00    -0.034 A 
ATOM     18  C   UNL     1      10.554   1.293  24.428  0.00  0.00    +0.007 A 
ATOM     19  C   UNL     1      10.246   0.051  25.006  0.00  0.00    +0.023 A 
BRANCH  17  20
ATOM     20  C   UNL     1      10.016   3.720  23.942  0.00  0.00    +0.113 C 
BRANCH  20  21
ATOM     21  N   UNL     1      10.998   3.625  22.872  0.00  0.00    -0.326 NA
ATOM     22  H   UNL     1      10.670   4.168  22.073  0.00  0.00    +0.119 HD
ATOM     23  H   UNL     1      11.864   4.073  23.170  0.00  0.00    +0.119 HD
ENDBRANCH  20  21
ENDBRANCH  17  20
ENDBRANCH  12  14
ENDBRANCH   1  12
BRANCH   1  24
ATOM     24  N   UNL     1       7.734  -3.485  26.667  0.00  0.00    -0.279 NA
ATOM     25  H   UNL     1       7.684  -3.527  27.684  0.00  0.00    +0.125 HD
BRANCH  24  26
ATOM     26  C   UNL     1       8.058  -4.760  25.994  0.00  0.00    +0.172 C 
BRANCH  26  27
ATOM     27  C   UNL     1       9.581  -4.867  25.817  0.00  0.00    +0.360 C 
BRANCH  27  28
ATOM     28  O   UNL     1       9.944  -4.111  24.677  0.00  0.00    -0.506 OA
ATOM     29  H   UNL     1      10.303  -4.743  24.029  0.00  0.00    +0.287 HD
ENDBRANCH  27  28
BRANCH  27  30
ATOM     30  O   UNL     1       9.901  -6.221  25.565  0.00  0.00    -0.506 OA
ATOM     31  H   UNL     1      10.871  -6.300  25.587  0.00  0.00    +0.287 HD
ENDBRANCH  27  30
ENDBRANCH  26  27
ENDBRANCH  24  26
ENDBRANCH   1  24
TORSDOF 12
ENDMDL
MODEL 9
REMARK VINA RESULT:      -5.7      3.192      6.591
REMARK  Name = 
REMARK  13 active torsions:
REMARK  status: ('A' for Active; 'I' for Inactive)
REMARK    1  A    between atoms: C_1  and  C_2
REMARK    2  A    between atoms: C_2  and  N_4
REMARK    3  A    between atoms: C_2  and  C_21
REMARK    4  A    between atoms: N_4  and  C_5
REMARK    5  A    between atoms: C_5  and  N_7
REMARK    6  A    between atoms: C_5  and  N_12
REMARK    7  A    between atoms: N_7  and  C_8
REMARK    8  A    between atoms: C_8  and  C_9
REMARK    9  A    between atoms: C_9  and  O_10
REMARK   10  A    between atoms: C_9  and  O_11
REMARK   11  A    between atoms: N_12  and  C_13
REMARK   12  A    between atoms: C_16  and  C_17
REMARK   13  A    between atoms: C_17  and  N_18
REMARK                            x       y       z     vdW  Elec       q    Type
REMARK                         _______ _______ _______ _____ _____    ______ ____
ROOT
ATOM      1  C   UNL     1       9.103  -2.609  23.904  0.00  0.00    +0.212 C 
ENDROOT
BRANCH   1   2
ATOM      2  N   UNL     1       8.494  -2.839  22.614  0.00  0.00    -0.280 NA
ATOM      3  H   UNL     1       9.014  -3.326  21.894  0.00  0.00    +0.125 HD
BRANCH   2   5
ATOM      4  C   UNL     1       6.527  -1.517  23.436  0.00  0.00    +0.029 C 
ATOM      5  C   UNL     1       7.099  -2.448  22.364  0.00  0.00    +0.084 C 
BRANCH   5   6
ATOM      6  C   UNL     1       6.181  -3.656  22.297  0.00  0.00    -0.031 A 
ATOM      7  C   UNL     1       6.616  -4.888  21.781  0.00  0.00    +0.005 A 
ATOM      8  C   UNL     1       5.925  -6.063  22.090  0.00  0.00    +0.000 A 
ATOM      9  C   UNL     1       4.787  -6.017  22.893  0.00  0.00    +0.000 A 
ATOM     10  C   UNL     1       4.295  -4.793  23.334  0.00  0.00    +0.000 A 
ATOM     11  C   UNL     1       4.978  -3.616  23.024  0.00  0.00    +0.005 A 
ENDBRANCH   5   6
ENDBRANCH   2   5
ENDBRANCH   1   2
BRANCH   1  12
ATOM     12  N   UNL     1      10.126  -1.599  23.813  0.00  0.00    -0.317 N 
ATOM     13  H   UNL     1      11.078  -1.908  23.667  0.00  0.00    +0.149 HD
BRANCH  12  14
ATOM     14  C   UNL     1       9.903  -0.183  23.763  0.00  0.00    +0.029 A 
ATOM     15  C   UNL     1      10.123   0.473  22.549  0.00  0.00    +0.023 A 
ATOM     16  C   UNL     1       9.866   1.845  22.421  0.00  0.00    +0.007 A 
ATOM     17  C   UNL     1       9.380   2.588  23.509  0.00  0.00    -0.034 A 
ATOM     18  C   UNL     1       9.197   1.929  24.730  0.00  0.00    +0.007 A 
ATOM     19  C   UNL     1       9.461   0.557  24.858  0.00  0.00    +0.023 A 
BRANCH  17  20
ATOM     20  C   UNL     1       9.025   4.047  23.351  0.00  0.00    +0.113 C 
BRANCH  20  21
ATOM     21  N   UNL     1       8.009   4.252  22.328  0.00  0.00    -0.326 NA
ATOM     22  H   UNL     1       7.674   3.342  22.008  0.00  0.00    +0.119 HD
ATOM     23  H   UNL     1       7.200   4.709  22.747  0.00  0.00    +0.119 HD
ENDBRANCH  20  21
ENDBRANCH  17  20
ENDBRANCH  12  14
ENDBRANCH   1  12
BRANCH   1  24
ATOM     24  N   UNL     1       9.650  -3.827  24.406  0.00  0.00    -0.279 NA
ATOM     25  H   UNL     1      10.655  -3.996  24.393  0.00  0.00    +0.125 HD
BRANCH  24  26
ATOM     26  C   UNL     1       8.820  -4.965  24.853  0.00  0.00    +0.172 C 
BRANCH  26  27
ATOM     27  C   UNL     1       8.545  -4.832  26.358  0.00  0.00    +0.360 C 
BRANCH  27  28
ATOM     28  O   UNL     1       9.790  -4.757  27.027  0.00  0.00    -0.506 OA
ATOM     29  H   UNL     1       9.629  -4.277  27.859  0.00  0.00    +0.287 HD
ENDBRANCH  27  28
BRANCH  27  30
ATOM     30  O   UNL     1       7.885  -6.005  26.791  0.00  0.00    -0.506 OA
ATOM     31  H   UNL     1       7.335  -5.764  27.558  0.00  0.00    +0.287 HD
ENDBRANCH  27  30
ENDBRANCH  26  27
ENDBRANCH  24  26
ENDBRANCH   1  24
TORSDOF 12
ENDMDL
