MODEL 1
REMARK VINA RESULT:      -7.7      0.000      0.000
REMARK  Name = 
REMARK  1 active torsions:
REMARK  status: ('A' for Active; 'I' for Inactive)
REMARK    1  A    between atoms: O_1  and  N_2
REMARK                            x       y       z     vdW  Elec       q    Type
REMARK                         _______ _______ _______ _____ _____    ______ ____
ROOT
ATOM      1  N   UNL     1       7.864  -3.048  25.731  0.00  0.00    -0.085 NA
ATOM      2  C   UNL     1       7.965  -2.753  24.477  0.00  0.00    +0.133 C 
ATOM      3  C   UNL     1       8.800  -1.709  23.819  0.00  0.00    +0.026 A 
ATOM      4  C   UNL     1       9.681  -0.766  24.324  0.00  0.00    +0.012 A 
ATOM      5  C   UNL     1      10.328   0.083  23.421  0.00  0.00    +0.001 A 
ATOM      6  C   UNL     1      10.086  -0.024  22.042  0.00  0.00    +0.002 A 
ATOM      7  C   UNL     1       9.193  -0.978  21.547  0.00  0.00    +0.024 A 
ATOM      8  C   UNL     1       8.554  -1.812  22.444  0.00  0.00    +0.041 A 
ATOM      9  N   UNL     1       7.648  -2.819  22.169  0.00  0.00    -0.312 N 
ATOM     10  H   UNL     1       7.288  -3.084  21.259  0.00  0.00    +0.152 HD
ATOM     11  C   UNL     1       7.220  -3.447  23.329  0.00  0.00    +0.074 C 
ATOM     12  C   UNL     1       6.335  -4.458  23.407  0.00  0.00    +0.069 C 
ATOM     13  C   UNL     1       5.741  -5.275  24.483  0.00  0.00    +0.010 A 
ATOM     14  C   UNL     1       5.844  -5.322  25.861  0.00  0.00    +0.010 A 
ATOM     15  C   UNL     1       5.102  -6.275  26.575  0.00  0.00    +0.001 A 
ATOM     16  C   UNL     1       4.259  -7.177  25.913  0.00  0.00    +0.002 A 
ATOM     17  C   UNL     1       4.142  -7.139  24.525  0.00  0.00    +0.024 A 
ATOM     18  C   UNL     1       4.886  -6.188  23.848  0.00  0.00    +0.042 A 
ATOM     19  N   UNL     1       4.893  -6.001  22.471  0.00  0.00    -0.281 N 
ATOM     20  H   UNL     1       4.357  -6.531  21.802  0.00  0.00    +0.155 HD
ATOM     21  C   UNL     1       5.739  -4.971  22.111  0.00  0.00    +0.251 C 
ATOM     22  O   UNL     1       5.951  -4.572  20.979  0.00  0.00    -0.270 OA
ENDROOT
BRANCH   1  23
ATOM     23  O   UNL     1       8.655  -2.260  26.564  0.00  0.00    -0.409 OA
ATOM     24  H   UNL     1       8.021  -1.595  26.889  0.00  0.00    +0.328 HD
ENDBRANCH   1  23
TORSDOF 1
ENDMDL
MODEL 2
REMARK VINA RESULT:      -7.6      2.450      3.551
REMARK  Name = 
REMARK  1 active torsions:
REMARK  status: ('A' for Active; 'I' for Inactive)
REMARK    1  A    between atoms: O_1  and  N_2
REMARK                            x       y       z     vdW  Elec       q    Type
REMARK                         _______ _______ _______ _____ _____    ______ ____
ROOT
ATOM      1  N   UNL     1       9.117  -1.878  22.085  0.00  0.00    -0.085 NA
ATOM      2  C   UNL     1       8.595  -1.009  22.888  0.00  0.00    +0.133 C 
ATOM      3  C   UNL     1       9.080   0.354  23.245  0.00  0.00    +0.026 A 
ATOM      4  C   UNL     1      10.194   1.079  22.852  0.00  0.00    +0.012 A 
ATOM      5  C   UNL     1      10.361   2.365  23.375  0.00  0.00    +0.001 A 
ATOM      6  C   UNL     1       9.422   2.899  24.272  0.00  0.00    +0.002 A 
ATOM      7  C   UNL     1       8.305   2.156  24.661  0.00  0.00    +0.024 A 
ATOM      8  C   UNL     1       8.145   0.884  24.143  0.00  0.00    +0.041 A 
ATOM      9  N   UNL     1       7.118  -0.008  24.387  0.00  0.00    -0.312 N 
ATOM     10  H   UNL     1       6.331   0.124  25.013  0.00  0.00    +0.152 HD
ATOM     11  C   UNL     1       7.297  -1.190  23.685  0.00  0.00    +0.074 C 
ATOM     12  C   UNL     1       6.483  -2.262  23.711  0.00  0.00    +0.069 C 
ATOM     13  C   UNL     1       6.449  -3.591  23.070  0.00  0.00    +0.010 A 
ATOM     14  C   UNL     1       7.256  -4.285  22.188  0.00  0.00    +0.010 A 
ATOM     15  C   UNL     1       6.884  -5.575  21.784  0.00  0.00    +0.001 A 
ATOM     16  C   UNL     1       5.710  -6.171  22.262  0.00  0.00    +0.002 A 
ATOM     17  C   UNL     1       4.888  -5.486  23.155  0.00  0.00    +0.024 A 
ATOM     18  C   UNL     1       5.281  -4.215  23.536  0.00  0.00    +0.042 A 
ATOM     19  N   UNL     1       4.593  -3.388  24.416  0.00  0.00    -0.281 N 
ATOM     20  H   UNL     1       3.730  -3.615  24.884  0.00  0.00    +0.155 HD
ATOM     21  C   UNL     1       5.248  -2.185  24.586  0.00  0.00    +0.251 C 
ATOM     22  O   UNL     1       4.890  -1.263  25.299  0.00  0.00    -0.270 OA
ENDROOT
BRANCH   1  23
ATOM     23  O   UNL     1      10.300  -1.455  21.486  0.00  0.00    -0.409 OA
ATOM     24  H   UNL     1      10.284  -0.493  21.643  0.00  0.00    +0.328 HD
ENDBRANCH   1  23
TORSDOF 1
ENDMDL
MODEL 3
REMARK VINA RESULT:      -7.5      2.942      3.208
REMARK  Name = 
REMARK  1 active torsions:
REMARK  status: ('A' for Active; 'I' for Inactive)
REMARK    1  A    between atoms: O_1  and  N_2
REMARK                            x       y       z     vdW  Elec       q    Type
REMARK                         _______ _______ _______ _____ _____    ______ ____
ROOT
ATOM      1  N   UNL     1       6.053  -1.207  25.046  0.00  0.00    -0.085 NA
ATOM      2  C   UNL     1       7.169  -1.471  24.450  0.00  0.00    +0.133 C 
ATOM      3  C   UNL     1       7.878  -0.699  23.391  0.00  0.00    +0.026 A 
ATOM      4  C   UNL     1       7.572   0.485  22.740  0.00  0.00    +0.012 A 
ATOM      5  C   UNL     1       8.470   0.961  21.779  0.00  0.00    +0.001 A 
ATOM      6  C   UNL     1       9.646   0.251  21.489  0.00  0.00    +0.002 A 
ATOM      7  C   UNL     1       9.941  -0.943  22.152  0.00  0.00    +0.024 A 
ATOM      8  C   UNL     1       9.049  -1.409  23.099  0.00  0.00    +0.041 A 
ATOM      9  N   UNL     1       9.150  -2.553  23.869  0.00  0.00    -0.312 N 
ATOM     10  H   UNL     1       9.888  -3.247  23.836  0.00  0.00    +0.152 HD
ATOM     11  C   UNL     1       8.060  -2.692  24.715  0.00  0.00    +0.074 C 
ATOM     12  C   UNL     1       7.850  -3.699  25.584  0.00  0.00    +0.069 C 
ATOM     13  C   UNL     1       6.810  -4.060  26.566  0.00  0.00    +0.010 A 
ATOM     14  C   UNL     1       5.612  -3.513  26.984  0.00  0.00    +0.010 A 
ATOM     15  C   UNL     1       4.870  -4.161  27.982  0.00  0.00    +0.001 A 
ATOM     16  C   UNL     1       5.324  -5.354  28.560  0.00  0.00    +0.002 A 
ATOM     17  C   UNL     1       6.528  -5.920  28.145  0.00  0.00    +0.024 A 
ATOM     18  C   UNL     1       7.238  -5.258  27.159  0.00  0.00    +0.042 A 
ATOM     19  N   UNL     1       8.450  -5.673  26.621  0.00  0.00    -0.281 N 
ATOM     20  H   UNL     1       8.956  -6.505  26.882  0.00  0.00    +0.155 HD
ATOM     21  C   UNL     1       8.897  -4.793  25.656  0.00  0.00    +0.251 C 
ATOM     22  O   UNL     1       9.924  -4.892  25.007  0.00  0.00    -0.270 OA
ENDROOT
BRANCH   1  23
ATOM     23  O   UNL     1       5.447  -0.030  24.616  0.00  0.00    -0.409 OA
ATOM     24  H   UNL     1       4.742  -0.358  24.028  0.00  0.00    +0.328 HD
ENDBRANCH   1  23
TORSDOF 1
ENDMDL
MODEL 4
REMARK VINA RESULT:      -7.5      1.413      6.956
REMARK  Name = 
REMARK  1 active torsions:
REMARK  status: ('A' for Active; 'I' for Inactive)
REMARK    1  A    between atoms: O_1  and  N_2
REMARK                            x       y       z     vdW  Elec       q    Type
REMARK                         _______ _______ _______ _____ _____    ______ ____
ROOT
ATOM      1  N   UNL     1       7.049  -2.842  22.448  0.00  0.00    -0.085 NA
ATOM      2  C   UNL     1       7.041  -3.131  23.708  0.00  0.00    +0.133 C 
ATOM      3  C   UNL     1       6.383  -4.269  24.409  0.00  0.00    +0.026 A 
ATOM      4  C   UNL     1       5.604  -5.320  23.952  0.00  0.00    +0.012 A 
ATOM      5  C   UNL     1       5.135  -6.248  24.886  0.00  0.00    +0.001 A 
ATOM      6  C   UNL     1       5.449  -6.112  26.247  0.00  0.00    +0.002 A 
ATOM      7  C   UNL     1       6.234  -5.047  26.695  0.00  0.00    +0.024 A 
ATOM      8  C   UNL     1       6.693  -4.130  25.768  0.00  0.00    +0.041 A 
ATOM      9  N   UNL     1       7.482  -3.018  25.994  0.00  0.00    -0.312 N 
ATOM     10  H   UNL     1       7.824  -2.685  26.888  0.00  0.00    +0.152 HD
ATOM     11  C   UNL     1       7.745  -2.336  24.816  0.00  0.00    +0.074 C 
ATOM     12  C   UNL     1       8.473  -1.210  24.693  0.00  0.00    +0.069 C 
ATOM     13  C   UNL     1       8.891  -0.326  23.588  0.00  0.00    +0.010 A 
ATOM     14  C   UNL     1       8.689  -0.287  22.221  0.00  0.00    +0.010 A 
ATOM     15  C   UNL     1       9.272   0.743  21.468  0.00  0.00    +0.001 A 
ATOM     16  C   UNL     1      10.053   1.732  22.080  0.00  0.00    +0.002 A 
ATOM     17  C   UNL     1      10.262   1.708  23.457  0.00  0.00    +0.024 A 
ATOM     18  C   UNL     1       9.674   0.681  24.174  0.00  0.00    +0.042 A 
ATOM     19  N   UNL     1       9.770   0.499  25.549  0.00  0.00    -0.281 N 
ATOM     20  H   UNL     1      10.274   1.093  26.188  0.00  0.00    +0.155 HD
ATOM     21  C   UNL     1       9.070  -0.620  25.955  0.00  0.00    +0.251 C 
ATOM     22  O   UNL     1       8.966  -1.031  27.098  0.00  0.00    -0.270 OA
ENDROOT
BRANCH   1  23
ATOM     23  O   UNL     1       6.330  -3.735  21.658  0.00  0.00    -0.409 OA
ATOM     24  H   UNL     1       6.179  -3.221  20.844  0.00  0.00    +0.328 HD
ENDBRANCH   1  23
TORSDOF 1
ENDMDL
MODEL 5
REMARK VINA RESULT:      -7.5      1.462      1.867
REMARK  Name = 
REMARK  1 active torsions:
REMARK  status: ('A' for Active; 'I' for Inactive)
REMARK    1  A    between atoms: O_1  and  N_2
REMARK                            x       y       z     vdW  Elec       q    Type
REMARK                         _______ _______ _______ _____ _____    ______ ____
ROOT
ATOM      1  N   UNL     1       8.696  -1.350  26.248  0.00  0.00    -0.085 NA
ATOM      2  C   UNL     1       8.676  -1.135  24.973  0.00  0.00    +0.133 C 
ATOM      3  C   UNL     1       9.296  -0.025  24.195  0.00  0.00    +0.026 A 
ATOM      4  C   UNL     1      10.045   1.076  24.579  0.00  0.00    +0.012 A 
ATOM      5  C   UNL     1      10.496   1.946  23.582  0.00  0.00    +0.001 A 
ATOM      6  C   UNL     1      10.193   1.703  22.232  0.00  0.00    +0.002 A 
ATOM      7  C   UNL     1       9.435   0.590  21.860  0.00  0.00    +0.024 A 
ATOM      8  C   UNL     1       8.989  -0.265  22.850  0.00  0.00    +0.041 A 
ATOM      9  N   UNL     1       8.239  -1.417  22.702  0.00  0.00    -0.312 N 
ATOM     10  H   UNL     1       7.873  -1.799  21.837  0.00  0.00    +0.152 HD
ATOM     11  C   UNL     1       7.985  -2.017  23.926  0.00  0.00    +0.074 C 
ATOM     12  C   UNL     1       7.276  -3.144  24.128  0.00  0.00    +0.069 C 
ATOM     13  C   UNL     1       6.883  -3.961  25.291  0.00  0.00    +0.010 A 
ATOM     14  C   UNL     1       7.072  -3.892  26.659  0.00  0.00    +0.010 A 
ATOM     15  C   UNL     1       6.533  -4.893  27.480  0.00  0.00    +0.001 A 
ATOM     16  C   UNL     1       5.806  -5.960  26.936  0.00  0.00    +0.002 A 
ATOM     17  C   UNL     1       5.604  -6.041  25.560  0.00  0.00    +0.024 A 
ATOM     18  C   UNL     1       6.147  -5.039  24.775  0.00  0.00    +0.042 A 
ATOM     19  N   UNL     1       6.044  -4.954  23.392  0.00  0.00    -0.281 N 
ATOM     20  H   UNL     1       5.561  -5.607  22.796  0.00  0.00    +0.155 HD
ATOM     21  C   UNL     1       6.695  -3.835  22.911  0.00  0.00    +0.251 C 
ATOM     22  O   UNL     1       6.774  -3.492  21.744  0.00  0.00    -0.270 OA
ENDROOT
BRANCH   1  23
ATOM     23  O   UNL     1       9.400  -0.392  26.973  0.00  0.00    -0.409 OA
ATOM     24  H   UNL     1      10.230  -0.314  26.468  0.00  0.00    +0.328 HD
ENDBRANCH   1  23
TORSDOF 1
ENDMDL
MODEL 6
REMARK VINA RESULT:      -7.4      1.983      3.711
REMARK  Name = 
REMARK  1 active torsions:
REMARK  status: ('A' for Active; 'I' for Inactive)
REMARK    1  A    between atoms: O_1  and  N_2
REMARK                            x       y       z     vdW  Elec       q    Type
REMARK                         _______ _______ _______ _____ _____    ______ ____
ROOT
ATOM      1  N   UNL     1       5.274  -4.260  22.102  0.00  0.00    -0.085 NA
ATOM      2  C   UNL     1       6.155  -4.238  23.048  0.00  0.00    +0.133 C 
ATOM      3  C   UNL     1       7.432  -3.475  23.128  0.00  0.00    +0.026 A 
ATOM      4  C   UNL     1       8.049  -2.596  22.251  0.00  0.00    +0.012 A 
ATOM      5  C   UNL     1       9.267  -2.028  22.636  0.00  0.00    +0.001 A 
ATOM      6  C   UNL     1       9.842  -2.344  23.877  0.00  0.00    +0.002 A 
ATOM      7  C   UNL     1       9.210  -3.233  24.750  0.00  0.00    +0.024 A 
ATOM      8  C   UNL     1       8.007  -3.794  24.364  0.00  0.00    +0.041 A 
ATOM      9  N   UNL     1       7.220  -4.682  25.072  0.00  0.00    -0.312 N 
ATOM     10  H   UNL     1       7.420  -5.085  25.981  0.00  0.00    +0.152 HD
ATOM     11  C   UNL     1       6.078  -5.024  24.363  0.00  0.00    +0.074 C 
ATOM     12  C   UNL     1       5.113  -5.872  24.767  0.00  0.00    +0.069 C 
ATOM     13  C   UNL     1       3.841  -6.378  24.219  0.00  0.00    +0.010 A 
ATOM     14  C   UNL     1       3.125  -6.197  23.051  0.00  0.00    +0.010 A 
ATOM     15  C   UNL     1       1.905  -6.867  22.879  0.00  0.00    +0.001 A 
ATOM     16  C   UNL     1       1.402  -7.717  23.873  0.00  0.00    +0.002 A 
ATOM     17  C   UNL     1       2.115  -7.913  25.054  0.00  0.00    +0.024 A 
ATOM     18  C   UNL     1       3.315  -7.239  25.195  0.00  0.00    +0.042 A 
ATOM     19  N   UNL     1       4.158  -7.315  26.297  0.00  0.00    -0.281 N 
ATOM     20  H   UNL     1       4.000  -7.871  27.122  0.00  0.00    +0.155 HD
ATOM     21  C   UNL     1       5.276  -6.523  26.126  0.00  0.00    +0.251 C 
ATOM     22  O   UNL     1       6.193  -6.388  26.918  0.00  0.00    -0.270 OA
ENDROOT
BRANCH   1  23
ATOM     23  O   UNL     1       5.589  -3.448  21.016  0.00  0.00    -0.409 OA
ATOM     24  H   UNL     1       6.465  -3.098  21.262  0.00  0.00    +0.328 HD
ENDBRANCH   1  23
TORSDOF 1
ENDMDL
MODEL 7
REMARK VINA RESULT:      -7.1      2.568      6.478
REMARK  Name = 
REMARK  1 active torsions:
REMARK  status: ('A' for Active; 'I' for Inactive)
REMARK    1  A    between atoms: O_1  and  N_2
REMARK                            x       y       z     vdW  Elec       q    Type
REMARK                         _______ _______ _______ _____ _____    ______ ____
ROOT
ATOM      1  N   UNL     1       5.700  -1.406  24.598  0.00  0.00    -0.085 NA
ATOM      2  C   UNL     1       6.387  -2.210  23.853  0.00  0.00    +0.133 C 
ATOM      3  C   UNL     1       6.070  -3.602  23.428  0.00  0.00    +0.026 A 
ATOM      4  C   UNL     1       4.994  -4.435  23.693  0.00  0.00    +0.012 A 
ATOM      5  C   UNL     1       4.992  -5.711  23.123  0.00  0.00    +0.001 A 
ATOM      6  C   UNL     1       6.055  -6.130  22.307  0.00  0.00    +0.002 A 
ATOM      7  C   UNL     1       7.135  -5.281  22.050  0.00  0.00    +0.024 A 
ATOM      8  C   UNL     1       7.132  -4.021  22.618  0.00  0.00    +0.041 A 
ATOM      9  N   UNL     1       8.088  -3.030  22.488  0.00  0.00    -0.312 N 
ATOM     10  H   UNL     1       8.960  -3.088  21.974  0.00  0.00    +0.152 HD
ATOM     11  C   UNL     1       7.740  -1.895  23.203  0.00  0.00    +0.074 C 
ATOM     12  C   UNL     1       8.458  -0.759  23.292  0.00  0.00    +0.069 C 
ATOM     13  C   UNL     1       8.307   0.548  23.959  0.00  0.00    +0.010 A 
ATOM     14  C   UNL     1       7.366   1.136  24.783  0.00  0.00    +0.010 A 
ATOM     15  C   UNL     1       7.568   2.448  25.234  0.00  0.00    +0.001 A 
ATOM     16  C   UNL     1       8.709   3.171  24.863  0.00  0.00    +0.002 A 
ATOM     17  C   UNL     1       9.669   2.591  24.036  0.00  0.00    +0.024 A 
ATOM     18  C   UNL     1       9.443   1.295  23.608  0.00  0.00    +0.042 A 
ATOM     19  N   UNL     1      10.287   0.558  22.786  0.00  0.00    -0.281 N 
ATOM     20  H   UNL     1      11.165   0.876  22.407  0.00  0.00    +0.155 HD
ATOM     21  C   UNL     1       9.775  -0.701  22.543  0.00  0.00    +0.251 C 
ATOM     22  O   UNL     1      10.291  -1.572  21.864  0.00  0.00    -0.270 OA
ENDROOT
BRANCH   1  23
ATOM     23  O   UNL     1       4.501  -1.945  25.057  0.00  0.00    -0.409 OA
ATOM     24  H   UNL     1       3.843  -1.509  24.486  0.00  0.00    +0.328 HD
ENDBRANCH   1  23
TORSDOF 1
ENDMDL
MODEL 8
REMARK VINA RESULT:      -7.0      2.891      6.462
REMARK  Name = 
REMARK  1 active torsions:
REMARK  status: ('A' for Active; 'I' for Inactive)
REMARK    1  A    between atoms: O_1  and  N_2
REMARK                            x       y       z     vdW  Elec       q    Type
REMARK                         _______ _______ _______ _____ _____    ______ ____
ROOT
ATOM      1  N   UNL     1       5.518  -1.144  25.262  0.00  0.00    -0.085 NA
ATOM      2  C   UNL     1       6.273  -2.151  25.554  0.00  0.00    +0.133 C 
ATOM      3  C   UNL     1       6.033  -3.261  26.520  0.00  0.00    +0.026 A 
ATOM      4  C   UNL     1       4.977  -3.541  27.372  0.00  0.00    +0.012 A 
ATOM      5  C   UNL     1       5.055  -4.692  28.162  0.00  0.00    +0.001 A 
ATOM      6  C   UNL     1       6.175  -5.534  28.087  0.00  0.00    +0.002 A 
ATOM      7  C   UNL     1       7.234  -5.238  27.225  0.00  0.00    +0.024 A 
ATOM      8  C   UNL     1       7.153  -4.098  26.449  0.00  0.00    +0.041 A 
ATOM      9  N   UNL     1       8.076  -3.628  25.533  0.00  0.00    -0.312 N 
ATOM     10  H   UNL     1       8.976  -4.037  25.310  0.00  0.00    +0.152 HD
ATOM     11  C   UNL     1       7.647  -2.450  24.941  0.00  0.00    +0.074 C 
ATOM     12  C   UNL     1       8.316  -1.734  24.017  0.00  0.00    +0.069 C 
ATOM     13  C   UNL     1       8.079  -0.494  23.253  0.00  0.00    +0.010 A 
ATOM     14  C   UNL     1       7.073   0.451  23.187  0.00  0.00    +0.010 A 
ATOM     15  C   UNL     1       7.200   1.533  22.304  0.00  0.00    +0.001 A 
ATOM     16  C   UNL     1       8.332   1.670  21.489  0.00  0.00    +0.002 A 
ATOM     17  C   UNL     1       9.356   0.728  21.547  0.00  0.00    +0.024 A 
ATOM     18  C   UNL     1       9.203  -0.328  22.428  0.00  0.00    +0.042 A 
ATOM     19  N   UNL     1      10.118  -1.355  22.623  0.00  0.00    -0.281 N 
ATOM     20  H   UNL     1      11.002  -1.454  22.150  0.00  0.00    +0.155 HD
ATOM     21  C   UNL     1       9.668  -2.253  23.570  0.00  0.00    +0.251 C 
ATOM     22  O   UNL     1      10.253  -3.251  23.955  0.00  0.00    -0.270 OA
ENDROOT
BRANCH   1  23
ATOM     23  O   UNL     1       4.317  -1.114  25.967  0.00  0.00    -0.409 OA
ATOM     24  H   UNL     1       3.954  -0.242  25.727  0.00  0.00    +0.328 HD
ENDBRANCH   1  23
TORSDOF 1
ENDMDL
MODEL 9
REMARK VINA RESULT:      -7.0      2.311      3.209
REMARK  Name = 
REMARK  1 active torsions:
REMARK  status: ('A' for Active; 'I' for Inactive)
REMARK    1  A    between atoms: O_1  and  N_2
REMARK                            x       y       z     vdW  Elec       q    Type
REMARK                         _______ _______ _______ _____ _____    ______ ____
ROOT
ATOM      1  N   UNL     1       6.089  -0.192  24.105  0.00  0.00    -0.085 NA
ATOM      2  C   UNL     1       7.377  -0.304  24.113  0.00  0.00    +0.133 C 
ATOM      3  C   UNL     1       8.415   0.761  24.019  0.00  0.00    +0.026 A 
ATOM      4  C   UNL     1       8.327   2.138  23.892  0.00  0.00    +0.012 A 
ATOM      5  C   UNL     1       9.516   2.872  23.838  0.00  0.00    +0.001 A 
ATOM      6  C   UNL     1      10.759   2.223  23.910  0.00  0.00    +0.002 A 
ATOM      7  C   UNL     1      10.832   0.834  24.036  0.00  0.00    +0.024 A 
ATOM      8  C   UNL     1       9.654   0.113  24.086  0.00  0.00    +0.041 A 
ATOM      9  N   UNL     1       9.501  -1.255  24.215  0.00  0.00    -0.312 N 
ATOM     10  H   UNL     1      10.239  -1.949  24.263  0.00  0.00    +0.152 HD
ATOM     11  C   UNL     1       8.163  -1.616  24.232  0.00  0.00    +0.074 C 
ATOM     12  C   UNL     1       7.677  -2.867  24.336  0.00  0.00    +0.069 C 
ATOM     13  C   UNL     1       6.341  -3.491  24.383  0.00  0.00    +0.010 A 
ATOM     14  C   UNL     1       5.035  -3.040  24.325  0.00  0.00    +0.010 A 
ATOM     15  C   UNL     1       3.983  -3.964  24.410  0.00  0.00    +0.001 A 
ATOM     16  C   UNL     1       4.236  -5.335  24.553  0.00  0.00    +0.002 A 
ATOM     17  C   UNL     1       5.546  -5.804  24.610  0.00  0.00    +0.024 A 
ATOM     18  C   UNL     1       6.563  -4.870  24.522  0.00  0.00    +0.042 A 
ATOM     19  N   UNL     1       7.923  -5.153  24.556  0.00  0.00    -0.281 N 
ATOM     20  H   UNL     1       8.332  -6.070  24.645  0.00  0.00    +0.155 HD
ATOM     21  C   UNL     1       8.676  -4.001  24.446  0.00  0.00    +0.251 C 
ATOM     22  O   UNL     1       9.894  -3.932  24.440  0.00  0.00    -0.270 OA
ENDROOT
BRANCH   1  23
ATOM     23  O   UNL     1       5.634   1.119  23.988  0.00  0.00    -0.409 OA
ATOM     24  H   UNL     1       4.807   1.011  23.484  0.00  0.00    +0.328 HD
ENDBRANCH   1  23
TORSDOF 1
ENDMDL
