MODEL 1
REMARK VINA RESULT:      -6.5      0.000      0.000
REMARK  Name = 
REMARK  11 active torsions:
REMARK  status: ('A' for Active; 'I' for Inactive)
REMARK    1  A    between atoms: CA_2  and  C_3
REMARK    2  A    between atoms: CA_2  and  C_5
REMARK    3  A    between atoms: CA_2  and  N_7
REMARK    4  A    between atoms: C_3  and  C_4
REMARK    5  A    between atoms: C_5  and  O_6
REMARK    6  A    between atoms: N_14  and  C_15
REMARK    7  A    between atoms: C_15  and  C_16
REMARK    8  A    between atoms: C_15  and  C_17
REMARK    9  A    between atoms: N_19  and  C_20
REMARK   10  A    between atoms: C_20  and  C_21
REMARK   11  A    between atoms: C_26  and  O_27
REMARK                            x       y       z     vdW  Elec       q    Type
REMARK                         _______ _______ _______ _____ _____    ______ ____
ROOT
ATOM      1  N   UNL     1       6.023  -2.385  26.522  0.00  0.00    -0.308 N 
ATOM      2  H   UNL     1       6.718  -2.595  27.232  0.00  0.00    +0.149 HD
ATOM      3  C   UNL     1       6.345  -3.100  25.377  0.00  0.00    +0.219 A 
ATOM      4  N   UNL     1       7.445  -2.662  24.728  0.00  0.00    -0.197 NA
ATOM      5  C   UNL     1       7.770  -3.171  23.511  0.00  0.00    +0.152 A 
ATOM      6  N   UNL     1       8.791  -2.631  22.735  0.00  0.00    -0.323 N 
ATOM      7  H   UNL     1       8.977  -3.182  21.901  0.00  0.00    +0.148 HD
ATOM      8  C   UNL     1       6.990  -4.232  23.022  0.00  0.00    +0.148 A 
ATOM      9  N   UNL     1       7.074  -4.983  21.870  0.00  0.00    -0.231 NA
ATOM     10  C   UNL     1       6.065  -5.823  21.948  0.00  0.00    +0.201 A 
ATOM     11  N   UNL     1       5.330  -5.641  23.094  0.00  0.00    -0.312 N 
ATOM     12  C   UNL     1       5.921  -4.628  23.802  0.00  0.00    +0.167 A 
ATOM     13  N   UNL     1       5.539  -4.101  24.973  0.00  0.00    -0.195 NA
ENDROOT
BRANCH  11  14
ATOM     14  C   UNL     1       4.119  -6.364  23.460  0.00  0.00    +0.084 C 
ATOM     15  C   UNL     1       2.883  -5.464  23.412  0.00  0.00    +0.030 C 
ATOM     16  C   UNL     1       4.260  -7.029  24.830  0.00  0.00    +0.030 C 
ENDBRANCH  11  14
BRANCH   1  17
ATOM     17  CA  UNL     1       4.644  -2.445  27.009  0.00  0.00    +0.098 C 
BRANCH  17  18
ATOM     18  C   UNL     1       4.126  -1.026  27.333  0.00  0.00    +0.021 C 
ATOM     19  C   UNL     1       4.864   0.105  26.622  0.00  0.00    +0.006 C 
ENDBRANCH  17  18
BRANCH  17  20
ATOM     20  C   UNL     1       4.589  -3.355  28.257  0.00  0.00    +0.178 C 
BRANCH  20  21
ATOM     21  O   UNL     1       4.475  -4.732  27.887  0.00  0.00    -0.393 OA
ATOM     22  H   UNL     1       4.549  -5.259  28.701  0.00  0.00    +0.209 HD
ENDBRANCH  20  21
ENDBRANCH  17  20
ENDBRANCH   1  17
BRANCH   6  23
ATOM     23  C   UNL     1       9.954  -2.070  23.397  0.00  0.00    +0.142 C 
BRANCH  23  24
ATOM     24  C   UNL     1      10.055  -0.559  23.304  0.00  0.00    +0.011 A 
ATOM     25  C   UNL     1       9.869   0.056  22.056  0.00  0.00    +0.122 A 
ATOM     26  C   UNL     1       9.935   1.442  21.905  0.00  0.00    +0.046 A 
ATOM     27  C   UNL     1      10.196   2.246  23.012  0.00  0.00    +0.004 A 
ATOM     28  C   UNL     1      10.399   1.661  24.259  0.00  0.00    +0.001 A 
ATOM     29  C   UNL     1      10.331   0.273  24.404  0.00  0.00    +0.009 A 
BRANCH  25  30
ATOM     30  O   UNL     1       9.621  -0.734  20.966  0.00  0.00    -0.506 OA
ATOM     31  H   UNL     1      10.468  -0.993  20.569  0.00  0.00    +0.292 HD
ENDBRANCH  25  30
ENDBRANCH  23  24
ENDBRANCH   6  23
TORSDOF 8
ENDMDL
MODEL 2
REMARK VINA RESULT:      -6.5      4.469      8.692
REMARK  Name = 
REMARK  11 active torsions:
REMARK  status: ('A' for Active; 'I' for Inactive)
REMARK    1  A    between atoms: CA_2  and  C_3
REMARK    2  A    between atoms: CA_2  and  C_5
REMARK    3  A    between atoms: CA_2  and  N_7
REMARK    4  A    between atoms: C_3  and  C_4
REMARK    5  A    between atoms: C_5  and  O_6
REMARK    6  A    between atoms: N_14  and  C_15
REMARK    7  A    between atoms: C_15  and  C_16
REMARK    8  A    between atoms: C_15  and  C_17
REMARK    9  A    between atoms: N_19  and  C_20
REMARK   10  A    between atoms: C_20  and  C_21
REMARK   11  A    between atoms: C_26  and  O_27
REMARK                            x       y       z     vdW  Elec       q    Type
REMARK                         _______ _______ _______ _____ _____    ______ ____
ROOT
ATOM      1  N   UNL     1      11.611   3.964  23.710  0.00  0.00    -0.308 N 
ATOM      2  H   UNL     1      11.888   3.656  24.638  0.00  0.00    +0.149 HD
ATOM      3  C   UNL     1      10.354   3.439  23.440  0.00  0.00    +0.219 A 
ATOM      4  N   UNL     1      10.331   2.105  23.234  0.00  0.00    -0.197 NA
ATOM      5  C   UNL     1       9.195   1.498  22.801  0.00  0.00    +0.152 A 
ATOM      6  N   UNL     1       9.174   0.162  22.414  0.00  0.00    -0.323 N 
ATOM      7  H   UNL     1       8.235  -0.168  22.212  0.00  0.00    +0.148 HD
ATOM      8  C   UNL     1       8.040   2.290  22.690  0.00  0.00    +0.148 A 
ATOM      9  N   UNL     1       6.745   1.985  22.328  0.00  0.00    -0.231 NA
ATOM     10  C   UNL     1       6.105   3.131  22.393  0.00  0.00    +0.201 A 
ATOM     11  N   UNL     1       6.929   4.162  22.772  0.00  0.00    -0.312 N 
ATOM     12  C   UNL     1       8.176   3.633  22.980  0.00  0.00    +0.167 A 
ATOM     13  N   UNL     1       9.298   4.269  23.344  0.00  0.00    -0.195 NA
ENDROOT
BRANCH  11  14
ATOM     14  C   UNL     1       6.552   5.565  22.886  0.00  0.00    +0.084 C 
ATOM     15  C   UNL     1       5.034   5.744  22.934  0.00  0.00    +0.030 C 
ATOM     16  C   UNL     1       7.167   6.399  21.761  0.00  0.00    +0.030 C 
ENDBRANCH  11  14
BRANCH   1  17
ATOM     17  CA  UNL     1      11.830   5.390  23.469  0.00  0.00    +0.098 C 
BRANCH  17  18
ATOM     18  C   UNL     1      13.269   5.635  22.963  0.00  0.00    +0.021 C 
ATOM     19  C   UNL     1      13.429   5.612  21.446  0.00  0.00    +0.006 C 
ENDBRANCH  17  18
BRANCH  17  20
ATOM     20  C   UNL     1      11.560   6.170  24.776  0.00  0.00    +0.178 C 
BRANCH  20  21
ATOM     21  O   UNL     1      12.761   6.760  25.282  0.00  0.00    -0.393 OA
ATOM     22  H   UNL     1      12.751   7.700  25.034  0.00  0.00    +0.209 HD
ENDBRANCH  20  21
ENDBRANCH  17  20
ENDBRANCH   1  17
BRANCH   6  23
ATOM     23  C   UNL     1      10.045  -0.779  23.093  0.00  0.00    +0.142 C 
BRANCH  23  24
ATOM     24  C   UNL     1       9.364  -1.586  24.182  0.00  0.00    +0.011 A 
ATOM     25  C   UNL     1       9.176  -0.998  25.442  0.00  0.00    +0.122 A 
ATOM     26  C   UNL     1       8.544  -1.681  26.482  0.00  0.00    +0.046 A 
ATOM     27  C   UNL     1       8.088  -2.981  26.278  0.00  0.00    +0.004 A 
ATOM     28  C   UNL     1       8.273  -3.593  25.042  0.00  0.00    +0.001 A 
ATOM     29  C   UNL     1       8.907  -2.904  24.004  0.00  0.00    +0.009 A 
BRANCH  25  30
ATOM     30  O   UNL     1       9.633   0.276  25.646  0.00  0.00    -0.506 OA
ATOM     31  H   UNL     1      10.557   0.234  25.940  0.00  0.00    +0.292 HD
ENDBRANCH  25  30
ENDBRANCH  23  24
ENDBRANCH   6  23
TORSDOF 8
ENDMDL
MODEL 3
REMARK VINA RESULT:      -6.2      0.971      1.325
REMARK  Name = 
REMARK  11 active torsions:
REMARK  status: ('A' for Active; 'I' for Inactive)
REMARK    1  A    between atoms: CA_2  and  C_3
REMARK    2  A    between atoms: CA_2  and  C_5
REMARK    3  A    between atoms: CA_2  and  N_7
REMARK    4  A    between atoms: C_3  and  C_4
REMARK    5  A    between atoms: C_5  and  O_6
REMARK    6  A    between atoms: N_14  and  C_15
REMARK    7  A    between atoms: C_15  and  C_16
REMARK    8  A    between atoms: C_15  and  C_17
REMARK    9  A    between atoms: N_19  and  C_20
REMARK   10  A    between atoms: C_20  and  C_21
REMARK   11  A    between atoms: C_26  and  O_27
REMARK                            x       y       z     vdW  Elec       q    Type
REMARK                         _______ _______ _______ _____ _____    ______ ____
ROOT
ATOM      1  N   UNL     1       6.029  -2.101  26.328  0.00  0.00    -0.308 N 
ATOM      2  H   UNL     1       6.728  -2.242  27.052  0.00  0.00    +0.149 HD
ATOM      3  C   UNL     1       6.377  -2.882  25.235  0.00  0.00    +0.219 A 
ATOM      4  N   UNL     1       7.466  -2.455  24.560  0.00  0.00    -0.197 NA
ATOM      5  C   UNL     1       7.811  -3.034  23.380  0.00  0.00    +0.152 A 
ATOM      6  N   UNL     1       8.818  -2.518  22.571  0.00  0.00    -0.323 N 
ATOM      7  H   UNL     1       9.023  -3.118  21.777  0.00  0.00    +0.148 HD
ATOM      8  C   UNL     1       7.064  -4.150  22.963  0.00  0.00    +0.148 A 
ATOM      9  N   UNL     1       7.175  -4.974  21.864  0.00  0.00    -0.231 NA
ATOM     10  C   UNL     1       6.192  -5.837  21.997  0.00  0.00    +0.201 A 
ATOM     11  N   UNL     1       5.447  -5.601  23.127  0.00  0.00    -0.312 N 
ATOM     12  C   UNL     1       6.005  -4.525  23.766  0.00  0.00    +0.167 A 
ATOM     13  N   UNL     1       5.603  -3.931  24.898  0.00  0.00    -0.195 NA
ENDROOT
BRANCH  11  14
ATOM     14  C   UNL     1       4.257  -6.334  23.539  0.00  0.00    +0.084 C 
ATOM     15  C   UNL     1       2.996  -5.475  23.433  0.00  0.00    +0.030 C 
ATOM     16  C   UNL     1       4.415  -6.904  24.949  0.00  0.00    +0.030 C 
ENDBRANCH  11  14
BRANCH   1  17
ATOM     17  CA  UNL     1       4.651  -2.170  26.815  0.00  0.00    +0.098 C 
BRANCH  17  18
ATOM     18  C   UNL     1       4.132  -0.756  27.162  0.00  0.00    +0.021 C 
ATOM     19  C   UNL     1       5.110   0.113  27.947  0.00  0.00    +0.006 C 
ENDBRANCH  17  18
BRANCH  17  20
ATOM     20  C   UNL     1       4.598  -3.099  28.050  0.00  0.00    +0.178 C 
BRANCH  20  21
ATOM     21  O   UNL     1       4.233  -4.431  27.678  0.00  0.00    -0.393 OA
ATOM     22  H   UNL     1       3.450  -4.370  27.105  0.00  0.00    +0.209 HD
ENDBRANCH  20  21
ENDBRANCH  17  20
ENDBRANCH   1  17
BRANCH   6  23
ATOM     23  C   UNL     1       9.960  -1.878  23.195  0.00  0.00    +0.142 C 
BRANCH  23  24
ATOM     24  C   UNL     1       9.914  -0.362  23.174  0.00  0.00    +0.011 A 
ATOM     25  C   UNL     1       9.761   0.327  24.388  0.00  0.00    +0.122 A 
ATOM     26  C   UNL     1       9.726   1.721  24.439  0.00  0.00    +0.046 A 
ATOM     27  C   UNL     1       9.840   2.459  23.263  0.00  0.00    +0.004 A 
ATOM     28  C   UNL     1       9.979   1.801  22.044  0.00  0.00    +0.001 A 
ATOM     29  C   UNL     1      10.014   0.405  21.999  0.00  0.00    +0.009 A 
BRANCH  25  30
ATOM     30  O   UNL     1       9.640  -0.397  25.542  0.00  0.00    -0.506 OA
ATOM     31  H   UNL     1       9.806  -1.333  25.344  0.00  0.00    +0.292 HD
ENDBRANCH  25  30
ENDBRANCH  23  24
ENDBRANCH   6  23
TORSDOF 8
ENDMDL
MODEL 4
REMARK VINA RESULT:      -6.2      2.562      6.250
REMARK  Name = 
REMARK  11 active torsions:
REMARK  status: ('A' for Active; 'I' for Inactive)
REMARK    1  A    between atoms: CA_2  and  C_3
REMARK    2  A    between atoms: CA_2  and  C_5
REMARK    3  A    between atoms: CA_2  and  N_7
REMARK    4  A    between atoms: C_3  and  C_4
REMARK    5  A    between atoms: C_5  and  O_6
REMARK    6  A    between atoms: N_14  and  C_15
REMARK    7  A    between atoms: C_15  and  C_16
REMARK    8  A    between atoms: C_15  and  C_17
REMARK    9  A    between atoms: N_19  and  C_20
REMARK   10  A    between atoms: C_20  and  C_21
REMARK   11  A    between atoms: C_26  and  O_27
REMARK                            x       y       z     vdW  Elec       q    Type
REMARK                         _______ _______ _______ _____ _____    ______ ____
ROOT
ATOM      1  N   UNL     1       6.075  -0.678  26.683  0.00  0.00    -0.308 N 
ATOM      2  H   UNL     1       5.215  -1.114  26.361  0.00  0.00    +0.149 HD
ATOM      3  C   UNL     1       7.060  -0.912  25.733  0.00  0.00    +0.219 A 
ATOM      4  N   UNL     1       7.487  -2.191  25.665  0.00  0.00    -0.197 NA
ATOM      5  C   UNL     1       8.559  -2.515  24.895  0.00  0.00    +0.152 A 
ATOM      6  N   UNL     1       9.135  -3.781  24.929  0.00  0.00    -0.323 N 
ATOM      7  H   UNL     1       9.860  -3.895  24.227  0.00  0.00    +0.148 HD
ATOM      8  C   UNL     1       9.117  -1.500  24.101  0.00  0.00    +0.148 A 
ATOM      9  N   UNL     1      10.158  -1.504  23.197  0.00  0.00    -0.231 NA
ATOM     10  C   UNL     1      10.232  -0.261  22.773  0.00  0.00    +0.201 A 
ATOM     11  N   UNL     1       9.293   0.545  23.368  0.00  0.00    -0.312 N 
ATOM     12  C   UNL     1       8.558  -0.242  24.216  0.00  0.00    +0.167 A 
ATOM     13  N   UNL     1       7.546   0.120  25.017  0.00  0.00    -0.195 NA
ENDROOT
BRANCH  11  14
ATOM     14  C   UNL     1       9.141   1.980  23.166  0.00  0.00    +0.084 C 
ATOM     15  C   UNL     1       8.390   2.295  21.872  0.00  0.00    +0.030 C 
ATOM     16  C   UNL     1      10.493   2.693  23.202  0.00  0.00    +0.030 C 
ENDBRANCH  11  14
BRANCH   1  17
ATOM     17  CA  UNL     1       5.897   0.690  27.171  0.00  0.00    +0.098 C 
BRANCH  17  18
ATOM     18  C   UNL     1       5.966   0.724  28.714  0.00  0.00    +0.021 C 
ATOM     19  C   UNL     1       7.086   1.587  29.288  0.00  0.00    +0.006 C 
ENDBRANCH  17  18
BRANCH  17  20
ATOM     20  C   UNL     1       4.542   1.234  26.663  0.00  0.00    +0.178 C 
BRANCH  20  21
ATOM     21  O   UNL     1       4.516   1.303  25.234  0.00  0.00    -0.393 OA
ATOM     22  H   UNL     1       4.069   0.503  24.912  0.00  0.00    +0.209 HD
ENDBRANCH  20  21
ENDBRANCH  17  20
ENDBRANCH   1  17
BRANCH   6  23
ATOM     23  C   UNL     1       8.284  -4.933  25.157  0.00  0.00    +0.142 C 
BRANCH  23  24
ATOM     24  C   UNL     1       7.336  -5.244  24.014  0.00  0.00    +0.011 A 
ATOM     25  C   UNL     1       5.958  -5.062  24.211  0.00  0.00    +0.122 A 
ATOM     26  C   UNL     1       5.034  -5.316  23.196  0.00  0.00    +0.046 A 
ATOM     27  C   UNL     1       5.477  -5.766  21.955  0.00  0.00    +0.004 A 
ATOM     28  C   UNL     1       6.837  -5.969  21.737  0.00  0.00    +0.001 A 
ATOM     29  C   UNL     1       7.757  -5.712  22.757  0.00  0.00    +0.009 A 
BRANCH  25  30
ATOM     30  O   UNL     1       5.521  -4.629  25.433  0.00  0.00    -0.506 OA
ATOM     31  H   UNL     1       5.443  -5.393  26.026  0.00  0.00    +0.292 HD
ENDBRANCH  25  30
ENDBRANCH  23  24
ENDBRANCH   6  23
TORSDOF 8
ENDMDL
MODEL 5
REMARK VINA RESULT:      -6.1      3.581      7.516
REMARK  Name = 
REMARK  11 active torsions:
REMARK  status: ('A' for Active; 'I' for Inactive)
REMARK    1  A    between atoms: CA_2  and  C_3
REMARK    2  A    between atoms: CA_2  and  C_5
REMARK    3  A    between atoms: CA_2  and  N_7
REMARK    4  A    between atoms: C_3  and  C_4
REMARK    5  A    between atoms: C_5  and  O_6
REMARK    6  A    between atoms: N_14  and  C_15
REMARK    7  A    between atoms: C_15  and  C_16
REMARK    8  A    between atoms: C_15  and  C_17
REMARK    9  A    between atoms: N_19  and  C_20
REMARK   10  A    between atoms: C_20  and  C_21
REMARK   11  A    between atoms: C_26  and  O_27
REMARK                            x       y       z     vdW  Elec       q    Type
REMARK                         _______ _______ _______ _____ _____    ______ ____
ROOT
ATOM      1  N   UNL     1       5.244   1.784  23.395  0.00  0.00    -0.308 N 
ATOM      2  H   UNL     1       4.862   1.619  22.468  0.00  0.00    +0.149 HD
ATOM      3  C   UNL     1       6.628   1.824  23.290  0.00  0.00    +0.219 A 
ATOM      4  N   UNL     1       7.210   0.633  23.033  0.00  0.00    -0.197 NA
ATOM      5  C   UNL     1       8.562   0.509  23.071  0.00  0.00    +0.152 A 
ATOM      6  N   UNL     1       9.193  -0.728  22.982  0.00  0.00    -0.323 N 
ATOM      7  H   UNL     1      10.203  -0.645  22.925  0.00  0.00    +0.148 HD
ATOM      8  C   UNL     1       9.315   1.678  23.272  0.00  0.00    +0.148 A 
ATOM      9  N   UNL     1      10.674   1.902  23.321  0.00  0.00    -0.231 NA
ATOM     10  C   UNL     1      10.788   3.192  23.551  0.00  0.00    +0.201 A 
ATOM     11  N   UNL     1       9.565   3.807  23.661  0.00  0.00    -0.312 N 
ATOM     12  C   UNL     1       8.606   2.847  23.471  0.00  0.00    +0.167 A 
ATOM     13  N   UNL     1       7.274   2.986  23.505  0.00  0.00    -0.195 NA
ENDROOT
BRANCH  11  14
ATOM     14  C   UNL     1       9.336   5.213  23.969  0.00  0.00    +0.084 C 
ATOM     15  C   UNL     1      10.581   6.062  23.708  0.00  0.00    +0.030 C 
ATOM     16  C   UNL     1       8.840   5.395  25.404  0.00  0.00    +0.030 C 
ENDBRANCH  11  14
BRANCH   1  17
ATOM     17  CA  UNL     1       4.576   2.860  24.127  0.00  0.00    +0.098 C 
BRANCH  17  18
ATOM     18  C   UNL     1       4.257   2.411  25.571  0.00  0.00    +0.021 C 
ATOM     19  C   UNL     1       3.215   3.261  26.292  0.00  0.00    +0.006 C 
ENDBRANCH  17  18
BRANCH  17  20
ATOM     20  C   UNL     1       3.287   3.258  23.372  0.00  0.00    +0.178 C 
BRANCH  20  21
ATOM     21  O   UNL     1       3.370   2.907  21.988  0.00  0.00    -0.393 OA
ATOM     22  H   UNL     1       4.311   2.903  21.744  0.00  0.00    +0.209 HD
ENDBRANCH  20  21
ENDBRANCH  17  20
ENDBRANCH   1  17
BRANCH   6  23
ATOM     23  C   UNL     1       8.593  -1.763  22.162  0.00  0.00    +0.142 C 
BRANCH  23  24
ATOM     24  C   UNL     1       7.917  -2.870  22.949  0.00  0.00    +0.011 A 
ATOM     25  C   UNL     1       8.673  -3.593  23.885  0.00  0.00    +0.122 A 
ATOM     26  C   UNL     1       8.107  -4.614  24.651  0.00  0.00    +0.046 A 
ATOM     27  C   UNL     1       6.761  -4.934  24.490  0.00  0.00    +0.004 A 
ATOM     28  C   UNL     1       5.992  -4.242  23.559  0.00  0.00    +0.001 A 
ATOM     29  C   UNL     1       6.564  -3.221  22.795  0.00  0.00    +0.009 A 
BRANCH  25  30
ATOM     30  O   UNL     1       9.997  -3.285  24.037  0.00  0.00    -0.506 OA
ATOM     31  H   UNL     1      10.079  -2.334  24.210  0.00  0.00    +0.292 HD
ENDBRANCH  25  30
ENDBRANCH  23  24
ENDBRANCH   6  23
TORSDOF 8
ENDMDL
MODEL 6
REMARK VINA RESULT:      -6.1      1.993      2.824
REMARK  Name = 
REMARK  11 active torsions:
REMARK  status: ('A' for Active; 'I' for Inactive)
REMARK    1  A    between atoms: CA_2  and  C_3
REMARK    2  A    between atoms: CA_2  and  C_5
REMARK    3  A    between atoms: CA_2  and  N_7
REMARK    4  A    between atoms: C_3  and  C_4
REMARK    5  A    between atoms: C_5  and  O_6
REMARK    6  A    between atoms: N_14  and  C_15
REMARK    7  A    between atoms: C_15  and  C_16
REMARK    8  A    between atoms: C_15  and  C_17
REMARK    9  A    between atoms: N_19  and  C_20
REMARK   10  A    between atoms: C_20  and  C_21
REMARK   11  A    between atoms: C_26  and  O_27
REMARK                            x       y       z     vdW  Elec       q    Type
REMARK                         _______ _______ _______ _____ _____    ______ ____
ROOT
ATOM      1  N   UNL     1       6.316  -3.616  27.570  0.00  0.00    -0.308 N 
ATOM      2  H   UNL     1       7.225  -3.623  28.024  0.00  0.00    +0.149 HD
ATOM      3  C   UNL     1       6.497  -3.222  26.251  0.00  0.00    +0.219 A 
ATOM      4  N   UNL     1       6.822  -1.922  26.089  0.00  0.00    -0.197 NA
ATOM      5  C   UNL     1       6.864  -1.376  24.845  0.00  0.00    +0.152 A 
ATOM      6  N   UNL     1       7.026  -0.009  24.644  0.00  0.00    -0.323 N 
ATOM      7  H   UNL     1       7.137   0.228  23.663  0.00  0.00    +0.148 HD
ATOM      8  C   UNL     1       6.669  -2.238  23.752  0.00  0.00    +0.148 A 
ATOM      9  N   UNL     1       6.690  -2.020  22.391  0.00  0.00    -0.231 NA
ATOM     10  C   UNL     1       6.427  -3.195  21.864  0.00  0.00    +0.201 A 
ATOM     11  N   UNL     1       6.230  -4.159  22.823  0.00  0.00    -0.312 N 
ATOM     12  C   UNL     1       6.396  -3.560  24.044  0.00  0.00    +0.167 A 
ATOM     13  N   UNL     1       6.283  -4.110  25.261  0.00  0.00    -0.195 NA
ENDROOT
BRANCH  11  14
ATOM     14  C   UNL     1       5.865  -5.549  22.581  0.00  0.00    +0.084 C 
ATOM     15  C   UNL     1       6.176  -5.976  21.146  0.00  0.00    +0.030 C 
ATOM     16  C   UNL     1       4.398  -5.808  22.924  0.00  0.00    +0.030 C 
ENDBRANCH  11  14
BRANCH   1  17
ATOM     17  CA  UNL     1       5.514  -4.811  27.830  0.00  0.00    +0.098 C 
BRANCH  17  18
ATOM     18  C   UNL     1       4.365  -4.486  28.811  0.00  0.00    +0.021 C 
ATOM     19  C   UNL     1       3.180  -3.751  28.189  0.00  0.00    +0.006 C 
ENDBRANCH  17  18
BRANCH  17  20
ATOM     20  C   UNL     1       6.431  -5.919  28.398  0.00  0.00    +0.178 C 
BRANCH  20  21
ATOM     21  O   UNL     1       7.646  -6.018  27.649  0.00  0.00    -0.393 OA
ATOM     22  H   UNL     1       8.382  -5.858  28.264  0.00  0.00    +0.209 HD
ENDBRANCH  20  21
ENDBRANCH  17  20
ENDBRANCH   1  17
BRANCH   6  23
ATOM     23  C   UNL     1       7.844   0.744  25.576  0.00  0.00    +0.142 C 
BRANCH  23  24
ATOM     24  C   UNL     1       8.624   1.882  24.943  0.00  0.00    +0.011 A 
ATOM     25  C   UNL     1       9.747   1.577  24.159  0.00  0.00    +0.122 A 
ATOM     26  C   UNL     1      10.499   2.575  23.537  0.00  0.00    +0.046 A 
ATOM     27  C   UNL     1      10.138   3.911  23.695  0.00  0.00    +0.004 A 
ATOM     28  C   UNL     1       9.036   4.242  24.479  0.00  0.00    +0.001 A 
ATOM     29  C   UNL     1       8.287   3.238  25.098  0.00  0.00    +0.009 A 
BRANCH  25  30
ATOM     30  O   UNL     1      10.107   0.265  24.011  0.00  0.00    -0.506 OA
ATOM     31  H   UNL     1      11.074   0.198  24.069  0.00  0.00    +0.292 HD
ENDBRANCH  25  30
ENDBRANCH  23  24
ENDBRANCH   6  23
TORSDOF 8
ENDMDL
MODEL 7
REMARK VINA RESULT:      -6.0      2.258      6.770
REMARK  Name = 
REMARK  11 active torsions:
REMARK  status: ('A' for Active; 'I' for Inactive)
REMARK    1  A    between atoms: CA_2  and  C_3
REMARK    2  A    between atoms: CA_2  and  C_5
REMARK    3  A    between atoms: CA_2  and  N_7
REMARK    4  A    between atoms: C_3  and  C_4
REMARK    5  A    between atoms: C_5  and  O_6
REMARK    6  A    between atoms: N_14  and  C_15
REMARK    7  A    between atoms: C_15  and  C_16
REMARK    8  A    between atoms: C_15  and  C_17
REMARK    9  A    between atoms: N_19  and  C_20
REMARK   10  A    between atoms: C_20  and  C_21
REMARK   11  A    between atoms: C_26  and  O_27
REMARK                            x       y       z     vdW  Elec       q    Type
REMARK                         _______ _______ _______ _____ _____    ______ ____
ROOT
ATOM      1  N   UNL     1       5.442  -0.210  24.747  0.00  0.00    -0.308 N 
ATOM      2  H   UNL     1       4.649  -0.278  24.115  0.00  0.00    +0.149 HD
ATOM      3  C   UNL     1       6.536  -0.802  24.131  0.00  0.00    +0.219 A 
ATOM      4  N   UNL     1       6.467  -2.146  24.027  0.00  0.00    -0.197 NA
ATOM      5  C   UNL     1       7.542  -2.856  23.596  0.00  0.00    +0.152 A 
ATOM      6  N   UNL     1       7.573  -4.246  23.636  0.00  0.00    -0.323 N 
ATOM      7  H   UNL     1       8.401  -4.629  23.188  0.00  0.00    +0.148 HD
ATOM      8  C   UNL     1       8.666  -2.132  23.163  0.00  0.00    +0.148 A 
ATOM      9  N   UNL     1       9.876  -2.534  22.640  0.00  0.00    -0.231 NA
ATOM     10  C   UNL     1      10.535  -1.415  22.434  0.00  0.00    +0.201 A 
ATOM     11  N   UNL     1       9.809  -0.311  22.809  0.00  0.00    -0.312 N 
ATOM     12  C   UNL     1       8.597  -0.756  23.268  0.00  0.00    +0.167 A 
ATOM     13  N   UNL     1       7.576  -0.035  23.752  0.00  0.00    -0.195 NA
ENDROOT
BRANCH  11  14
ATOM     14  C   UNL     1      10.266   1.072  22.767  0.00  0.00    +0.084 C 
ATOM     15  C   UNL     1      10.447   1.653  24.169  0.00  0.00    +0.030 C 
ATOM     16  C   UNL     1       9.328   1.943  21.930  0.00  0.00    +0.030 C 
ENDBRANCH  11  14
BRANCH   1  17
ATOM     17  CA  UNL     1       5.616   1.118  25.336  0.00  0.00    +0.098 C 
BRANCH  17  18
ATOM     18  C   UNL     1       5.130   1.124  26.803  0.00  0.00    +0.021 C 
ATOM     19  C   UNL     1       5.950   0.256  27.754  0.00  0.00    +0.006 C 
ENDBRANCH  17  18
BRANCH  17  20
ATOM     20  C   UNL     1       4.838   2.151  24.489  0.00  0.00    +0.178 C 
BRANCH  20  21
ATOM     21  O   UNL     1       5.289   2.150  23.131  0.00  0.00    -0.393 OA
ATOM     22  H   UNL     1       5.491   3.070  22.891  0.00  0.00    +0.209 HD
ENDBRANCH  20  21
ENDBRANCH  17  20
ENDBRANCH   1  17
BRANCH   6  23
ATOM     23  C   UNL     1       6.340  -4.982  23.426  0.00  0.00    +0.142 C 
BRANCH  23  24
ATOM     24  C   UNL     1       5.767  -5.610  24.683  0.00  0.00    +0.011 A 
ATOM     25  C   UNL     1       4.699  -6.512  24.560  0.00  0.00    +0.122 A 
ATOM     26  C   UNL     1       4.135  -7.135  25.675  0.00  0.00    +0.046 A 
ATOM     27  C   UNL     1       4.633  -6.859  26.946  0.00  0.00    +0.004 A 
ATOM     28  C   UNL     1       5.683  -5.958  27.097  0.00  0.00    +0.001 A 
ATOM     29  C   UNL     1       6.243  -5.337  25.977  0.00  0.00    +0.009 A 
BRANCH  25  30
ATOM     30  O   UNL     1       4.203  -6.776  23.313  0.00  0.00    -0.506 OA
ATOM     31  H   UNL     1       3.350  -6.324  23.213  0.00  0.00    +0.292 HD
ENDBRANCH  25  30
ENDBRANCH  23  24
ENDBRANCH   6  23
TORSDOF 8
ENDMDL
MODEL 8
REMARK VINA RESULT:      -5.9      2.428      7.203
REMARK  Name = 
REMARK  11 active torsions:
REMARK  status: ('A' for Active; 'I' for Inactive)
REMARK    1  A    between atoms: CA_2  and  C_3
REMARK    2  A    between atoms: CA_2  and  C_5
REMARK    3  A    between atoms: CA_2  and  N_7
REMARK    4  A    between atoms: C_3  and  C_4
REMARK    5  A    between atoms: C_5  and  O_6
REMARK    6  A    between atoms: N_14  and  C_15
REMARK    7  A    between atoms: C_15  and  C_16
REMARK    8  A    between atoms: C_15  and  C_17
REMARK    9  A    between atoms: N_19  and  C_20
REMARK   10  A    between atoms: C_20  and  C_21
REMARK   11  A    between atoms: C_26  and  O_27
REMARK                            x       y       z     vdW  Elec       q    Type
REMARK                         _______ _______ _______ _____ _____    ______ ____
ROOT
ATOM      1  N   UNL     1       9.115  -0.443  23.983  0.00  0.00    -0.308 N 
ATOM      2  H   UNL     1       9.948  -0.969  24.234  0.00  0.00    +0.149 HD
ATOM      3  C   UNL     1       8.198  -0.569  25.018  0.00  0.00    +0.219 A 
ATOM      4  N   UNL     1       7.645  -1.795  25.136  0.00  0.00    -0.197 NA
ATOM      5  C   UNL     1       6.617  -2.002  26.000  0.00  0.00    +0.152 A 
ATOM      6  N   UNL     1       5.907  -3.198  26.030  0.00  0.00    -0.323 N 
ATOM      7  H   UNL     1       5.239  -3.233  26.794  0.00  0.00    +0.148 HD
ATOM      8  C   UNL     1       6.242  -0.931  26.829  0.00  0.00    +0.148 A 
ATOM      9  N   UNL     1       5.290  -0.823  27.821  0.00  0.00    -0.231 NA
ATOM     10  C   UNL     1       5.386   0.421  28.236  0.00  0.00    +0.201 A 
ATOM     11  N   UNL     1       6.350   1.121  27.553  0.00  0.00    -0.312 N 
ATOM     12  C   UNL     1       6.919   0.260  26.652  0.00  0.00    +0.167 A 
ATOM     13  N   UNL     1       7.890   0.510  25.763  0.00  0.00    -0.195 NA
ENDROOT
BRANCH  11  14
ATOM     14  C   UNL     1       6.671   2.532  27.726  0.00  0.00    +0.084 C 
ATOM     15  C   UNL     1       6.957   2.874  29.189  0.00  0.00    +0.030 C 
ATOM     16  C   UNL     1       5.569   3.427  27.159  0.00  0.00    +0.030 C 
ENDBRANCH  11  14
BRANCH   1  17
ATOM     17  CA  UNL     1       9.394   0.897  23.467  0.00  0.00    +0.098 C 
BRANCH  17  18
ATOM     18  C   UNL     1       9.457   0.877  21.923  0.00  0.00    +0.021 C 
ATOM     19  C   UNL     1       9.394  -0.513  21.296  0.00  0.00    +0.006 C 
ENDBRANCH  17  18
BRANCH  17  20
ATOM     20  C   UNL     1      10.725   1.403  24.070  0.00  0.00    +0.178 C 
BRANCH  20  21
ATOM     21  O   UNL     1      11.089   0.643  25.227  0.00  0.00    -0.393 OA
ATOM     22  H   UNL     1      10.430   0.828  25.917  0.00  0.00    +0.209 HD
ENDBRANCH  20  21
ENDBRANCH  17  20
ENDBRANCH   1  17
BRANCH   6  23
ATOM     23  C   UNL     1       6.607  -4.436  25.741  0.00  0.00    +0.142 C 
BRANCH  23  24
ATOM     24  C   UNL     1       6.403  -4.952  24.329  0.00  0.00    +0.011 A 
ATOM     25  C   UNL     1       7.504  -4.994  23.459  0.00  0.00    +0.122 A 
ATOM     26  C   UNL     1       7.387  -5.471  22.153  0.00  0.00    +0.046 A 
ATOM     27  C   UNL     1       6.152  -5.916  21.687  0.00  0.00    +0.004 A 
ATOM     28  C   UNL     1       5.041  -5.873  22.525  0.00  0.00    +0.001 A 
ATOM     29  C   UNL     1       5.164  -5.395  23.832  0.00  0.00    +0.009 A 
BRANCH  25  30
ATOM     30  O   UNL     1       8.716  -4.548  23.912  0.00  0.00    -0.506 OA
ATOM     31  H   UNL     1       8.661  -4.414  24.872  0.00  0.00    +0.292 HD
ENDBRANCH  25  30
ENDBRANCH  23  24
ENDBRANCH   6  23
TORSDOF 8
ENDMDL
MODEL 9
REMARK VINA RESULT:      -5.8      2.521      3.208
REMARK  Name = 
REMARK  11 active torsions:
REMARK  status: ('A' for Active; 'I' for Inactive)
REMARK    1  A    between atoms: CA_2  and  C_3
REMARK    2  A    between atoms: CA_2  and  C_5
REMARK    3  A    between atoms: CA_2  and  N_7
REMARK    4  A    between atoms: C_3  and  C_4
REMARK    5  A    between atoms: C_5  and  O_6
REMARK    6  A    between atoms: N_14  and  C_15
REMARK    7  A    between atoms: C_15  and  C_16
REMARK    8  A    between atoms: C_15  and  C_17
REMARK    9  A    between atoms: N_19  and  C_20
REMARK   10  A    between atoms: C_20  and  C_21
REMARK   11  A    between atoms: C_26  and  O_27
REMARK                            x       y       z     vdW  Elec       q    Type
REMARK                         _______ _______ _______ _____ _____    ______ ____
ROOT
ATOM      1  N   UNL     1       7.192  -0.036  27.097  0.00  0.00    -0.308 N 
ATOM      2  H   UNL     1       8.044   0.177  27.610  0.00  0.00    +0.149 HD
ATOM      3  C   UNL     1       7.329  -1.300  26.540  0.00  0.00    +0.219 A 
ATOM      4  N   UNL     1       8.211  -1.376  25.521  0.00  0.00    -0.197 NA
ATOM      5  C   UNL     1       8.314  -2.515  24.787  0.00  0.00    +0.152 A 
ATOM      6  N   UNL     1       9.081  -2.580  23.629  0.00  0.00    -0.323 N 
ATOM      7  H   UNL     1       9.136  -3.522  23.253  0.00  0.00    +0.148 HD
ATOM      8  C   UNL     1       7.557  -3.624  25.203  0.00  0.00    +0.148 A 
ATOM      9  N   UNL     1       7.464  -4.911  24.717  0.00  0.00    -0.231 NA
ATOM     10  C   UNL     1       6.587  -5.497  25.501  0.00  0.00    +0.201 A 
ATOM     11  N   UNL     1       6.104  -4.646  26.464  0.00  0.00    -0.312 N 
ATOM     12  C   UNL     1       6.729  -3.439  26.293  0.00  0.00    +0.167 A 
ATOM     13  N   UNL     1       6.559  -2.308  26.992  0.00  0.00    -0.195 NA
ENDROOT
BRANCH  11  14
ATOM     14  C   UNL     1       5.081  -4.960  27.453  0.00  0.00    +0.084 C 
ATOM     15  C   UNL     1       5.692  -5.338  28.803  0.00  0.00    +0.030 C 
ATOM     16  C   UNL     1       4.140  -6.055  26.952  0.00  0.00    +0.030 C 
ENDBRANCH  11  14
BRANCH   1  17
ATOM     17  CA  UNL     1       5.966   0.265  27.836  0.00  0.00    +0.098 C 
BRANCH  17  18
ATOM     18  C   UNL     1       4.959   1.006  26.928  0.00  0.00    +0.021 C 
ATOM     19  C   UNL     1       5.586   1.791  25.780  0.00  0.00    +0.006 C 
ENDBRANCH  17  18
BRANCH  17  20
ATOM     20  C   UNL     1       6.321   1.113  29.079  0.00  0.00    +0.178 C 
BRANCH  20  21
ATOM     21  O   UNL     1       7.570   1.789  28.902  0.00  0.00    -0.393 OA
ATOM     22  H   UNL     1       7.473   2.385  28.140  0.00  0.00    +0.209 HD
ENDBRANCH  20  21
ENDBRANCH  17  20
ENDBRANCH   1  17
BRANCH   6  23
ATOM     23  C   UNL     1      10.297  -1.793  23.548  0.00  0.00    +0.142 C 
BRANCH  23  24
ATOM     24  C   UNL     1      10.082  -0.358  23.104  0.00  0.00    +0.011 A 
ATOM     25  C   UNL     1      10.400   0.680  23.994  0.00  0.00    +0.122 A 
ATOM     26  C   UNL     1      10.239   2.021  23.643  0.00  0.00    +0.046 A 
ATOM     27  C   UNL     1       9.748   2.351  22.382  0.00  0.00    +0.004 A 
ATOM     28  C   UNL     1       9.413   1.341  21.484  0.00  0.00    +0.001 A 
ATOM     29  C   UNL     1       9.576   0.000  21.842  0.00  0.00    +0.009 A 
BRANCH  25  30
ATOM     30  O   UNL     1      10.873   0.356  25.237  0.00  0.00    -0.506 OA
ATOM     31  H   UNL     1      11.827   0.533  25.264  0.00  0.00    +0.292 HD
ENDBRANCH  25  30
ENDBRANCH  23  24
ENDBRANCH   6  23
TORSDOF 8
ENDMDL
