MODEL 1
REMARK VINA RESULT:      -7.1      0.000      0.000
REMARK  Name = 
REMARK  5 active torsions:
REMARK  status: ('A' for Active; 'I' for Inactive)
REMARK    1  A    between atoms: N_1  and  S_2
REMARK    2  A    between atoms: S_2  and  C_5
REMARK    3  A    between atoms: C_8  and  C_11
REMARK    4  A    between atoms: N_13  and  C_14
REMARK    5  A    between atoms: C_14  and  C_15
REMARK                            x       y       z     vdW  Elec       q    Type
REMARK                         _______ _______ _______ _____ _____    ______ ____
ROOT
ATOM      1  C   UNL     1       6.733  -5.321  26.784  0.00  0.00    +0.105 A 
ATOM      2  C   UNL     1       5.915  -5.044  25.689  0.00  0.00    +0.029 A 
ATOM      3  C   UNL     1       6.448  -4.392  24.572  0.00  0.00    +0.015 A 
ATOM      4  C   UNL     1       7.800  -4.031  24.534  0.00  0.00    +0.037 A 
ATOM      5  C   UNL     1       8.622  -4.363  25.625  0.00  0.00    +0.015 A 
ATOM      6  C   UNL     1       8.093  -5.006  26.752  0.00  0.00    +0.029 A 
ENDROOT
BRANCH   4   7
ATOM      7  C   UNL     1       8.392  -3.234  23.413  0.00  0.00    +0.244 C 
ATOM      8  N   UNL     1       9.574  -2.569  23.661  0.00  0.00    -0.307 N 
ATOM      9  H   UNL     1       9.912  -2.441  24.599  0.00  0.00    +0.149 HD
ATOM     10  O   UNL     1       7.840  -3.213  22.315  0.00  0.00    -0.270 OA
BRANCH   8  11
ATOM     11  C   UNL     1      10.268  -1.831  22.628  0.00  0.00    +0.139 C 
BRANCH  11  12
ATOM     12  C   UNL     1      10.191  -0.346  22.894  0.00  0.00    -0.030 A 
ATOM     13  C   UNL     1       9.866   0.552  21.864  0.00  0.00    +0.008 A 
ATOM     14  C   UNL     1       9.793   1.923  22.118  0.00  0.00    +0.038 A 
ATOM     15  C   UNL     1      10.045   2.400  23.399  0.00  0.00    +0.123 A 
ATOM     16  F   UNL     1       9.970   3.716  23.640  0.00  0.00    -0.205 F 
ATOM     17  C   UNL     1      10.371   1.532  24.433  0.00  0.00    +0.038 A 
ATOM     18  C   UNL     1      10.447   0.161  24.180  0.00  0.00    +0.008 A 
ENDBRANCH  11  12
ENDBRANCH   8  11
ENDBRANCH   4   7
BRANCH   1  19
ATOM     19  S   UNL     1       6.008  -5.990  28.249  0.00  0.00    +0.056 S 
ATOM     20  O   UNL     1       7.028  -6.664  29.021  0.00  0.00    -0.153 OA
ATOM     21  O   UNL     1       5.116  -5.011  28.821  0.00  0.00    -0.153 OA
BRANCH  19  22
ATOM     22  N   UNL     1       5.044  -7.220  27.628  0.00  0.00    -0.204 NA
ATOM     23  H   UNL     1       5.618  -7.900  27.132  0.00  0.00    +0.144 HD
ATOM     24  H   UNL     1       4.476  -7.623  28.375  0.00  0.00    +0.144 HD
ENDBRANCH  19  22
ENDBRANCH   1  19
TORSDOF 5
ENDMDL
MODEL 2
REMARK VINA RESULT:      -7.0      2.874      3.451
REMARK  Name = 
REMARK  5 active torsions:
REMARK  status: ('A' for Active; 'I' for Inactive)
REMARK    1  A    between atoms: N_1  and  S_2
REMARK    2  A    between atoms: S_2  and  C_5
REMARK    3  A    between atoms: C_8  and  C_11
REMARK    4  A    between atoms: N_13  and  C_14
REMARK    5  A    between atoms: C_14  and  C_15
REMARK                            x       y       z     vdW  Elec       q    Type
REMARK                         _______ _______ _______ _____ _____    ______ ____
ROOT
ATOM      1  C   UNL     1       4.290  -6.305  24.235  0.00  0.00    +0.105 A 
ATOM      2  C   UNL     1       4.926  -6.082  25.456  0.00  0.00    +0.029 A 
ATOM      3  C   UNL     1       6.222  -5.558  25.478  0.00  0.00    +0.015 A 
ATOM      4  C   UNL     1       6.882  -5.235  24.286  0.00  0.00    +0.037 A 
ATOM      5  C   UNL     1       6.206  -5.418  23.067  0.00  0.00    +0.015 A 
ATOM      6  C   UNL     1       4.912  -5.954  23.037  0.00  0.00    +0.029 A 
ENDROOT
BRANCH   4   7
ATOM      7  C   UNL     1       8.308  -4.778  24.249  0.00  0.00    +0.244 C 
ATOM      8  N   UNL     1       8.539  -3.426  24.102  0.00  0.00    -0.307 N 
ATOM      9  H   UNL     1       7.805  -2.802  23.815  0.00  0.00    +0.149 HD
ATOM     10  O   UNL     1       9.217  -5.594  24.376  0.00  0.00    -0.270 OA
BRANCH   8  11
ATOM     11  C   UNL     1       9.874  -2.872  24.128  0.00  0.00    +0.139 C 
BRANCH  11  12
ATOM     12  C   UNL     1       9.901  -1.522  23.450  0.00  0.00    -0.030 A 
ATOM     13  C   UNL     1      10.292  -0.372  24.155  0.00  0.00    +0.008 A 
ATOM     14  C   UNL     1      10.318   0.872  23.521  0.00  0.00    +0.038 A 
ATOM     15  C   UNL     1       9.953   0.970  22.183  0.00  0.00    +0.123 A 
ATOM     16  F   UNL     1       9.984   2.164  21.578  0.00  0.00    -0.205 F 
ATOM     17  C   UNL     1       9.561  -0.153  21.466  0.00  0.00    +0.038 A 
ATOM     18  C   UNL     1       9.532  -1.397  22.099  0.00  0.00    +0.008 A 
ENDBRANCH  11  12
ENDBRANCH   8  11
ENDBRANCH   4   7
BRANCH   1  19
ATOM     19  S   UNL     1       2.724  -7.123  24.221  0.00  0.00    +0.056 S 
ATOM     20  O   UNL     1       2.909  -8.510  24.588  0.00  0.00    -0.153 OA
ATOM     21  O   UNL     1       1.745  -6.273  24.852  0.00  0.00    -0.153 OA
BRANCH  19  22
ATOM     22  N   UNL     1       2.360  -7.148  22.580  0.00  0.00    -0.204 NA
ATOM     23  H   UNL     1       3.064  -7.683  22.072  0.00  0.00    +0.144 HD
ATOM     24  H   UNL     1       1.406  -7.485  22.444  0.00  0.00    +0.144 HD
ENDBRANCH  19  22
ENDBRANCH   1  19
TORSDOF 5
ENDMDL
MODEL 3
REMARK VINA RESULT:      -6.8      2.351      3.059
REMARK  Name = 
REMARK  5 active torsions:
REMARK  status: ('A' for Active; 'I' for Inactive)
REMARK    1  A    between atoms: N_1  and  S_2
REMARK    2  A    between atoms: S_2  and  C_5
REMARK    3  A    between atoms: C_8  and  C_11
REMARK    4  A    between atoms: N_13  and  C_14
REMARK    5  A    between atoms: C_14  and  C_15
REMARK                            x       y       z     vdW  Elec       q    Type
REMARK                         _______ _______ _______ _____ _____    ______ ____
ROOT
ATOM      1  C   UNL     1       4.972  -4.908  23.988  0.00  0.00    +0.105 A 
ATOM      2  C   UNL     1       6.107  -5.430  24.609  0.00  0.00    +0.029 A 
ATOM      3  C   UNL     1       7.344  -4.802  24.437  0.00  0.00    +0.015 A 
ATOM      4  C   UNL     1       7.453  -3.640  23.663  0.00  0.00    +0.037 A 
ATOM      5  C   UNL     1       6.291  -3.098  23.087  0.00  0.00    +0.015 A 
ATOM      6  C   UNL     1       5.050  -3.729  23.245  0.00  0.00    +0.029 A 
ENDROOT
BRANCH   4   7
ATOM      7  C   UNL     1       8.769  -2.994  23.355  0.00  0.00    +0.244 C 
ATOM      8  N   UNL     1       8.811  -2.108  22.300  0.00  0.00    -0.307 N 
ATOM      9  H   UNL     1       8.061  -2.059  21.632  0.00  0.00    +0.149 HD
ATOM     10  O   UNL     1       9.751  -3.239  24.052  0.00  0.00    -0.270 OA
BRANCH   8  11
ATOM     11  C   UNL     1      10.012  -1.375  21.964  0.00  0.00    +0.139 C 
BRANCH  11  12
ATOM     12  C   UNL     1       9.949   0.029  22.518  0.00  0.00    -0.030 A 
ATOM     13  C   UNL     1      10.492   0.328  23.778  0.00  0.00    +0.008 A 
ATOM     14  C   UNL     1      10.434   1.629  24.282  0.00  0.00    +0.038 A 
ATOM     15  C   UNL     1       9.833   2.632  23.530  0.00  0.00    +0.123 A 
ATOM     16  F   UNL     1       9.783   3.880  24.016  0.00  0.00    -0.205 F 
ATOM     17  C   UNL     1       9.286   2.360  22.283  0.00  0.00    +0.038 A 
ATOM     18  C   UNL     1       9.342   1.059  21.779  0.00  0.00    +0.008 A 
ENDBRANCH  11  12
ENDBRANCH   8  11
ENDBRANCH   4   7
BRANCH   1  19
ATOM     19  S   UNL     1       3.455  -5.807  24.078  0.00  0.00    +0.056 S 
ATOM     20  O   UNL     1       2.894  -5.663  25.403  0.00  0.00    -0.153 OA
ATOM     21  O   UNL     1       2.694  -5.564  22.878  0.00  0.00    -0.153 OA
BRANCH  19  22
ATOM     22  N   UNL     1       3.990  -7.399  23.999  0.00  0.00    -0.204 NA
ATOM     23  H   UNL     1       3.782  -7.884  24.871  0.00  0.00    +0.144 HD
ATOM     24  H   UNL     1       3.602  -7.852  23.171  0.00  0.00    +0.144 HD
ENDBRANCH  19  22
ENDBRANCH   1  19
TORSDOF 5
ENDMDL
MODEL 4
REMARK VINA RESULT:      -6.8      1.802      2.343
REMARK  Name = 
REMARK  5 active torsions:
REMARK  status: ('A' for Active; 'I' for Inactive)
REMARK    1  A    between atoms: N_1  and  S_2
REMARK    2  A    between atoms: S_2  and  C_5
REMARK    3  A    between atoms: C_8  and  C_11
REMARK    4  A    between atoms: N_13  and  C_14
REMARK    5  A    between atoms: C_14  and  C_15
REMARK                            x       y       z     vdW  Elec       q    Type
REMARK                         _______ _______ _______ _____ _____    ______ ____
ROOT
ATOM      1  C   UNL     1       7.442  -4.377  25.411  0.00  0.00    +0.105 A 
ATOM      2  C   UNL     1       7.028  -4.370  24.080  0.00  0.00    +0.029 A 
ATOM      3  C   UNL     1       7.670  -3.538  23.157  0.00  0.00    +0.015 A 
ATOM      4  C   UNL     1       8.739  -2.725  23.553  0.00  0.00    +0.037 A 
ATOM      5  C   UNL     1       9.176  -2.782  24.888  0.00  0.00    +0.015 A 
ATOM      6  C   UNL     1       8.530  -3.605  25.820  0.00  0.00    +0.029 A 
ENDROOT
BRANCH   4   7
ATOM      7  C   UNL     1       9.386  -1.735  22.633  0.00  0.00    +0.244 C 
ATOM      8  N   UNL     1       8.610  -0.690  22.177  0.00  0.00    -0.307 N 
ATOM      9  H   UNL     1       7.610  -0.705  22.273  0.00  0.00    +0.149 HD
ATOM     10  O   UNL     1      10.571  -1.857  22.336  0.00  0.00    -0.270 OA
BRANCH   8  11
ATOM     11  C   UNL     1       9.155   0.360  21.344  0.00  0.00    +0.139 C 
BRANCH  11  12
ATOM     12  C   UNL     1       9.262   1.651  22.120  0.00  0.00    -0.030 A 
ATOM     13  C   UNL     1       8.158   2.510  22.241  0.00  0.00    +0.008 A 
ATOM     14  C   UNL     1       8.264   3.700  22.964  0.00  0.00    +0.038 A 
ATOM     15  C   UNL     1       9.471   4.035  23.565  0.00  0.00    +0.123 A 
ATOM     16  F   UNL     1       9.567   5.176  24.261  0.00  0.00    -0.205 F 
ATOM     17  C   UNL     1      10.578   3.203  23.457  0.00  0.00    +0.038 A 
ATOM     18  C   UNL     1      10.475   2.014  22.733  0.00  0.00    +0.008 A 
ENDBRANCH  11  12
ENDBRANCH   8  11
ENDBRANCH   4   7
BRANCH   1  19
ATOM     19  S   UNL     1       6.512  -5.304  26.593  0.00  0.00    +0.056 S 
ATOM     20  O   UNL     1       5.775  -4.393  27.440  0.00  0.00    -0.153 OA
ATOM     21  O   UNL     1       5.894  -6.425  25.929  0.00  0.00    -0.153 OA
BRANCH  19  22
ATOM     22  N   UNL     1       7.726  -5.931  27.575  0.00  0.00    -0.204 NA
ATOM     23  H   UNL     1       8.609  -5.957  27.068  0.00  0.00    +0.144 HD
ATOM     24  H   UNL     1       7.766  -5.406  28.450  0.00  0.00    +0.144 HD
ENDBRANCH  19  22
ENDBRANCH   1  19
TORSDOF 5
ENDMDL
MODEL 5
REMARK VINA RESULT:      -6.7      1.964      2.579
REMARK  Name = 
REMARK  5 active torsions:
REMARK  status: ('A' for Active; 'I' for Inactive)
REMARK    1  A    between atoms: N_1  and  S_2
REMARK    2  A    between atoms: S_2  and  C_5
REMARK    3  A    between atoms: C_8  and  C_11
REMARK    4  A    between atoms: N_13  and  C_14
REMARK    5  A    between atoms: C_14  and  C_15
REMARK                            x       y       z     vdW  Elec       q    Type
REMARK                         _______ _______ _______ _____ _____    ______ ____
ROOT
ATOM      1  C   UNL     1       5.256  -5.735  25.367  0.00  0.00    +0.105 A 
ATOM      2  C   UNL     1       6.280  -5.773  26.313  0.00  0.00    +0.029 A 
ATOM      3  C   UNL     1       7.513  -5.178  26.026  0.00  0.00    +0.015 A 
ATOM      4  C   UNL     1       7.724  -4.526  24.805  0.00  0.00    +0.037 A 
ATOM      5  C   UNL     1       6.665  -4.453  23.884  0.00  0.00    +0.015 A 
ATOM      6  C   UNL     1       5.431  -5.057  24.159  0.00  0.00    +0.029 A 
ENDROOT
BRANCH   4   7
ATOM      7  C   UNL     1       9.057  -3.973  24.404  0.00  0.00    +0.244 C 
ATOM      8  N   UNL     1       9.068  -2.786  23.703  0.00  0.00    -0.307 N 
ATOM      9  H   UNL     1       8.228  -2.419  23.289  0.00  0.00    +0.149 HD
ATOM     10  O   UNL     1      10.087  -4.560  24.725  0.00  0.00    -0.270 OA
BRANCH   8  11
ATOM     11  C   UNL     1      10.301  -2.128  23.331  0.00  0.00    +0.139 C 
BRANCH  11  12
ATOM     12  C   UNL     1      10.109  -0.631  23.278  0.00  0.00    -0.030 A 
ATOM     13  C   UNL     1      10.202   0.147  24.444  0.00  0.00    +0.008 A 
ATOM     14  C   UNL     1      10.027   1.531  24.387  0.00  0.00    +0.038 A 
ATOM     15  C   UNL     1       9.759   2.140  23.167  0.00  0.00    +0.123 A 
ATOM     16  F   UNL     1       9.596   3.469  23.116  0.00  0.00    -0.205 F 
ATOM     17  C   UNL     1       9.660   1.392  22.000  0.00  0.00    +0.038 A 
ATOM     18  C   UNL     1       9.832   0.008  22.057  0.00  0.00    +0.008 A 
ENDBRANCH  11  12
ENDBRANCH   8  11
ENDBRANCH   4   7
BRANCH   1  19
ATOM     19  S   UNL     1       3.768  -6.635  25.677  0.00  0.00    +0.056 S 
ATOM     20  O   UNL     1       2.667  -5.706  25.802  0.00  0.00    -0.153 OA
ATOM     21  O   UNL     1       3.724  -7.784  24.806  0.00  0.00    -0.153 OA
BRANCH  19  22
ATOM     22  N   UNL     1       4.032  -7.215  27.233  0.00  0.00    -0.204 NA
ATOM     23  H   UNL     1       5.011  -7.471  27.352  0.00  0.00    +0.144 HD
ATOM     24  H   UNL     1       3.696  -6.534  27.916  0.00  0.00    +0.144 HD
ENDBRANCH  19  22
ENDBRANCH   1  19
TORSDOF 5
ENDMDL
MODEL 6
REMARK VINA RESULT:      -6.7      4.592      8.001
REMARK  Name = 
REMARK  5 active torsions:
REMARK  status: ('A' for Active; 'I' for Inactive)
REMARK    1  A    between atoms: N_1  and  S_2
REMARK    2  A    between atoms: S_2  and  C_5
REMARK    3  A    between atoms: C_8  and  C_11
REMARK    4  A    between atoms: N_13  and  C_14
REMARK    5  A    between atoms: C_14  and  C_15
REMARK                            x       y       z     vdW  Elec       q    Type
REMARK                         _______ _______ _______ _____ _____    ______ ____
ROOT
ATOM      1  C   UNL     1       9.804   0.632  23.732  0.00  0.00    +0.105 A 
ATOM      2  C   UNL     1       9.276   0.340  24.989  0.00  0.00    +0.029 A 
ATOM      3  C   UNL     1       9.078  -0.992  25.367  0.00  0.00    +0.015 A 
ATOM      4  C   UNL     1       9.423  -2.038  24.502  0.00  0.00    +0.037 A 
ATOM      5  C   UNL     1      10.001  -1.727  23.259  0.00  0.00    +0.015 A 
ATOM      6  C   UNL     1      10.192  -0.394  22.870  0.00  0.00    +0.029 A 
ENDROOT
BRANCH   4   7
ATOM      7  C   UNL     1       9.127  -3.473  24.811  0.00  0.00    +0.244 C 
ATOM      8  N   UNL     1       7.886  -3.769  25.333  0.00  0.00    -0.307 N 
ATOM      9  H   UNL     1       7.288  -3.045  25.695  0.00  0.00    +0.149 HD
ATOM     10  O   UNL     1       9.966  -4.338  24.572  0.00  0.00    -0.270 OA
BRANCH   8  11
ATOM     11  C   UNL     1       7.472  -5.129  25.598  0.00  0.00    +0.139 C 
BRANCH  11  12
ATOM     12  C   UNL     1       6.232  -5.471  24.807  0.00  0.00    -0.030 A 
ATOM     13  C   UNL     1       6.112  -5.091  23.460  0.00  0.00    +0.008 A 
ATOM     14  C   UNL     1       4.965  -5.414  22.733  0.00  0.00    +0.038 A 
ATOM     15  C   UNL     1       3.934  -6.114  23.350  0.00  0.00    +0.123 A 
ATOM     16  F   UNL     1       2.836  -6.425  22.647  0.00  0.00    -0.205 F 
ATOM     17  C   UNL     1       4.028  -6.497  24.681  0.00  0.00    +0.038 A 
ATOM     18  C   UNL     1       5.174  -6.173  25.410  0.00  0.00    +0.008 A 
ENDBRANCH  11  12
ENDBRANCH   8  11
ENDBRANCH   4   7
BRANCH   1  19
ATOM     19  S   UNL     1       9.890   2.317  23.209  0.00  0.00    +0.056 S 
ATOM     20  O   UNL     1       8.629   2.967  23.489  0.00  0.00    -0.153 OA
ATOM     21  O   UNL     1      11.159   2.870  23.612  0.00  0.00    -0.153 OA
BRANCH  19  22
ATOM     22  N   UNL     1       9.939   2.158  21.535  0.00  0.00    -0.204 NA
ATOM     23  H   UNL     1       9.570   1.250  21.258  0.00  0.00    +0.144 HD
ATOM     24  H   UNL     1       9.461   2.949  21.101  0.00  0.00    +0.144 HD
ENDBRANCH  19  22
ENDBRANCH   1  19
TORSDOF 5
ENDMDL
MODEL 7
REMARK VINA RESULT:      -6.6      1.334      1.820
REMARK  Name = 
REMARK  5 active torsions:
REMARK  status: ('A' for Active; 'I' for Inactive)
REMARK    1  A    between atoms: N_1  and  S_2
REMARK    2  A    between atoms: S_2  and  C_5
REMARK    3  A    between atoms: C_8  and  C_11
REMARK    4  A    between atoms: N_13  and  C_14
REMARK    5  A    between atoms: C_14  and  C_15
REMARK                            x       y       z     vdW  Elec       q    Type
REMARK                         _______ _______ _______ _____ _____    ______ ____
ROOT
ATOM      1  C   UNL     1       6.012  -5.673  26.715  0.00  0.00    +0.105 A 
ATOM      2  C   UNL     1       5.869  -5.495  25.339  0.00  0.00    +0.029 A 
ATOM      3  C   UNL     1       6.930  -4.971  24.593  0.00  0.00    +0.015 A 
ATOM      4  C   UNL     1       8.143  -4.641  25.211  0.00  0.00    +0.037 A 
ATOM      5  C   UNL     1       8.286  -4.875  26.590  0.00  0.00    +0.015 A 
ATOM      6  C   UNL     1       7.224  -5.388  27.345  0.00  0.00    +0.029 A 
ENDROOT
BRANCH   4   7
ATOM      7  C   UNL     1       9.267  -3.974  24.481  0.00  0.00    +0.244 C 
ATOM      8  N   UNL     1       8.959  -2.877  23.705  0.00  0.00    -0.307 N 
ATOM      9  H   UNL     1       8.007  -2.663  23.462  0.00  0.00    +0.149 HD
ATOM     10  O   UNL     1      10.416  -4.392  24.608  0.00  0.00    -0.270 OA
BRANCH   8  11
ATOM     11  C   UNL     1       9.979  -2.116  23.017  0.00  0.00    +0.139 C 
BRANCH  11  12
ATOM     12  C   UNL     1       9.853  -0.645  23.340  0.00  0.00    -0.030 A 
ATOM     13  C   UNL     1       9.577  -0.219  24.649  0.00  0.00    +0.008 A 
ATOM     14  C   UNL     1       9.465   1.142  24.941  0.00  0.00    +0.038 A 
ATOM     15  C   UNL     1       9.628   2.079  23.927  0.00  0.00    +0.123 A 
ATOM     16  F   UNL     1       9.524   3.384  24.212  0.00  0.00    -0.205 F 
ATOM     17  C   UNL     1       9.898   1.681  22.624  0.00  0.00    +0.038 A 
ATOM     18  C   UNL     1      10.008   0.320  22.330  0.00  0.00    +0.008 A 
ENDBRANCH  11  12
ENDBRANCH   8  11
ENDBRANCH   4   7
BRANCH   1  19
ATOM     19  S   UNL     1       4.609  -6.175  27.664  0.00  0.00    +0.056 S 
ATOM     20  O   UNL     1       4.335  -5.176  28.673  0.00  0.00    -0.153 OA
ATOM     21  O   UNL     1       3.595  -6.681  26.771  0.00  0.00    -0.153 OA
BRANCH  19  22
ATOM     22  N   UNL     1       5.216  -7.496  28.508  0.00  0.00    -0.204 NA
ATOM     23  H   UNL     1       4.683  -8.334  28.280  0.00  0.00    +0.144 HD
ATOM     24  H   UNL     1       6.218  -7.583  28.336  0.00  0.00    +0.144 HD
ENDBRANCH  19  22
ENDBRANCH   1  19
TORSDOF 5
ENDMDL
MODEL 8
REMARK VINA RESULT:      -6.5      4.835      8.109
REMARK  Name = 
REMARK  5 active torsions:
REMARK  status: ('A' for Active; 'I' for Inactive)
REMARK    1  A    between atoms: N_1  and  S_2
REMARK    2  A    between atoms: S_2  and  C_5
REMARK    3  A    between atoms: C_8  and  C_11
REMARK    4  A    between atoms: N_13  and  C_14
REMARK    5  A    between atoms: C_14  and  C_15
REMARK                            x       y       z     vdW  Elec       q    Type
REMARK                         _______ _______ _______ _____ _____    ______ ____
ROOT
ATOM      1  C   UNL     1       9.391   2.322  23.817  0.00  0.00    +0.105 A 
ATOM      2  C   UNL     1      10.016   1.726  22.721  0.00  0.00    +0.029 A 
ATOM      3  C   UNL     1      10.142   0.335  22.665  0.00  0.00    +0.015 A 
ATOM      4  C   UNL     1       9.631  -0.470  23.691  0.00  0.00    +0.037 A 
ATOM      5  C   UNL     1       8.960   0.144  24.763  0.00  0.00    +0.015 A 
ATOM      6  C   UNL     1       8.839   1.538  24.831  0.00  0.00    +0.029 A 
ENDROOT
BRANCH   4   7
ATOM      7  C   UNL     1       9.839  -1.952  23.736  0.00  0.00    +0.244 C 
ATOM      8  N   UNL     1       9.185  -2.657  24.724  0.00  0.00    -0.307 N 
ATOM      9  H   UNL     1       8.766  -2.186  25.507  0.00  0.00    +0.149 HD
ATOM     10  O   UNL     1      10.548  -2.499  22.894  0.00  0.00    -0.270 OA
BRANCH   8  11
ATOM     11  C   UNL     1       9.258  -4.099  24.812  0.00  0.00    +0.139 C 
BRANCH  11  12
ATOM     12  C   UNL     1       7.932  -4.722  24.444  0.00  0.00    -0.030 A 
ATOM     13  C   UNL     1       6.981  -5.021  25.433  0.00  0.00    +0.008 A 
ATOM     14  C   UNL     1       5.756  -5.593  25.085  0.00  0.00    +0.038 A 
ATOM     15  C   UNL     1       5.479  -5.869  23.751  0.00  0.00    +0.123 A 
ATOM     16  F   UNL     1       4.300  -6.414  23.421  0.00  0.00    -0.205 F 
ATOM     17  C   UNL     1       6.405  -5.585  22.756  0.00  0.00    +0.038 A 
ATOM     18  C   UNL     1       7.632  -5.015  23.102  0.00  0.00    +0.008 A 
ENDBRANCH  11  12
ENDBRANCH   8  11
ENDBRANCH   4   7
BRANCH   1  19
ATOM     19  S   UNL     1       9.391   4.083  23.950  0.00  0.00    +0.056 S 
ATOM     20  O   UNL     1       8.698   4.468  25.159  0.00  0.00    -0.153 OA
ATOM     21  O   UNL     1      10.701   4.580  23.609  0.00  0.00    -0.153 OA
BRANCH  19  22
ATOM     22  N   UNL     1       8.362   4.526  22.696  0.00  0.00    -0.204 NA
ATOM     23  H   UNL     1       8.737   5.334  22.202  0.00  0.00    +0.144 HD
ATOM     24  H   UNL     1       8.184   3.719  22.095  0.00  0.00    +0.144 HD
ENDBRANCH  19  22
ENDBRANCH   1  19
TORSDOF 5
ENDMDL
MODEL 9
REMARK VINA RESULT:      -6.5      4.930      8.269
REMARK  Name = 
REMARK  5 active torsions:
REMARK  status: ('A' for Active; 'I' for Inactive)
REMARK    1  A    between atoms: N_1  and  S_2
REMARK    2  A    between atoms: S_2  and  C_5
REMARK    3  A    between atoms: C_8  and  C_11
REMARK    4  A    between atoms: N_13  and  C_14
REMARK    5  A    between atoms: C_14  and  C_15
REMARK                            x       y       z     vdW  Elec       q    Type
REMARK                         _______ _______ _______ _____ _____    ______ ____
ROOT
ATOM      1  C   UNL     1       9.576   3.073  23.404  0.00  0.00    +0.105 A 
ATOM      2  C   UNL     1      10.601   2.303  23.955  0.00  0.00    +0.029 A 
ATOM      3  C   UNL     1      10.637   0.925  23.720  0.00  0.00    +0.015 A 
ATOM      4  C   UNL     1       9.664   0.311  22.920  0.00  0.00    +0.037 A 
ATOM      5  C   UNL     1       8.668   1.110  22.332  0.00  0.00    +0.015 A 
ATOM      6  C   UNL     1       8.620   2.489  22.572  0.00  0.00    +0.029 A 
ENDROOT
BRANCH   4   7
ATOM      7  C   UNL     1       9.592  -1.173  22.730  0.00  0.00    +0.244 C 
ATOM      8  N   UNL     1       8.399  -1.795  23.029  0.00  0.00    -0.307 N 
ATOM      9  H   UNL     1       7.683  -1.321  23.553  0.00  0.00    +0.149 HD
ATOM     10  O   UNL     1      10.566  -1.784  22.296  0.00  0.00    -0.270 OA
BRANCH   8  11
ATOM     11  C   UNL     1       8.199  -3.211  22.812  0.00  0.00    +0.139 C 
BRANCH  11  12
ATOM     12  C   UNL     1       8.059  -3.935  24.130  0.00  0.00    -0.030 A 
ATOM     13  C   UNL     1       9.153  -4.057  25.002  0.00  0.00    +0.008 A 
ATOM     14  C   UNL     1       9.015  -4.725  26.221  0.00  0.00    +0.038 A 
ATOM     15  C   UNL     1       7.786  -5.273  26.569  0.00  0.00    +0.123 A 
ATOM     16  F   UNL     1       7.657  -5.909  27.741  0.00  0.00    -0.205 F 
ATOM     17  C   UNL     1       6.691  -5.169  25.721  0.00  0.00    +0.038 A 
ATOM     18  C   UNL     1       6.828  -4.503  24.502  0.00  0.00    +0.008 A 
ENDBRANCH  11  12
ENDBRANCH   8  11
ENDBRANCH   4   7
BRANCH   1  19
ATOM     19  S   UNL     1       9.451   4.777  23.849  0.00  0.00    +0.056 S 
ATOM     20  O   UNL     1       8.718   4.893  25.090  0.00  0.00    -0.153 OA
ATOM     21  O   UNL     1      10.728   5.413  23.635  0.00  0.00    -0.153 OA
BRANCH  19  22
ATOM     22  N   UNL     1       8.411   5.369  22.668  0.00  0.00    -0.204 NA
ATOM     23  H   UNL     1       8.407   6.388  22.681  0.00  0.00    +0.144 HD
ATOM     24  H   UNL     1       8.654   4.967  21.762  0.00  0.00    +0.144 HD
ENDBRANCH  19  22
ENDBRANCH   1  19
TORSDOF 5
ENDMDL
