MODEL 1
REMARK VINA RESULT:      -5.7      0.000      0.000
REMARK  Name = 
REMARK  12 active torsions:
REMARK  status: ('A' for Active; 'I' for Inactive)
REMARK    1  A    between atoms: C_2  and  C_3
REMARK    2  A    between atoms: C_2  and  C_10
REMARK    3  A    between atoms: C_2  and  C_25
REMARK    4  A    between atoms: C_3  and  C_4
REMARK    5  A    between atoms: C_10  and  P_11
REMARK    6  A    between atoms: P_11  and  O_12
REMARK    7  A    between atoms: P_11  and  C_14
REMARK    8  A    between atoms: C_14  and  N_16
REMARK    9  A    between atoms: C_14  and  C_17
REMARK   10  A    between atoms: C_17  and  C_18
REMARK   11  A    between atoms: C_18  and  C_19
REMARK   12  A    between atoms: C_25  and  O_26
REMARK                            x       y       z     vdW  Elec       q    Type
REMARK                         _______ _______ _______ _____ _____    ______ ____
ROOT
ATOM      1  P   UNL     1       8.857   0.405  25.214  0.00  0.00    +0.219 P 
ATOM      2  O   UNL     1      10.328   0.131  25.110  0.00  0.00    -0.289 OA
ENDROOT
BRANCH   1   3
ATOM      3  O   UNL     1       8.624   1.973  25.524  0.00  0.00    -0.343 OA
ATOM      4  H   UNL     1       8.591   2.529  24.720  0.00  0.00    +0.218 HD
ENDBRANCH   1   3
BRANCH   1   5
ATOM      5  C   UNL     1       7.946   0.154  23.696  0.00  0.00    +0.113 C 
BRANCH   5   6
ATOM      6  C   UNL     1       8.246  -1.143  22.910  0.00  0.00    +0.111 C 
BRANCH   6   7
ATOM      7  C   UNL     1       9.258  -0.768  21.837  0.00  0.00    +0.309 C 
ATOM      8  O   UNL     1       9.172   0.290  21.213  0.00  0.00    -0.251 OA
BRANCH   7   9
ATOM      9  O   UNL     1      10.228  -1.655  21.533  0.00  0.00    -0.480 OA
ATOM     10  H   UNL     1      11.153  -1.364  21.627  0.00  0.00    +0.295 HD
ENDBRANCH   7   9
ENDBRANCH   6   7
BRANCH   6  11
ATOM     11  C   UNL     1       6.945  -1.812  22.434  0.00  0.00    +0.050 C 
BRANCH  11  12
ATOM     12  C   UNL     1       6.923  -3.323  22.327  0.00  0.00    -0.047 A 
ATOM     13  C   UNL     1       7.827  -4.059  23.111  0.00  0.00    +0.003 A 
ATOM     14  C   UNL     1       7.826  -5.452  23.090  0.00  0.00    +0.000 A 
ATOM     15  C   UNL     1       6.935  -6.134  22.265  0.00  0.00    +0.000 A 
ATOM     16  C   UNL     1       6.062  -5.419  21.449  0.00  0.00    +0.000 A 
ATOM     17  C   UNL     1       6.060  -4.019  21.471  0.00  0.00    +0.003 A 
ENDBRANCH  11  12
ENDBRANCH   6  11
ENDBRANCH   5   6
ENDBRANCH   1   5
BRANCH   1  18
ATOM     18  C   UNL     1       8.056  -0.426  26.620  0.00  0.00    +0.139 C 
BRANCH  18  19
ATOM     19  N   UNL     1       9.046  -0.388  27.714  0.00  0.00    -0.320 NA
ATOM     20  H   UNL     1       9.241  -1.356  27.992  0.00  0.00    +0.119 HD
ATOM     21  H   UNL     1       9.936  -0.045  27.347  0.00  0.00    +0.119 HD
ENDBRANCH  18  19
BRANCH  18  22
ATOM     22  C   UNL     1       7.543  -1.843  26.345  0.00  0.00    +0.033 C 
BRANCH  22  23
ATOM     23  C   UNL     1       6.014  -1.912  26.237  0.00  0.00    +0.037 C 
BRANCH  23  24
ATOM     24  C   UNL     1       5.525  -3.281  25.827  0.00  0.00    -0.047 A 
ATOM     25  C   UNL     1       4.469  -3.422  24.917  0.00  0.00    +0.003 A 
ATOM     26  C   UNL     1       4.014  -4.692  24.553  0.00  0.00    +0.000 A 
ATOM     27  C   UNL     1       4.611  -5.830  25.090  0.00  0.00    +0.000 A 
ATOM     28  C   UNL     1       5.668  -5.701  25.990  0.00  0.00    +0.000 A 
ATOM     29  C   UNL     1       6.124  -4.433  26.355  0.00  0.00    +0.003 A 
ENDBRANCH  23  24
ENDBRANCH  22  23
ENDBRANCH  18  22
ENDBRANCH   1  18
TORSDOF 12
ENDMDL
MODEL 2
REMARK VINA RESULT:      -5.7      3.489      6.440
REMARK  Name = 
REMARK  12 active torsions:
REMARK  status: ('A' for Active; 'I' for Inactive)
REMARK    1  A    between atoms: C_2  and  C_3
REMARK    2  A    between atoms: C_2  and  C_10
REMARK    3  A    between atoms: C_2  and  C_25
REMARK    4  A    between atoms: C_3  and  C_4
REMARK    5  A    between atoms: C_10  and  P_11
REMARK    6  A    between atoms: P_11  and  O_12
REMARK    7  A    between atoms: P_11  and  C_14
REMARK    8  A    between atoms: C_14  and  N_16
REMARK    9  A    between atoms: C_14  and  C_17
REMARK   10  A    between atoms: C_17  and  C_18
REMARK   11  A    between atoms: C_18  and  C_19
REMARK   12  A    between atoms: C_25  and  O_26
REMARK                            x       y       z     vdW  Elec       q    Type
REMARK                         _______ _______ _______ _____ _____    ______ ____
ROOT
ATOM      1  P   UNL     1       7.834  -4.365  25.771  0.00  0.00    +0.219 P 
ATOM      2  O   UNL     1       7.911  -3.482  26.981  0.00  0.00    -0.289 OA
ENDROOT
BRANCH   1   3
ATOM      3  O   UNL     1       8.018  -5.906  26.217  0.00  0.00    -0.343 OA
ATOM      4  H   UNL     1       8.017  -6.533  25.465  0.00  0.00    +0.218 HD
ENDBRANCH   1   3
BRANCH   1   5
ATOM      5  C   UNL     1       6.244  -4.367  24.953  0.00  0.00    +0.113 C 
BRANCH   5   6
ATOM      6  C   UNL     1       5.486  -3.021  24.901  0.00  0.00    +0.111 C 
BRANCH   6   7
ATOM      7  C   UNL     1       4.016  -3.365  24.706  0.00  0.00    +0.309 C 
ATOM      8  O   UNL     1       3.132  -2.803  25.353  0.00  0.00    -0.251 OA
BRANCH   7   9
ATOM      9  O   UNL     1       3.698  -4.354  23.845  0.00  0.00    -0.480 OA
ATOM     10  H   UNL     1       4.284  -4.494  23.080  0.00  0.00    +0.295 HD
ENDBRANCH   7   9
ENDBRANCH   6   7
BRANCH   6  11
ATOM     11  C   UNL     1       6.119  -2.072  23.870  0.00  0.00    +0.050 C 
BRANCH  11  12
ATOM     12  C   UNL     1       6.488  -0.675  24.325  0.00  0.00    -0.047 A 
ATOM     13  C   UNL     1       6.924  -0.500  25.649  0.00  0.00    +0.003 A 
ATOM     14  C   UNL     1       7.320   0.753  26.115  0.00  0.00    +0.000 A 
ATOM     15  C   UNL     1       7.264   1.858  25.270  0.00  0.00    +0.000 A 
ATOM     16  C   UNL     1       6.793   1.710  23.967  0.00  0.00    +0.000 A 
ATOM     17  C   UNL     1       6.397   0.452  23.497  0.00  0.00    +0.003 A 
ENDBRANCH  11  12
ENDBRANCH   6  11
ENDBRANCH   5   6
ENDBRANCH   1   5
BRANCH   1  18
ATOM     18  C   UNL     1       9.194  -4.104  24.589  0.00  0.00    +0.139 C 
BRANCH  18  19
ATOM     19  N   UNL     1      10.227  -5.091  24.958  0.00  0.00    -0.320 NA
ATOM     20  H   UNL     1      10.897  -5.144  24.182  0.00  0.00    +0.119 HD
ATOM     21  H   UNL     1      10.774  -4.727  25.741  0.00  0.00    +0.119 HD
ENDBRANCH  18  19
BRANCH  18  22
ATOM     22  C   UNL     1       9.745  -2.676  24.523  0.00  0.00    +0.033 C 
BRANCH  22  23
ATOM     23  C   UNL     1       9.737  -2.101  23.101  0.00  0.00    +0.037 C 
BRANCH  23  24
ATOM     24  C   UNL     1       9.977  -0.609  23.079  0.00  0.00    -0.047 A 
ATOM     25  C   UNL     1      10.477   0.053  24.207  0.00  0.00    +0.003 A 
ATOM     26  C   UNL     1      10.684   1.434  24.182  0.00  0.00    +0.000 A 
ATOM     27  C   UNL     1      10.397   2.164  23.030  0.00  0.00    +0.000 A 
ATOM     28  C   UNL     1       9.906   1.513  21.900  0.00  0.00    +0.000 A 
ATOM     29  C   UNL     1       9.699   0.133  21.922  0.00  0.00    +0.003 A 
ENDBRANCH  23  24
ENDBRANCH  22  23
ENDBRANCH  18  22
ENDBRANCH   1  18
TORSDOF 12
ENDMDL
MODEL 3
REMARK VINA RESULT:      -5.6      3.662      6.280
REMARK  Name = 
REMARK  12 active torsions:
REMARK  status: ('A' for Active; 'I' for Inactive)
REMARK    1  A    between atoms: C_2  and  C_3
REMARK    2  A    between atoms: C_2  and  C_10
REMARK    3  A    between atoms: C_2  and  C_25
REMARK    4  A    between atoms: C_3  and  C_4
REMARK    5  A    between atoms: C_10  and  P_11
REMARK    6  A    between atoms: P_11  and  O_12
REMARK    7  A    between atoms: P_11  and  C_14
REMARK    8  A    between atoms: C_14  and  N_16
REMARK    9  A    between atoms: C_14  and  C_17
REMARK   10  A    between atoms: C_17  and  C_18
REMARK   11  A    between atoms: C_18  and  C_19
REMARK   12  A    between atoms: C_25  and  O_26
REMARK                            x       y       z     vdW  Elec       q    Type
REMARK                         _______ _______ _______ _____ _____    ______ ____
ROOT
ATOM      1  P   UNL     1       8.016  -4.520  26.271  0.00  0.00    +0.219 P 
ATOM      2  O   UNL     1       7.373  -3.210  26.617  0.00  0.00    -0.289 OA
ENDROOT
BRANCH   1   3
ATOM      3  O   UNL     1       9.270  -4.779  27.254  0.00  0.00    -0.343 OA
ATOM      4  H   UNL     1       9.216  -5.628  27.740  0.00  0.00    +0.218 HD
ENDBRANCH   1   3
BRANCH   1   5
ATOM      5  C   UNL     1       6.980  -5.951  26.549  0.00  0.00    +0.113 C 
BRANCH   5   6
ATOM      6  C   UNL     1       5.457  -5.753  26.376  0.00  0.00    +0.111 C 
BRANCH   6   7
ATOM      7  C   UNL     1       4.805  -6.343  27.618  0.00  0.00    +0.309 C 
ATOM      8  O   UNL     1       3.856  -5.788  28.172  0.00  0.00    -0.251 OA
BRANCH   7   9
ATOM      9  O   UNL     1       5.331  -7.468  28.146  0.00  0.00    -0.480 OA
ATOM     10  H   UNL     1       4.723  -8.090  28.584  0.00  0.00    +0.295 HD
ENDBRANCH   7   9
ENDBRANCH   6   7
BRANCH   6  11
ATOM     11  C   UNL     1       4.983  -6.298  25.018  0.00  0.00    +0.050 C 
BRANCH  11  12
ATOM     12  C   UNL     1       5.335  -5.507  23.775  0.00  0.00    -0.047 A 
ATOM     13  C   UNL     1       4.979  -4.148  23.727  0.00  0.00    +0.003 A 
ATOM     14  C   UNL     1       5.314  -3.357  22.631  0.00  0.00    +0.000 A 
ATOM     15  C   UNL     1       5.992  -3.916  21.551  0.00  0.00    +0.000 A 
ATOM     16  C   UNL     1       6.315  -5.271  21.563  0.00  0.00    +0.000 A 
ATOM     17  C   UNL     1       5.980  -6.068  22.665  0.00  0.00    +0.003 A 
ENDBRANCH  11  12
ENDBRANCH   6  11
ENDBRANCH   5   6
ENDBRANCH   1   5
BRANCH   1  18
ATOM     18  C   UNL     1       8.767  -4.550  24.614  0.00  0.00    +0.139 C 
BRANCH  18  19
ATOM     19  N   UNL     1      10.149  -5.027  24.819  0.00  0.00    -0.320 NA
ATOM     20  H   UNL     1      10.350  -4.976  25.824  0.00  0.00    +0.119 HD
ATOM     21  H   UNL     1      10.195  -6.024  24.601  0.00  0.00    +0.119 HD
ENDBRANCH  18  19
BRANCH  18  22
ATOM     22  C   UNL     1       8.713  -3.229  23.840  0.00  0.00    +0.033 C 
BRANCH  22  23
ATOM     23  C   UNL     1      10.056  -2.488  23.833  0.00  0.00    +0.037 C 
BRANCH  23  24
ATOM     24  C   UNL     1       9.960  -1.124  23.190  0.00  0.00    -0.047 A 
ATOM     25  C   UNL     1       9.408  -0.972  21.911  0.00  0.00    +0.003 A 
ATOM     26  C   UNL     1       9.336   0.291  21.318  0.00  0.00    +0.000 A 
ATOM     27  C   UNL     1       9.810   1.411  21.997  0.00  0.00    +0.000 A 
ATOM     28  C   UNL     1      10.353   1.272  23.274  0.00  0.00    +0.000 A 
ATOM     29  C   UNL     1      10.426   0.011  23.868  0.00  0.00    +0.003 A 
ENDBRANCH  23  24
ENDBRANCH  22  23
ENDBRANCH  18  22
ENDBRANCH   1  18
TORSDOF 12
ENDMDL
MODEL 4
REMARK VINA RESULT:      -5.6      3.447      6.665
REMARK  Name = 
REMARK  12 active torsions:
REMARK  status: ('A' for Active; 'I' for Inactive)
REMARK    1  A    between atoms: C_2  and  C_3
REMARK    2  A    between atoms: C_2  and  C_10
REMARK    3  A    between atoms: C_2  and  C_25
REMARK    4  A    between atoms: C_3  and  C_4
REMARK    5  A    between atoms: C_10  and  P_11
REMARK    6  A    between atoms: P_11  and  O_12
REMARK    7  A    between atoms: P_11  and  C_14
REMARK    8  A    between atoms: C_14  and  N_16
REMARK    9  A    between atoms: C_14  and  C_17
REMARK   10  A    between atoms: C_17  and  C_18
REMARK   11  A    between atoms: C_18  and  C_19
REMARK   12  A    between atoms: C_25  and  O_26
REMARK                            x       y       z     vdW  Elec       q    Type
REMARK                         _______ _______ _______ _____ _____    ______ ____
ROOT
ATOM      1  P   UNL     1       6.790  -4.948  23.294  0.00  0.00    +0.219 P 
ATOM      2  O   UNL     1       8.069  -5.658  22.960  0.00  0.00    -0.289 OA
ENDROOT
BRANCH   1   3
ATOM      3  O   UNL     1       5.546  -5.756  22.655  0.00  0.00    -0.343 OA
ATOM      4  H   UNL     1       5.194  -6.457  23.241  0.00  0.00    +0.218 HD
ENDBRANCH   1   3
BRANCH   1   5
ATOM      5  C   UNL     1       6.395  -4.908  25.037  0.00  0.00    +0.113 C 
BRANCH   5   6
ATOM      6  C   UNL     1       7.318  -4.060  25.941  0.00  0.00    +0.111 C 
BRANCH   6   7
ATOM      7  C   UNL     1       8.091  -5.044  26.808  0.00  0.00    +0.309 C 
ATOM      8  O   UNL     1       7.525  -5.745  27.646  0.00  0.00    -0.251 OA
BRANCH   7   9
ATOM      9  O   UNL     1       9.433  -5.091  26.683  0.00  0.00    -0.480 OA
ATOM     10  H   UNL     1       9.946  -4.333  27.018  0.00  0.00    +0.295 HD
ENDBRANCH   7   9
ENDBRANCH   6   7
BRANCH   6  11
ATOM     11  C   UNL     1       6.519  -2.969  26.674  0.00  0.00    +0.050 C 
BRANCH  11  12
ATOM     12  C   UNL     1       6.668  -1.539  26.194  0.00  0.00    -0.047 A 
ATOM     13  C   UNL     1       5.934  -1.136  25.065  0.00  0.00    +0.003 A 
ATOM     14  C   UNL     1       5.994   0.177  24.603  0.00  0.00    +0.000 A 
ATOM     15  C   UNL     1       6.807   1.105  25.247  0.00  0.00    +0.000 A 
ATOM     16  C   UNL     1       7.574   0.711  26.342  0.00  0.00    +0.000 A 
ATOM     17  C   UNL     1       7.514  -0.607  26.810  0.00  0.00    +0.003 A 
ENDBRANCH  11  12
ENDBRANCH   6  11
ENDBRANCH   5   6
ENDBRANCH   1   5
BRANCH   1  18
ATOM     18  C   UNL     1       6.653  -3.298  22.539  0.00  0.00    +0.139 C 
BRANCH  18  19
ATOM     19  N   UNL     1       5.702  -3.456  21.420  0.00  0.00    -0.320 NA
ATOM     20  H   UNL     1       4.932  -4.050  21.748  0.00  0.00    +0.119 HD
ATOM     21  H   UNL     1       5.263  -2.555  21.225  0.00  0.00    +0.119 HD
ENDBRANCH  18  19
BRANCH  18  22
ATOM     22  C   UNL     1       7.975  -2.662  22.098  0.00  0.00    +0.033 C 
BRANCH  22  23
ATOM     23  C   UNL     1       8.902  -2.339  23.276  0.00  0.00    +0.037 C 
BRANCH  23  24
ATOM     24  C   UNL     1       9.379  -0.905  23.262  0.00  0.00    -0.047 A 
ATOM     25  C   UNL     1      10.228  -0.422  24.265  0.00  0.00    +0.003 A 
ATOM     26  C   UNL     1      10.653   0.908  24.251  0.00  0.00    +0.000 A 
ATOM     27  C   UNL     1      10.239   1.765  23.234  0.00  0.00    +0.000 A 
ATOM     28  C   UNL     1       9.400   1.292  22.226  0.00  0.00    +0.000 A 
ATOM     29  C   UNL     1       8.974  -0.037  22.238  0.00  0.00    +0.003 A 
ENDBRANCH  23  24
ENDBRANCH  22  23
ENDBRANCH  18  22
ENDBRANCH   1  18
TORSDOF 12
ENDMDL
MODEL 5
REMARK VINA RESULT:      -5.5      3.525      6.726
REMARK  Name = 
REMARK  12 active torsions:
REMARK  status: ('A' for Active; 'I' for Inactive)
REMARK    1  A    between atoms: C_2  and  C_3
REMARK    2  A    between atoms: C_2  and  C_10
REMARK    3  A    between atoms: C_2  and  C_25
REMARK    4  A    between atoms: C_3  and  C_4
REMARK    5  A    between atoms: C_10  and  P_11
REMARK    6  A    between atoms: P_11  and  O_12
REMARK    7  A    between atoms: P_11  and  C_14
REMARK    8  A    between atoms: C_14  and  N_16
REMARK    9  A    between atoms: C_14  and  C_17
REMARK   10  A    between atoms: C_17  and  C_18
REMARK   11  A    between atoms: C_18  and  C_19
REMARK   12  A    between atoms: C_25  and  O_26
REMARK                            x       y       z     vdW  Elec       q    Type
REMARK                         _______ _______ _______ _____ _____    ______ ____
ROOT
ATOM      1  P   UNL     1       8.068  -4.775  24.085  0.00  0.00    +0.219 P 
ATOM      2  O   UNL     1       9.287  -5.468  24.618  0.00  0.00    -0.289 OA
ENDROOT
BRANCH   1   3
ATOM      3  O   UNL     1       7.624  -5.464  22.693  0.00  0.00    -0.343 OA
ATOM      4  H   UNL     1       7.893  -4.953  21.902  0.00  0.00    +0.218 HD
ENDBRANCH   1   3
BRANCH   1   5
ATOM      5  C   UNL     1       6.609  -4.948  25.105  0.00  0.00    +0.113 C 
BRANCH   5   6
ATOM      6  C   UNL     1       6.748  -4.549  26.592  0.00  0.00    +0.111 C 
BRANCH   6   7
ATOM      7  C   UNL     1       6.453  -5.805  27.400  0.00  0.00    +0.309 C 
ATOM      8  O   UNL     1       7.076  -6.069  28.429  0.00  0.00    -0.251 OA
BRANCH   7   9
ATOM      9  O   UNL     1       5.529  -6.668  26.930  0.00  0.00    -0.480 OA
ATOM     10  H   UNL     1       5.641  -7.612  27.143  0.00  0.00    +0.295 HD
ENDBRANCH   7   9
ENDBRANCH   6   7
BRANCH   6  11
ATOM     11  C   UNL     1       5.902  -3.305  26.909  0.00  0.00    +0.050 C 
BRANCH  11  12
ATOM     12  C   UNL     1       6.296  -1.995  26.257  0.00  0.00    -0.047 A 
ATOM     13  C   UNL     1       7.471  -1.360  26.694  0.00  0.00    +0.003 A 
ATOM     14  C   UNL     1       7.909  -0.177  26.104  0.00  0.00    +0.000 A 
ATOM     15  C   UNL     1       7.167   0.405  25.079  0.00  0.00    +0.000 A 
ATOM     16  C   UNL     1       5.978  -0.188  24.663  0.00  0.00    +0.000 A 
ATOM     17  C   UNL     1       5.536  -1.378  25.254  0.00  0.00    +0.003 A 
ENDBRANCH  11  12
ENDBRANCH   6  11
ENDBRANCH   5   6
ENDBRANCH   1   5
BRANCH   1  18
ATOM     18  C   UNL     1       8.359  -3.039  23.622  0.00  0.00    +0.139 C 
BRANCH  18  19
ATOM     19  N   UNL     1       7.893  -2.923  22.226  0.00  0.00    -0.320 NA
ATOM     20  H   UNL     1       7.259  -3.708  22.043  0.00  0.00    +0.119 HD
ATOM     21  H   UNL     1       7.303  -2.093  22.138  0.00  0.00    +0.119 HD
ENDBRANCH  18  19
BRANCH  18  22
ATOM     22  C   UNL     1       9.796  -2.540  23.803  0.00  0.00    +0.033 C 
BRANCH  22  23
ATOM     23  C   UNL     1      10.308  -1.750  22.593  0.00  0.00    +0.037 C 
BRANCH  23  24
ATOM     24  C   UNL     1      10.170  -0.256  22.776  0.00  0.00    -0.047 A 
ATOM     25  C   UNL     1       9.509   0.525  21.820  0.00  0.00    +0.003 A 
ATOM     26  C   UNL     1       9.397   1.907  21.991  0.00  0.00    +0.000 A 
ATOM     27  C   UNL     1       9.940   2.519  23.118  0.00  0.00    +0.000 A 
ATOM     28  C   UNL     1      10.594   1.749  24.080  0.00  0.00    +0.000 A 
ATOM     29  C   UNL     1      10.706   0.368  23.911  0.00  0.00    +0.003 A 
ENDBRANCH  23  24
ENDBRANCH  22  23
ENDBRANCH  18  22
ENDBRANCH   1  18
TORSDOF 12
ENDMDL
MODEL 6
REMARK VINA RESULT:      -5.5      3.027      6.686
REMARK  Name = 
REMARK  12 active torsions:
REMARK  status: ('A' for Active; 'I' for Inactive)
REMARK    1  A    between atoms: C_2  and  C_3
REMARK    2  A    between atoms: C_2  and  C_10
REMARK    3  A    between atoms: C_2  and  C_25
REMARK    4  A    between atoms: C_3  and  C_4
REMARK    5  A    between atoms: C_10  and  P_11
REMARK    6  A    between atoms: P_11  and  O_12
REMARK    7  A    between atoms: P_11  and  C_14
REMARK    8  A    between atoms: C_14  and  N_16
REMARK    9  A    between atoms: C_14  and  C_17
REMARK   10  A    between atoms: C_17  and  C_18
REMARK   11  A    between atoms: C_18  and  C_19
REMARK   12  A    between atoms: C_25  and  O_26
REMARK                            x       y       z     vdW  Elec       q    Type
REMARK                         _______ _______ _______ _____ _____    ______ ____
ROOT
ATOM      1  P   UNL     1       6.307  -2.944  23.513  0.00  0.00    +0.219 P 
ATOM      2  O   UNL     1       5.229  -3.962  23.283  0.00  0.00    -0.289 OA
ENDROOT
BRANCH   1   3
ATOM      3  O   UNL     1       5.932  -1.580  22.734  0.00  0.00    -0.343 OA
ATOM      4  H   UNL     1       6.259  -1.555  21.811  0.00  0.00    +0.218 HD
ENDBRANCH   1   3
BRANCH   1   5
ATOM      5  C   UNL     1       6.473  -2.409  25.211  0.00  0.00    +0.113 C 
BRANCH   5   6
ATOM      6  C   UNL     1       7.348  -1.161  25.465  0.00  0.00    +0.111 C 
BRANCH   6   7
ATOM      7  C   UNL     1       8.420  -1.586  26.459  0.00  0.00    +0.309 C 
ATOM      8  O   UNL     1       8.729  -2.769  26.606  0.00  0.00    -0.251 OA
BRANCH   7   9
ATOM      9  O   UNL     1       8.989  -0.638  27.232  0.00  0.00    -0.480 OA
ATOM     10  H   UNL     1       9.628  -0.929  27.908  0.00  0.00    +0.295 HD
ENDBRANCH   7   9
ENDBRANCH   6   7
BRANCH   6  11
ATOM     11  C   UNL     1       6.481   0.049  25.854  0.00  0.00    +0.050 C 
BRANCH  11  12
ATOM     12  C   UNL     1       6.795   1.382  25.206  0.00  0.00    -0.047 A 
ATOM     13  C   UNL     1       7.465   2.352  25.971  0.00  0.00    +0.003 A 
ATOM     14  C   UNL     1       7.820   3.581  25.419  0.00  0.00    +0.000 A 
ATOM     15  C   UNL     1       7.492   3.871  24.098  0.00  0.00    +0.000 A 
ATOM     16  C   UNL     1       6.790   2.937  23.339  0.00  0.00    +0.000 A 
ATOM     17  C   UNL     1       6.433   1.701  23.891  0.00  0.00    +0.003 A 
ENDBRANCH  11  12
ENDBRANCH   6  11
ENDBRANCH   5   6
ENDBRANCH   1   5
BRANCH   1  18
ATOM     18  C   UNL     1       7.915  -3.409  22.798  0.00  0.00    +0.139 C 
BRANCH  18  19
ATOM     19  N   UNL     1       8.649  -4.081  23.888  0.00  0.00    -0.320 NA
ATOM     20  H   UNL     1       7.967  -4.608  24.444  0.00  0.00    +0.119 HD
ATOM     21  H   UNL     1       9.259  -4.797  23.489  0.00  0.00    +0.119 HD
ENDBRANCH  18  19
BRANCH  18  22
ATOM     22  C   UNL     1       8.715  -2.262  22.173  0.00  0.00    +0.033 C 
BRANCH  22  23
ATOM     23  C   UNL     1       9.905  -1.827  23.037  0.00  0.00    +0.037 C 
BRANCH  23  24
ATOM     24  C   UNL     1      10.100  -0.329  23.043  0.00  0.00    -0.047 A 
ATOM     25  C   UNL     1       9.799   0.437  21.909  0.00  0.00    +0.003 A 
ATOM     26  C   UNL     1       9.993   1.820  21.919  0.00  0.00    +0.000 A 
ATOM     27  C   UNL     1      10.485   2.450  23.060  0.00  0.00    +0.000 A 
ATOM     28  C   UNL     1      10.779   1.698  24.196  0.00  0.00    +0.000 A 
ATOM     29  C   UNL     1      10.585   0.316  24.189  0.00  0.00    +0.003 A 
ENDBRANCH  23  24
ENDBRANCH  22  23
ENDBRANCH  18  22
ENDBRANCH   1  18
TORSDOF 12
ENDMDL
MODEL 7
REMARK VINA RESULT:      -5.4      1.284      2.068
REMARK  Name = 
REMARK  12 active torsions:
REMARK  status: ('A' for Active; 'I' for Inactive)
REMARK    1  A    between atoms: C_2  and  C_3
REMARK    2  A    between atoms: C_2  and  C_10
REMARK    3  A    between atoms: C_2  and  C_25
REMARK    4  A    between atoms: C_3  and  C_4
REMARK    5  A    between atoms: C_10  and  P_11
REMARK    6  A    between atoms: P_11  and  O_12
REMARK    7  A    between atoms: P_11  and  C_14
REMARK    8  A    between atoms: C_14  and  N_16
REMARK    9  A    between atoms: C_14  and  C_17
REMARK   10  A    between atoms: C_17  and  C_18
REMARK   11  A    between atoms: C_18  and  C_19
REMARK   12  A    between atoms: C_25  and  O_26
REMARK                            x       y       z     vdW  Elec       q    Type
REMARK                         _______ _______ _______ _____ _____    ______ ____
ROOT
ATOM      1  P   UNL     1       8.494   0.830  25.150  0.00  0.00    +0.219 P 
ATOM      2  O   UNL     1       9.619  -0.067  25.577  0.00  0.00    -0.289 OA
ENDROOT
BRANCH   1   3
ATOM      3  O   UNL     1       9.023   2.354  25.071  0.00  0.00    -0.343 OA
ATOM      4  H   UNL     1       9.138   2.680  24.156  0.00  0.00    +0.218 HD
ENDBRANCH   1   3
BRANCH   1   5
ATOM      5  C   UNL     1       7.889   0.525  23.495  0.00  0.00    +0.113 C 
BRANCH   5   6
ATOM      6  C   UNL     1       8.130  -0.887  22.915  0.00  0.00    +0.111 C 
BRANCH   6   7
ATOM      7  C   UNL     1       9.212  -0.735  21.855  0.00  0.00    +0.309 C 
ATOM      8  O   UNL     1       9.235   0.232  21.093  0.00  0.00    -0.251 OA
BRANCH   7   9
ATOM      9  O   UNL     1      10.123  -1.721  21.723  0.00  0.00    -0.480 OA
ATOM     10  H   UNL     1      10.106  -2.246  20.902  0.00  0.00    +0.295 HD
ENDBRANCH   7   9
ENDBRANCH   6   7
BRANCH   6  11
ATOM     11  C   UNL     1       6.807  -1.531  22.468  0.00  0.00    +0.050 C 
BRANCH  11  12
ATOM     12  C   UNL     1       6.565  -2.981  22.835  0.00  0.00    -0.047 A 
ATOM     13  C   UNL     1       5.261  -3.370  23.188  0.00  0.00    +0.003 A 
ATOM     14  C   UNL     1       4.967  -4.697  23.493  0.00  0.00    +0.000 A 
ATOM     15  C   UNL     1       5.976  -5.656  23.473  0.00  0.00    +0.000 A 
ATOM     16  C   UNL     1       7.282  -5.279  23.168  0.00  0.00    +0.000 A 
ATOM     17  C   UNL     1       7.580  -3.947  22.860  0.00  0.00    +0.003 A 
ENDBRANCH  11  12
ENDBRANCH   6  11
ENDBRANCH   5   6
ENDBRANCH   1   5
BRANCH   1  18
ATOM     18  C   UNL     1       7.133   0.919  26.355  0.00  0.00    +0.139 C 
BRANCH  18  19
ATOM     19  N   UNL     1       7.460   2.059  27.233  0.00  0.00    -0.320 NA
ATOM     20  H   UNL     1       6.912   2.865  26.912  0.00  0.00    +0.119 HD
ATOM     21  H   UNL     1       7.108   1.869  28.173  0.00  0.00    +0.119 HD
ENDBRANCH  18  19
BRANCH  18  22
ATOM     22  C   UNL     1       6.864  -0.368  27.142  0.00  0.00    +0.033 C 
BRANCH  22  23
ATOM     23  C   UNL     1       6.196  -1.457  26.293  0.00  0.00    +0.037 C 
BRANCH  23  24
ATOM     24  C   UNL     1       6.819  -2.817  26.502  0.00  0.00    -0.047 A 
ATOM     25  C   UNL     1       8.189  -3.018  26.288  0.00  0.00    +0.003 A 
ATOM     26  C   UNL     1       8.754  -4.282  26.471  0.00  0.00    +0.000 A 
ATOM     27  C   UNL     1       7.960  -5.353  26.874  0.00  0.00    +0.000 A 
ATOM     28  C   UNL     1       6.597  -5.162  27.098  0.00  0.00    +0.000 A 
ATOM     29  C   UNL     1       6.030  -3.899  26.916  0.00  0.00    +0.003 A 
ENDBRANCH  23  24
ENDBRANCH  22  23
ENDBRANCH  18  22
ENDBRANCH   1  18
TORSDOF 12
ENDMDL
MODEL 8
REMARK VINA RESULT:      -5.4      3.545      5.132
REMARK  Name = 
REMARK  12 active torsions:
REMARK  status: ('A' for Active; 'I' for Inactive)
REMARK    1  A    between atoms: C_2  and  C_3
REMARK    2  A    between atoms: C_2  and  C_10
REMARK    3  A    between atoms: C_2  and  C_25
REMARK    4  A    between atoms: C_3  and  C_4
REMARK    5  A    between atoms: C_10  and  P_11
REMARK    6  A    between atoms: P_11  and  O_12
REMARK    7  A    between atoms: P_11  and  C_14
REMARK    8  A    between atoms: C_14  and  N_16
REMARK    9  A    between atoms: C_14  and  C_17
REMARK   10  A    between atoms: C_17  and  C_18
REMARK   11  A    between atoms: C_18  and  C_19
REMARK   12  A    between atoms: C_25  and  O_26
REMARK                            x       y       z     vdW  Elec       q    Type
REMARK                         _______ _______ _______ _____ _____    ______ ____
ROOT
ATOM      1  P   UNL     1       6.032  -5.472  27.572  0.00  0.00    +0.219 P 
ATOM      2  O   UNL     1       5.458  -6.818  27.236  0.00  0.00    -0.289 OA
ENDROOT
BRANCH   1   3
ATOM      3  O   UNL     1       6.068  -5.290  29.176  0.00  0.00    -0.343 OA
ATOM      4  H   UNL     1       5.181  -5.178  29.576  0.00  0.00    +0.218 HD
ENDBRANCH   1   3
BRANCH   1   5
ATOM      5  C   UNL     1       7.743  -5.257  27.101  0.00  0.00    +0.113 C 
BRANCH   5   6
ATOM      6  C   UNL     1       8.013  -4.490  25.786  0.00  0.00    +0.111 C 
BRANCH   6   7
ATOM      7  C   UNL     1       9.077  -5.282  25.039  0.00  0.00    +0.309 C 
ATOM      8  O   UNL     1       8.912  -5.642  23.873  0.00  0.00    -0.251 OA
BRANCH   7   9
ATOM      9  O   UNL     1      10.193  -5.642  25.705  0.00  0.00    -0.480 OA
ATOM     10  H   UNL     1      10.141  -6.421  26.289  0.00  0.00    +0.295 HD
ENDBRANCH   7   9
ENDBRANCH   6   7
BRANCH   6  11
ATOM     11  C   UNL     1       8.318  -3.009  26.066  0.00  0.00    +0.050 C 
BRANCH  11  12
ATOM     12  C   UNL     1       7.903  -1.990  25.023  0.00  0.00    -0.047 A 
ATOM     13  C   UNL     1       8.648  -1.914  23.834  0.00  0.00    +0.003 A 
ATOM     14  C   UNL     1       8.290  -1.029  22.819  0.00  0.00    +0.000 A 
ATOM     15  C   UNL     1       7.194  -0.188  22.985  0.00  0.00    +0.000 A 
ATOM     16  C   UNL     1       6.470  -0.220  24.175  0.00  0.00    +0.000 A 
ATOM     17  C   UNL     1       6.827  -1.110  25.196  0.00  0.00    +0.003 A 
ENDBRANCH  11  12
ENDBRANCH   6  11
ENDBRANCH   5   6
ENDBRANCH   1   5
BRANCH   1  18
ATOM     18  C   UNL     1       5.003  -4.079  27.012  0.00  0.00    +0.139 C 
BRANCH  18  19
ATOM     19  N   UNL     1       4.349  -3.561  28.230  0.00  0.00    -0.320 NA
ATOM     20  H   UNL     1       3.509  -3.050  27.938  0.00  0.00    +0.119 HD
ATOM     21  H   UNL     1       3.992  -4.346  28.777  0.00  0.00    +0.119 HD
ENDBRANCH  18  19
BRANCH  18  22
ATOM     22  C   UNL     1       3.999  -4.405  25.901  0.00  0.00    +0.033 C 
BRANCH  22  23
ATOM     23  C   UNL     1       4.153  -3.497  24.675  0.00  0.00    +0.037 C 
BRANCH  23  24
ATOM     24  C   UNL     1       4.940  -4.153  23.565  0.00  0.00    -0.047 A 
ATOM     25  C   UNL     1       5.468  -3.392  22.514  0.00  0.00    +0.003 A 
ATOM     26  C   UNL     1       6.184  -4.009  21.485  0.00  0.00    +0.000 A 
ATOM     27  C   UNL     1       6.382  -5.388  21.499  0.00  0.00    +0.000 A 
ATOM     28  C   UNL     1       5.868  -6.153  22.545  0.00  0.00    +0.000 A 
ATOM     29  C   UNL     1       5.153  -5.539  23.574  0.00  0.00    +0.003 A 
ENDBRANCH  23  24
ENDBRANCH  22  23
ENDBRANCH  18  22
ENDBRANCH   1  18
TORSDOF 12
ENDMDL
MODEL 9
REMARK VINA RESULT:      -5.3      1.704      2.372
REMARK  Name = 
REMARK  12 active torsions:
REMARK  status: ('A' for Active; 'I' for Inactive)
REMARK    1  A    between atoms: C_2  and  C_3
REMARK    2  A    between atoms: C_2  and  C_10
REMARK    3  A    between atoms: C_2  and  C_25
REMARK    4  A    between atoms: C_3  and  C_4
REMARK    5  A    between atoms: C_10  and  P_11
REMARK    6  A    between atoms: P_11  and  O_12
REMARK    7  A    between atoms: P_11  and  C_14
REMARK    8  A    between atoms: C_14  and  N_16
REMARK    9  A    between atoms: C_14  and  C_17
REMARK   10  A    between atoms: C_17  and  C_18
REMARK   11  A    between atoms: C_18  and  C_19
REMARK   12  A    between atoms: C_25  and  O_26
REMARK                            x       y       z     vdW  Elec       q    Type
REMARK                         _______ _______ _______ _____ _____    ______ ____
ROOT
ATOM      1  P   UNL     1       7.030   0.674  24.047  0.00  0.00    +0.219 P 
ATOM      2  O   UNL     1       6.496   1.997  23.584  0.00  0.00    -0.289 OA
ENDROOT
BRANCH   1   3
ATOM      3  O   UNL     1       5.805  -0.361  24.238  0.00  0.00    -0.343 OA
ATOM      4  H   UNL     1       6.093  -1.269  24.465  0.00  0.00    +0.218 HD
ENDBRANCH   1   3
BRANCH   1   5
ATOM      5  C   UNL     1       8.081  -0.157  22.863  0.00  0.00    +0.113 C 
BRANCH   5   6
ATOM      6  C   UNL     1       8.144  -1.700  22.949  0.00  0.00    +0.111 C 
BRANCH   6   7
ATOM      7  C   UNL     1       9.613  -2.076  22.812  0.00  0.00    +0.309 C 
ATOM      8  O   UNL     1      10.191  -2.735  23.676  0.00  0.00    -0.251 OA
BRANCH   7   9
ATOM      9  O   UNL     1      10.295  -1.616  21.744  0.00  0.00    -0.480 OA
ATOM     10  H   UNL     1      10.066  -0.731  21.406  0.00  0.00    +0.295 HD
ENDBRANCH   7   9
ENDBRANCH   6   7
BRANCH   6  11
ATOM     11  C   UNL     1       7.166  -2.347  21.954  0.00  0.00    +0.050 C 
BRANCH  11  12
ATOM     12  C   UNL     1       6.482  -3.634  22.368  0.00  0.00    -0.047 A 
ATOM     13  C   UNL     1       5.160  -3.564  22.840  0.00  0.00    +0.003 A 
ATOM     14  C   UNL     1       4.463  -4.717  23.194  0.00  0.00    +0.000 A 
ATOM     15  C   UNL     1       5.084  -5.960  23.104  0.00  0.00    +0.000 A 
ATOM     16  C   UNL     1       6.408  -6.043  22.679  0.00  0.00    +0.000 A 
ATOM     17  C   UNL     1       7.110  -4.885  22.321  0.00  0.00    +0.003 A 
ENDBRANCH  11  12
ENDBRANCH   6  11
ENDBRANCH   5   6
ENDBRANCH   1   5
BRANCH   1  18
ATOM     18  C   UNL     1       7.795   0.730  25.697  0.00  0.00    +0.139 C 
BRANCH  18  19
ATOM     19  N   UNL     1       9.247   0.826  25.452  0.00  0.00    -0.320 NA
ATOM     20  H   UNL     1       9.572  -0.096  25.142  0.00  0.00    +0.119 HD
ATOM     21  H   UNL     1       9.412   1.437  24.649  0.00  0.00    +0.119 HD
ENDBRANCH  18  19
BRANCH  18  22
ATOM     22  C   UNL     1       7.434  -0.429  26.632  0.00  0.00    +0.033 C 
BRANCH  22  23
ATOM     23  C   UNL     1       8.419  -1.600  26.535  0.00  0.00    +0.037 C 
BRANCH  23  24
ATOM     24  C   UNL     1       7.721  -2.938  26.458  0.00  0.00    -0.047 A 
ATOM     25  C   UNL     1       6.332  -3.031  26.605  0.00  0.00    +0.003 A 
ATOM     26  C   UNL     1       5.696  -4.273  26.545  0.00  0.00    +0.000 A 
ATOM     27  C   UNL     1       6.442  -5.432  26.335  0.00  0.00    +0.000 A 
ATOM     28  C   UNL     1       7.824  -5.349  26.180  0.00  0.00    +0.000 A 
ATOM     29  C   UNL     1       8.461  -4.108  26.238  0.00  0.00    +0.003 A 
ENDBRANCH  23  24
ENDBRANCH  22  23
ENDBRANCH  18  22
ENDBRANCH   1  18
TORSDOF 12
ENDMDL
