MODEL 1
REMARK VINA RESULT:      -5.5      0.000      0.000
REMARK  Name = 
REMARK  17 active torsions:
REMARK  status: ('A' for Active; 'I' for Inactive)
REMARK    1  A    between atoms: C_2  and  O_3
REMARK    2  A    between atoms: C_4  and  O_6
REMARK    3  A    between atoms: C_7  and  C_9
REMARK    4  A    between atoms: C_9  and  O_10
REMARK    5  A    between atoms: C_12  and  O_14
REMARK    6  A    between atoms: O_14  and  C_15
REMARK    7  A    between atoms: C_15  and  C_16
REMARK    8  A    between atoms: C_16  and  C_17
REMARK    9  A    between atoms: C_17  and  C_18
REMARK   10  A    between atoms: C_18  and  C_19
REMARK   11  A    between atoms: C_19  and  C_20
REMARK   12  A    between atoms: C_20  and  C_21
REMARK   13  A    between atoms: C_21  and  C_22
REMARK   14  A    between atoms: C_22  and  C_23
REMARK   15  A    between atoms: C_23  and  O_25
REMARK   16  A    between atoms: O_25  and  C_26
REMARK   17  A    between atoms: C_27  and  O_29
REMARK                            x       y       z     vdW  Elec       q    Type
REMARK                         _______ _______ _______ _____ _____    ______ ____
ROOT
ATOM      1  C   UNL     1       5.125  -4.881  24.293  0.00  0.00    +0.179 C 
ATOM      2  C   UNL     1       6.456  -4.528  24.957  0.00  0.00    +0.201 C 
ATOM      3  C   UNL     1       7.556  -4.280  23.911  0.00  0.00    +0.282 C 
ATOM      4  O   UNL     1       7.721  -5.409  23.054  0.00  0.00    -0.341 OA
ATOM      5  C   UNL     1       6.544  -5.989  22.443  0.00  0.00    +0.178 C 
ATOM      6  C   UNL     1       5.300  -6.078  23.356  0.00  0.00    +0.177 C 
ENDROOT
BRANCH   1   7
ATOM      7  O   UNL     1       4.537  -3.800  23.568  0.00  0.00    -0.386 OA
ATOM      8  H   UNL     1       5.249  -3.192  23.291  0.00  0.00    +0.210 HD
ENDBRANCH   1   7
BRANCH   6   9
ATOM      9  O   UNL     1       4.101  -6.336  22.618  0.00  0.00    -0.386 OA
ATOM     10  H   UNL     1       4.231  -7.196  22.169  0.00  0.00    +0.210 HD
ENDBRANCH   6   9
BRANCH   2  11
ATOM     11  O   UNL     1       6.844  -5.600  25.833  0.00  0.00    -0.384 OA
ATOM     12  H   UNL     1       7.714  -5.377  26.217  0.00  0.00    +0.210 HD
ENDBRANCH   2  11
BRANCH   5  13
ATOM     13  C   UNL     1       6.301  -5.409  21.047  0.00  0.00    +0.190 C 
BRANCH  13  14
ATOM     14  O   UNL     1       5.662  -4.129  21.166  0.00  0.00    -0.392 OA
ATOM     15  H   UNL     1       5.647  -3.752  20.268  0.00  0.00    +0.210 HD
ENDBRANCH  13  14
ENDBRANCH   5  13
BRANCH   3  16
ATOM     16  O   UNL     1       7.375  -3.034  23.232  0.00  0.00    -0.349 OA
BRANCH  16  17
ATOM     17  C   UNL     1       8.616  -2.538  22.712  0.00  0.00    +0.163 C 
BRANCH  17  18
ATOM     18  C   UNL     1       9.545  -2.048  23.824  0.00  0.00    +0.028 C 
BRANCH  18  19
ATOM     19  C   UNL     1       8.932  -1.046  24.814  0.00  0.00    +0.002 C 
BRANCH  19  20
ATOM     20  C   UNL     1       9.933  -0.006  25.322  0.00  0.00    +0.000 C 
BRANCH  20  21
ATOM     21  C   UNL     1      10.802   0.572  24.202  0.00  0.00    +0.000 C 
BRANCH  21  22
ATOM     22  C   UNL     1      10.151   1.837  23.640  0.00  0.00    +0.001 C 
BRANCH  22  23
ATOM     23  C   UNL     1      10.149   1.858  22.113  0.00  0.00    +0.011 C 
BRANCH  23  24
ATOM     24  C   UNL     1       9.048   0.954  21.563  0.00  0.00    +0.120 C 
BRANCH  24  25
ATOM     25  C   UNL     1       7.679   1.380  22.020  0.00  0.00    +0.307 C 
ATOM     26  O   UNL     1       6.901   0.699  22.680  0.00  0.00    -0.251 OA
BRANCH  25  27
ATOM     27  O   UNL     1       7.428   2.647  21.583  0.00  0.00    -0.468 OA
ATOM     28  C   UNL     1       6.477   3.357  22.374  0.00  0.00    +0.280 C 
ENDBRANCH  25  27
ENDBRANCH  24  25
ENDBRANCH  23  24
ENDBRANCH  22  23
ENDBRANCH  21  22
ENDBRANCH  20  21
ENDBRANCH  19  20
ENDBRANCH  18  19
ENDBRANCH  17  18
ENDBRANCH  16  17
ENDBRANCH   3  16
TORSDOF 16
ENDMDL
MODEL 2
REMARK VINA RESULT:      -5.4      2.299      3.619
REMARK  Name = 
REMARK  17 active torsions:
REMARK  status: ('A' for Active; 'I' for Inactive)
REMARK    1  A    between atoms: C_2  and  O_3
REMARK    2  A    between atoms: C_4  and  O_6
REMARK    3  A    between atoms: C_7  and  C_9
REMARK    4  A    between atoms: C_9  and  O_10
REMARK    5  A    between atoms: C_12  and  O_14
REMARK    6  A    between atoms: O_14  and  C_15
REMARK    7  A    between atoms: C_15  and  C_16
REMARK    8  A    between atoms: C_16  and  C_17
REMARK    9  A    between atoms: C_17  and  C_18
REMARK   10  A    between atoms: C_18  and  C_19
REMARK   11  A    between atoms: C_19  and  C_20
REMARK   12  A    between atoms: C_20  and  C_21
REMARK   13  A    between atoms: C_21  and  C_22
REMARK   14  A    between atoms: C_22  and  C_23
REMARK   15  A    between atoms: C_23  and  O_25
REMARK   16  A    between atoms: O_25  and  C_26
REMARK   17  A    between atoms: C_27  and  O_29
REMARK                            x       y       z     vdW  Elec       q    Type
REMARK                         _______ _______ _______ _____ _____    ______ ____
ROOT
ATOM      1  C   UNL     1       8.790  -4.284  26.501  0.00  0.00    +0.179 C 
ATOM      2  C   UNL     1       9.419  -4.540  25.131  0.00  0.00    +0.201 C 
ATOM      3  C   UNL     1       8.385  -4.391  24.003  0.00  0.00    +0.282 C 
ATOM      4  O   UNL     1       7.272  -5.262  24.201  0.00  0.00    -0.341 OA
ATOM      5  C   UNL     1       6.629  -5.275  25.498  0.00  0.00    +0.178 C 
ATOM      6  C   UNL     1       7.583  -5.200  26.710  0.00  0.00    +0.177 C 
ENDROOT
BRANCH   1   7
ATOM      7  O   UNL     1       8.391  -2.928  26.709  0.00  0.00    -0.386 OA
ATOM      8  H   UNL     1       8.671  -2.659  27.606  0.00  0.00    +0.210 HD
ENDBRANCH   1   7
BRANCH   6   9
ATOM      9  O   UNL     1       6.895  -4.879  27.924  0.00  0.00    -0.386 OA
ATOM     10  H   UNL     1       6.170  -4.268  27.679  0.00  0.00    +0.210 HD
ENDBRANCH   6   9
BRANCH   2  11
ATOM     11  O   UNL     1       9.980  -5.863  25.111  0.00  0.00    -0.384 OA
ATOM     12  H   UNL     1       9.282  -6.484  24.826  0.00  0.00    +0.210 HD
ENDBRANCH   2  11
BRANCH   5  13
ATOM     13  C   UNL     1       5.434  -4.317  25.534  0.00  0.00    +0.190 C 
BRANCH  13  14
ATOM     14  O   UNL     1       5.908  -2.968  25.662  0.00  0.00    -0.392 OA
ATOM     15  H   UNL     1       5.425  -2.449  24.993  0.00  0.00    +0.210 HD
ENDBRANCH  13  14
ENDBRANCH   5  13
BRANCH   3  16
ATOM     16  O   UNL     1       8.040  -3.022  23.772  0.00  0.00    -0.349 OA
BRANCH  16  17
ATOM     17  C   UNL     1       8.178  -2.674  22.388  0.00  0.00    +0.163 C 
BRANCH  17  18
ATOM     18  C   UNL     1       8.330  -1.165  22.191  0.00  0.00    +0.028 C 
BRANCH  18  19
ATOM     19  C   UNL     1       9.746  -0.675  21.854  0.00  0.00    +0.002 C 
BRANCH  19  20
ATOM     20  C   UNL     1       9.876   0.850  21.848  0.00  0.00    +0.000 C 
BRANCH  20  21
ATOM     21  C   UNL     1       8.521   1.555  21.750  0.00  0.00    +0.000 C 
BRANCH  21  22
ATOM     22  C   UNL     1       8.403   2.610  22.851  0.00  0.00    +0.001 C 
BRANCH  22  23
ATOM     23  C   UNL     1       9.244   2.265  24.077  0.00  0.00    +0.011 C 
BRANCH  23  24
ATOM     24  C   UNL     1       8.360   1.753  25.212  0.00  0.00    +0.120 C 
BRANCH  24  25
ATOM     25  C   UNL     1       8.512   0.271  25.429  0.00  0.00    +0.307 C 
ATOM     26  O   UNL     1       9.576  -0.335  25.509  0.00  0.00    -0.251 OA
BRANCH  25  27
ATOM     27  O   UNL     1       7.279  -0.304  25.521  0.00  0.00    -0.468 OA
ATOM     28  C   UNL     1       6.285   0.541  26.099  0.00  0.00    +0.280 C 
ENDBRANCH  25  27
ENDBRANCH  24  25
ENDBRANCH  23  24
ENDBRANCH  22  23
ENDBRANCH  21  22
ENDBRANCH  20  21
ENDBRANCH  19  20
ENDBRANCH  18  19
ENDBRANCH  17  18
ENDBRANCH  16  17
ENDBRANCH   3  16
TORSDOF 16
ENDMDL
MODEL 3
REMARK VINA RESULT:      -5.3      2.048      6.676
REMARK  Name = 
REMARK  17 active torsions:
REMARK  status: ('A' for Active; 'I' for Inactive)
REMARK    1  A    between atoms: C_2  and  O_3
REMARK    2  A    between atoms: C_4  and  O_6
REMARK    3  A    between atoms: C_7  and  C_9
REMARK    4  A    between atoms: C_9  and  O_10
REMARK    5  A    between atoms: C_12  and  O_14
REMARK    6  A    between atoms: O_14  and  C_15
REMARK    7  A    between atoms: C_15  and  C_16
REMARK    8  A    between atoms: C_16  and  C_17
REMARK    9  A    between atoms: C_17  and  C_18
REMARK   10  A    between atoms: C_18  and  C_19
REMARK   11  A    between atoms: C_19  and  C_20
REMARK   12  A    between atoms: C_20  and  C_21
REMARK   13  A    between atoms: C_21  and  C_22
REMARK   14  A    between atoms: C_22  and  C_23
REMARK   15  A    between atoms: C_23  and  O_25
REMARK   16  A    between atoms: O_25  and  C_26
REMARK   17  A    between atoms: C_27  and  O_29
REMARK                            x       y       z     vdW  Elec       q    Type
REMARK                         _______ _______ _______ _____ _____    ______ ____
ROOT
ATOM      1  C   UNL     1       8.878  -0.084  22.142  0.00  0.00    +0.179 C 
ATOM      2  C   UNL     1       9.434  -1.212  23.011  0.00  0.00    +0.201 C 
ATOM      3  C   UNL     1       9.844  -0.698  24.401  0.00  0.00    +0.282 C 
ATOM      4  O   UNL     1      10.796   0.360  24.303  0.00  0.00    -0.341 OA
ATOM      5  C   UNL     1      10.517   1.459  23.404  0.00  0.00    +0.178 C 
ATOM      6  C   UNL     1       9.887   1.062  22.050  0.00  0.00    +0.177 C 
ENDROOT
BRANCH   1   7
ATOM      7  O   UNL     1       7.624   0.430  22.594  0.00  0.00    -0.386 OA
ATOM      8  H   UNL     1       7.105   0.704  21.813  0.00  0.00    +0.210 HD
ENDBRANCH   1   7
BRANCH   6   9
ATOM      9  O   UNL     1       9.331   2.186  21.360  0.00  0.00    -0.386 OA
ATOM     10  H   UNL     1       9.267   1.929  20.417  0.00  0.00    +0.210 HD
ENDBRANCH   6   9
BRANCH   2  11
ATOM     11  O   UNL     1      10.568  -1.799  22.351  0.00  0.00    -0.384 OA
ATOM     12  H   UNL     1      10.463  -1.662  21.389  0.00  0.00    +0.210 HD
ENDBRANCH   2  11
BRANCH   5  13
ATOM     13  C   UNL     1       9.834   2.617  24.139  0.00  0.00    +0.190 C 
BRANCH  13  14
ATOM     14  O   UNL     1      10.135   3.850  23.470  0.00  0.00    -0.392 OA
ATOM     15  H   UNL     1       9.960   3.692  22.524  0.00  0.00    +0.210 HD
ENDBRANCH  13  14
ENDBRANCH   5  13
BRANCH   3  16
ATOM     16  O   UNL     1       8.706  -0.405  25.219  0.00  0.00    -0.349 OA
BRANCH  16  17
ATOM     17  C   UNL     1       8.693  -1.212  26.404  0.00  0.00    +0.163 C 
BRANCH  17  18
ATOM     18  C   UNL     1       7.897  -2.503  26.205  0.00  0.00    +0.028 C 
BRANCH  18  19
ATOM     19  C   UNL     1       8.693  -3.808  26.360  0.00  0.00    +0.002 C 
BRANCH  19  20
ATOM     20  C   UNL     1       7.830  -5.065  26.225  0.00  0.00    +0.000 C 
BRANCH  20  21
ATOM     21  C   UNL     1       6.457  -4.773  25.613  0.00  0.00    +0.000 C 
BRANCH  21  22
ATOM     22  C   UNL     1       6.245  -5.642  24.373  0.00  0.00    +0.001 C 
BRANCH  22  23
ATOM     23  C   UNL     1       7.449  -5.616  23.434  0.00  0.00    +0.011 C 
BRANCH  23  24
ATOM     24  C   UNL     1       7.377  -4.411  22.499  0.00  0.00    +0.120 C 
BRANCH  24  25
ATOM     25  C   UNL     1       6.207  -4.491  21.555  0.00  0.00    +0.307 C 
ATOM     26  O   UNL     1       6.068  -5.315  20.657  0.00  0.00    -0.251 OA
BRANCH  25  27
ATOM     27  O   UNL     1       5.318  -3.499  21.848  0.00  0.00    -0.468 OA
ATOM     28  C   UNL     1       5.872  -2.429  22.612  0.00  0.00    +0.280 C 
ENDBRANCH  25  27
ENDBRANCH  24  25
ENDBRANCH  23  24
ENDBRANCH  22  23
ENDBRANCH  21  22
ENDBRANCH  20  21
ENDBRANCH  19  20
ENDBRANCH  18  19
ENDBRANCH  17  18
ENDBRANCH  16  17
ENDBRANCH   3  16
TORSDOF 16
ENDMDL
MODEL 4
REMARK VINA RESULT:      -5.2      1.936      2.672
REMARK  Name = 
REMARK  17 active torsions:
REMARK  status: ('A' for Active; 'I' for Inactive)
REMARK    1  A    between atoms: C_2  and  O_3
REMARK    2  A    between atoms: C_4  and  O_6
REMARK    3  A    between atoms: C_7  and  C_9
REMARK    4  A    between atoms: C_9  and  O_10
REMARK    5  A    between atoms: C_12  and  O_14
REMARK    6  A    between atoms: O_14  and  C_15
REMARK    7  A    between atoms: C_15  and  C_16
REMARK    8  A    between atoms: C_16  and  C_17
REMARK    9  A    between atoms: C_17  and  C_18
REMARK   10  A    between atoms: C_18  and  C_19
REMARK   11  A    between atoms: C_19  and  C_20
REMARK   12  A    between atoms: C_20  and  C_21
REMARK   13  A    between atoms: C_21  and  C_22
REMARK   14  A    between atoms: C_22  and  C_23
REMARK   15  A    between atoms: C_23  and  O_25
REMARK   16  A    between atoms: O_25  and  C_26
REMARK   17  A    between atoms: C_27  and  O_29
REMARK                            x       y       z     vdW  Elec       q    Type
REMARK                         _______ _______ _______ _____ _____    ______ ____
ROOT
ATOM      1  C   UNL     1       6.670  -4.265  25.836  0.00  0.00    +0.179 C 
ATOM      2  C   UNL     1       8.128  -4.390  26.281  0.00  0.00    +0.201 C 
ATOM      3  C   UNL     1       9.094  -4.140  25.111  0.00  0.00    +0.282 C 
ATOM      4  O   UNL     1       8.835  -5.030  24.025  0.00  0.00    -0.341 OA
ATOM      5  C   UNL     1       7.473  -5.166  23.555  0.00  0.00    +0.178 C 
ATOM      6  C   UNL     1       6.393  -5.201  24.658  0.00  0.00    +0.177 C 
ENDROOT
BRANCH   1   7
ATOM      7  O   UNL     1       6.287  -2.936  25.480  0.00  0.00    -0.386 OA
ATOM      8  H   UNL     1       6.679  -2.319  26.127  0.00  0.00    +0.210 HD
ENDBRANCH   1   7
BRANCH   6   9
ATOM      9  O   UNL     1       5.076  -4.998  24.136  0.00  0.00    -0.386 OA
ATOM     10  H   UNL     1       4.577  -4.510  24.823  0.00  0.00    +0.210 HD
ENDBRANCH   6   9
BRANCH   2  11
ATOM     11  O   UNL     1       8.343  -5.704  26.823  0.00  0.00    -0.384 OA
ATOM     12  H   UNL     1       8.612  -5.605  27.758  0.00  0.00    +0.210 HD
ENDBRANCH   2  11
BRANCH   5  13
ATOM     13  C   UNL     1       7.194  -4.220  22.384  0.00  0.00    +0.190 C 
BRANCH  13  14
ATOM     14  O   UNL     1       6.825  -2.929  22.891  0.00  0.00    -0.392 OA
ATOM     15  H   UNL     1       7.002  -2.956  23.849  0.00  0.00    +0.210 HD
ENDBRANCH  13  14
ENDBRANCH   5  13
BRANCH   3  16
ATOM     16  O   UNL     1       9.149  -2.756  24.751  0.00  0.00    -0.349 OA
BRANCH  16  17
ATOM     17  C   UNL     1      10.159  -2.514  23.763  0.00  0.00    +0.163 C 
BRANCH  17  18
ATOM     18  C   UNL     1      10.077  -1.094  23.201  0.00  0.00    +0.028 C 
BRANCH  18  19
ATOM     19  C   UNL     1       9.602  -0.979  21.744  0.00  0.00    +0.002 C 
BRANCH  19  20
ATOM     20  C   UNL     1       9.202   0.444  21.347  0.00  0.00    +0.000 C 
BRANCH  20  21
ATOM     21  C   UNL     1       9.912   1.511  22.185  0.00  0.00    +0.000 C 
BRANCH  21  22
ATOM     22  C   UNL     1       8.887   2.494  22.752  0.00  0.00    +0.001 C 
BRANCH  22  23
ATOM     23  C   UNL     1       8.409   2.094  24.145  0.00  0.00    +0.011 C 
BRANCH  23  24
ATOM     24  C   UNL     1       6.883   2.100  24.214  0.00  0.00    +0.120 C 
BRANCH  24  25
ATOM     25  C   UNL     1       6.315   0.718  24.392  0.00  0.00    +0.307 C 
ATOM     26  O   UNL     1       6.888  -0.332  24.118  0.00  0.00    -0.251 OA
BRANCH  25  27
ATOM     27  O   UNL     1       5.054   0.807  24.904  0.00  0.00    -0.468 OA
ATOM     28  C   UNL     1       4.934   0.316  26.238  0.00  0.00    +0.280 C 
ENDBRANCH  25  27
ENDBRANCH  24  25
ENDBRANCH  23  24
ENDBRANCH  22  23
ENDBRANCH  21  22
ENDBRANCH  20  21
ENDBRANCH  19  20
ENDBRANCH  18  19
ENDBRANCH  17  18
ENDBRANCH  16  17
ENDBRANCH   3  16
TORSDOF 16
ENDMDL
MODEL 5
REMARK VINA RESULT:      -5.2      2.105      3.771
REMARK  Name = 
REMARK  17 active torsions:
REMARK  status: ('A' for Active; 'I' for Inactive)
REMARK    1  A    between atoms: C_2  and  O_3
REMARK    2  A    between atoms: C_4  and  O_6
REMARK    3  A    between atoms: C_7  and  C_9
REMARK    4  A    between atoms: C_9  and  O_10
REMARK    5  A    between atoms: C_12  and  O_14
REMARK    6  A    between atoms: O_14  and  C_15
REMARK    7  A    between atoms: C_15  and  C_16
REMARK    8  A    between atoms: C_16  and  C_17
REMARK    9  A    between atoms: C_17  and  C_18
REMARK   10  A    between atoms: C_18  and  C_19
REMARK   11  A    between atoms: C_19  and  C_20
REMARK   12  A    between atoms: C_20  and  C_21
REMARK   13  A    between atoms: C_21  and  C_22
REMARK   14  A    between atoms: C_22  and  C_23
REMARK   15  A    between atoms: C_23  and  O_25
REMARK   16  A    between atoms: O_25  and  C_26
REMARK   17  A    between atoms: C_27  and  O_29
REMARK                            x       y       z     vdW  Elec       q    Type
REMARK                         _______ _______ _______ _____ _____    ______ ____
ROOT
ATOM      1  C   UNL     1       8.379  -5.260  24.196  0.00  0.00    +0.179 C 
ATOM      2  C   UNL     1       7.550  -4.697  23.041  0.00  0.00    +0.201 C 
ATOM      3  C   UNL     1       6.858  -3.382  23.437  0.00  0.00    +0.282 C 
ATOM      4  O   UNL     1       6.035  -3.555  24.590  0.00  0.00    -0.341 OA
ATOM      5  C   UNL     1       6.601  -4.214  25.748  0.00  0.00    +0.178 C 
ATOM      6  C   UNL     1       7.506  -5.428  25.441  0.00  0.00    +0.177 C 
ENDROOT
BRANCH   1   7
ATOM      7  O   UNL     1       9.522  -4.469  24.527  0.00  0.00    -0.386 OA
ATOM      8  H   UNL     1       9.551  -3.704  23.921  0.00  0.00    +0.210 HD
ENDBRANCH   1   7
BRANCH   6   9
ATOM      9  O   UNL     1       8.292  -5.820  26.573  0.00  0.00    -0.386 OA
ATOM     10  H   UNL     1       7.707  -6.361  27.142  0.00  0.00    +0.210 HD
ENDBRANCH   6   9
BRANCH   2  11
ATOM     11  O   UNL     1       6.568  -5.670  22.648  0.00  0.00    -0.384 OA
ATOM     12  H   UNL     1       6.243  -5.430  21.758  0.00  0.00    +0.210 HD
ENDBRANCH   2  11
BRANCH   5  13
ATOM     13  C   UNL     1       7.170  -3.197  26.742  0.00  0.00    +0.190 C 
BRANCH  13  14
ATOM     14  O   UNL     1       8.497  -2.828  26.340  0.00  0.00    -0.392 OA
ATOM     15  H   UNL     1       8.393  -2.069  25.736  0.00  0.00    +0.210 HD
ENDBRANCH  13  14
ENDBRANCH   5  13
BRANCH   3  16
ATOM     16  O   UNL     1       7.785  -2.295  23.521  0.00  0.00    -0.349 OA
BRANCH  16  17
ATOM     17  C   UNL     1       8.265  -1.917  22.224  0.00  0.00    +0.163 C 
BRANCH  17  18
ATOM     18  C   UNL     1       9.759  -1.591  22.242  0.00  0.00    +0.028 C 
BRANCH  18  19
ATOM     19  C   UNL     1      10.124  -0.116  22.010  0.00  0.00    +0.002 C 
BRANCH  19  20
ATOM     20  C   UNL     1       8.988   0.699  21.388  0.00  0.00    +0.000 C 
BRANCH  20  21
ATOM     21  C   UNL     1       8.885   2.110  21.974  0.00  0.00    +0.000 C 
BRANCH  21  22
ATOM     22  C   UNL     1       9.899   2.277  23.107  0.00  0.00    +0.001 C 
BRANCH  22  23
ATOM     23  C   UNL     1       9.229   2.570  24.446  0.00  0.00    +0.011 C 
BRANCH  23  24
ATOM     24  C   UNL     1       8.140   1.541  24.742  0.00  0.00    +0.120 C 
BRANCH  24  25
ATOM     25  C   UNL     1       8.632   0.430  25.629  0.00  0.00    +0.307 C 
ATOM     26  O   UNL     1       9.684  -0.186  25.489  0.00  0.00    -0.251 OA
BRANCH  25  27
ATOM     27  O   UNL     1       7.724   0.204  26.622  0.00  0.00    -0.468 OA
ATOM     28  C   UNL     1       6.720   1.212  26.731  0.00  0.00    +0.280 C 
ENDBRANCH  25  27
ENDBRANCH  24  25
ENDBRANCH  23  24
ENDBRANCH  22  23
ENDBRANCH  21  22
ENDBRANCH  20  21
ENDBRANCH  19  20
ENDBRANCH  18  19
ENDBRANCH  17  18
ENDBRANCH  16  17
ENDBRANCH   3  16
TORSDOF 16
ENDMDL
MODEL 6
REMARK VINA RESULT:      -5.1      1.516      2.444
REMARK  Name = 
REMARK  17 active torsions:
REMARK  status: ('A' for Active; 'I' for Inactive)
REMARK    1  A    between atoms: C_2  and  O_3
REMARK    2  A    between atoms: C_4  and  O_6
REMARK    3  A    between atoms: C_7  and  C_9
REMARK    4  A    between atoms: C_9  and  O_10
REMARK    5  A    between atoms: C_12  and  O_14
REMARK    6  A    between atoms: O_14  and  C_15
REMARK    7  A    between atoms: C_15  and  C_16
REMARK    8  A    between atoms: C_16  and  C_17
REMARK    9  A    between atoms: C_17  and  C_18
REMARK   10  A    between atoms: C_18  and  C_19
REMARK   11  A    between atoms: C_19  and  C_20
REMARK   12  A    between atoms: C_20  and  C_21
REMARK   13  A    between atoms: C_21  and  C_22
REMARK   14  A    between atoms: C_22  and  C_23
REMARK   15  A    between atoms: C_23  and  O_25
REMARK   16  A    between atoms: O_25  and  C_26
REMARK   17  A    between atoms: C_27  and  O_29
REMARK                            x       y       z     vdW  Elec       q    Type
REMARK                         _______ _______ _______ _____ _____    ______ ____
ROOT
ATOM      1  C   UNL     1       5.014  -4.822  24.241  0.00  0.00    +0.179 C 
ATOM      2  C   UNL     1       6.341  -4.613  24.970  0.00  0.00    +0.201 C 
ATOM      3  C   UNL     1       7.502  -4.427  23.978  0.00  0.00    +0.282 C 
ATOM      4  O   UNL     1       7.603  -5.535  23.084  0.00  0.00    -0.341 OA
ATOM      5  C   UNL     1       6.406  -5.985  22.406  0.00  0.00    +0.178 C 
ATOM      6  C   UNL     1       5.123  -5.995  23.266  0.00  0.00    +0.177 C 
ENDROOT
BRANCH   1   7
ATOM      7  O   UNL     1       4.553  -3.667  23.536  0.00  0.00    -0.386 OA
ATOM      8  H   UNL     1       5.312  -3.272  23.066  0.00  0.00    +0.210 HD
ENDBRANCH   1   7
BRANCH   6   9
ATOM      9  O   UNL     1       3.938  -6.119  22.472  0.00  0.00    -0.386 OA
ATOM     10  H   UNL     1       3.967  -7.009  22.065  0.00  0.00    +0.210 HD
ENDBRANCH   6   9
BRANCH   2  11
ATOM     11  O   UNL     1       6.596  -5.746  25.817  0.00  0.00    -0.384 OA
ATOM     12  H   UNL     1       7.367  -5.536  26.379  0.00  0.00    +0.210 HD
ENDBRANCH   2  11
BRANCH   5  13
ATOM     13  C   UNL     1       6.274  -5.337  21.025  0.00  0.00    +0.190 C 
BRANCH  13  14
ATOM     14  O   UNL     1       5.744  -4.011  21.169  0.00  0.00    -0.392 OA
ATOM     15  H   UNL     1       6.224  -3.458  20.525  0.00  0.00    +0.210 HD
ENDBRANCH  13  14
ENDBRANCH   5  13
BRANCH   3  16
ATOM     16  O   UNL     1       7.460  -3.146  23.341  0.00  0.00    -0.349 OA
BRANCH  16  17
ATOM     17  C   UNL     1       7.616  -2.085  24.292  0.00  0.00    +0.163 C 
BRANCH  17  18
ATOM     18  C   UNL     1       6.820  -0.841  23.894  0.00  0.00    +0.028 C 
BRANCH  18  19
ATOM     19  C   UNL     1       7.128   0.433  24.696  0.00  0.00    +0.002 C 
BRANCH  19  20
ATOM     20  C   UNL     1       6.511   1.696  24.088  0.00  0.00    +0.000 C 
BRANCH  20  21
ATOM     21  C   UNL     1       6.515   1.675  22.558  0.00  0.00    +0.000 C 
BRANCH  21  22
ATOM     22  C   UNL     1       7.754   2.400  22.031  0.00  0.00    +0.001 C 
BRANCH  22  23
ATOM     23  C   UNL     1       8.695   1.465  21.275  0.00  0.00    +0.011 C 
BRANCH  23  24
ATOM     24  C   UNL     1       9.978   1.233  22.071  0.00  0.00    +0.120 C 
BRANCH  24  25
ATOM     25  C   UNL     1      10.146  -0.207  22.474  0.00  0.00    +0.307 C 
ATOM     26  O   UNL     1       9.872  -1.181  21.780  0.00  0.00    -0.251 OA
BRANCH  25  27
ATOM     27  O   UNL     1      10.650  -0.270  23.740  0.00  0.00    -0.468 OA
ATOM     28  C   UNL     1      10.789   1.001  24.373  0.00  0.00    +0.280 C 
ENDBRANCH  25  27
ENDBRANCH  24  25
ENDBRANCH  23  24
ENDBRANCH  22  23
ENDBRANCH  21  22
ENDBRANCH  20  21
ENDBRANCH  19  20
ENDBRANCH  18  19
ENDBRANCH  17  18
ENDBRANCH  16  17
ENDBRANCH   3  16
TORSDOF 16
ENDMDL
MODEL 7
REMARK VINA RESULT:      -5.1      2.105      7.397
REMARK  Name = 
REMARK  17 active torsions:
REMARK  status: ('A' for Active; 'I' for Inactive)
REMARK    1  A    between atoms: C_2  and  O_3
REMARK    2  A    between atoms: C_4  and  O_6
REMARK    3  A    between atoms: C_7  and  C_9
REMARK    4  A    between atoms: C_9  and  O_10
REMARK    5  A    between atoms: C_12  and  O_14
REMARK    6  A    between atoms: O_14  and  C_15
REMARK    7  A    between atoms: C_15  and  C_16
REMARK    8  A    between atoms: C_16  and  C_17
REMARK    9  A    between atoms: C_17  and  C_18
REMARK   10  A    between atoms: C_18  and  C_19
REMARK   11  A    between atoms: C_19  and  C_20
REMARK   12  A    between atoms: C_20  and  C_21
REMARK   13  A    between atoms: C_21  and  C_22
REMARK   14  A    between atoms: C_22  and  C_23
REMARK   15  A    between atoms: C_23  and  O_25
REMARK   16  A    between atoms: O_25  and  C_26
REMARK   17  A    between atoms: C_27  and  O_29
REMARK                            x       y       z     vdW  Elec       q    Type
REMARK                         _______ _______ _______ _____ _____    ______ ____
ROOT
ATOM      1  C   UNL     1       8.013   1.955  21.888  0.00  0.00    +0.179 C 
ATOM      2  C   UNL     1       9.425   1.622  22.370  0.00  0.00    +0.201 C 
ATOM      3  C   UNL     1       9.610   1.980  23.854  0.00  0.00    +0.282 C 
ATOM      4  O   UNL     1       9.323   3.357  24.095  0.00  0.00    -0.341 OA
ATOM      5  C   UNL     1       8.087   3.905  23.578  0.00  0.00    +0.178 C 
ATOM      6  C   UNL     1       7.692   3.426  22.164  0.00  0.00    +0.177 C 
ENDROOT
BRANCH   1   7
ATOM      7  O   UNL     1       6.996   1.137  22.468  0.00  0.00    -0.386 OA
ATOM      8  H   UNL     1       7.284   0.205  22.414  0.00  0.00    +0.210 HD
ENDBRANCH   1   7
BRANCH   6   9
ATOM      9  O   UNL     1       6.327   3.724  21.851  0.00  0.00    -0.386 OA
ATOM     10  H   UNL     1       6.280   4.691  21.706  0.00  0.00    +0.210 HD
ENDBRANCH   6   9
BRANCH   2  11
ATOM     11  O   UNL     1      10.378   2.342  21.568  0.00  0.00    -0.384 OA
ATOM     12  H   UNL     1       9.899   3.048  21.092  0.00  0.00    +0.210 HD
ENDBRANCH   2  11
BRANCH   5  13
ATOM     13  C   UNL     1       6.976   3.853  24.630  0.00  0.00    +0.190 C 
BRANCH  13  14
ATOM     14  O   UNL     1       6.466   2.515  24.721  0.00  0.00    -0.392 OA
ATOM     15  H   UNL     1       7.036   1.971  24.147  0.00  0.00    +0.210 HD
ENDBRANCH  13  14
ENDBRANCH   5  13
BRANCH   3  16
ATOM     16  O   UNL     1       8.923   1.066  24.713  0.00  0.00    -0.349 OA
BRANCH  16  17
ATOM     17  C   UNL     1       9.769  -0.026  25.097  0.00  0.00    +0.163 C 
BRANCH  17  18
ATOM     18  C   UNL     1       9.225  -1.369  24.605  0.00  0.00    +0.028 C 
BRANCH  18  19
ATOM     19  C   UNL     1       9.858  -1.912  23.314  0.00  0.00    +0.002 C 
BRANCH  19  20
ATOM     20  C   UNL     1       8.851  -2.094  22.176  0.00  0.00    +0.000 C 
BRANCH  20  21
ATOM     21  C   UNL     1       7.407  -2.183  22.675  0.00  0.00    +0.000 C 
BRANCH  21  22
ATOM     22  C   UNL     1       6.730  -3.423  22.090  0.00  0.00    +0.001 C 
BRANCH  22  23
ATOM     23  C   UNL     1       7.277  -4.718  22.684  0.00  0.00    +0.011 C 
BRANCH  23  24
ATOM     24  C   UNL     1       6.685  -4.967  24.070  0.00  0.00    +0.120 C 
BRANCH  24  25
ATOM     25  C   UNL     1       7.746  -5.256  25.098  0.00  0.00    +0.307 C 
ATOM     26  O   UNL     1       7.549  -5.711  26.221  0.00  0.00    -0.251 OA
BRANCH  25  27
ATOM     27  O   UNL     1       8.970  -4.931  24.593  0.00  0.00    -0.468 OA
ATOM     28  C   UNL     1      10.043  -5.093  25.519  0.00  0.00    +0.280 C 
ENDBRANCH  25  27
ENDBRANCH  24  25
ENDBRANCH  23  24
ENDBRANCH  22  23
ENDBRANCH  21  22
ENDBRANCH  20  21
ENDBRANCH  19  20
ENDBRANCH  18  19
ENDBRANCH  17  18
ENDBRANCH  16  17
ENDBRANCH   3  16
TORSDOF 16
ENDMDL
MODEL 8
REMARK VINA RESULT:      -5.1      1.528      2.248
REMARK  Name = 
REMARK  17 active torsions:
REMARK  status: ('A' for Active; 'I' for Inactive)
REMARK    1  A    between atoms: C_2  and  O_3
REMARK    2  A    between atoms: C_4  and  O_6
REMARK    3  A    between atoms: C_7  and  C_9
REMARK    4  A    between atoms: C_9  and  O_10
REMARK    5  A    between atoms: C_12  and  O_14
REMARK    6  A    between atoms: O_14  and  C_15
REMARK    7  A    between atoms: C_15  and  C_16
REMARK    8  A    between atoms: C_16  and  C_17
REMARK    9  A    between atoms: C_17  and  C_18
REMARK   10  A    between atoms: C_18  and  C_19
REMARK   11  A    between atoms: C_19  and  C_20
REMARK   12  A    between atoms: C_20  and  C_21
REMARK   13  A    between atoms: C_21  and  C_22
REMARK   14  A    between atoms: C_22  and  C_23
REMARK   15  A    between atoms: C_23  and  O_25
REMARK   16  A    between atoms: O_25  and  C_26
REMARK   17  A    between atoms: C_27  and  O_29
REMARK                            x       y       z     vdW  Elec       q    Type
REMARK                         _______ _______ _______ _____ _____    ______ ____
ROOT
ATOM      1  C   UNL     1       5.166  -4.748  24.094  0.00  0.00    +0.179 C 
ATOM      2  C   UNL     1       6.531  -4.512  24.741  0.00  0.00    +0.201 C 
ATOM      3  C   UNL     1       7.648  -4.452  23.686  0.00  0.00    +0.282 C 
ATOM      4  O   UNL     1       7.679  -5.640  22.896  0.00  0.00    -0.341 OA
ATOM      5  C   UNL     1       6.441  -6.116  22.316  0.00  0.00    +0.178 C 
ATOM      6  C   UNL     1       5.200  -6.009  23.229  0.00  0.00    +0.177 C 
ENDROOT
BRANCH   1   7
ATOM      7  O   UNL     1       4.702  -3.651  23.306  0.00  0.00    -0.386 OA
ATOM      8  H   UNL     1       4.916  -2.822  23.777  0.00  0.00    +0.210 HD
ENDBRANCH   1   7
BRANCH   6   9
ATOM      9  O   UNL     1       3.976  -6.171  22.503  0.00  0.00    -0.386 OA
ATOM     10  H   UNL     1       4.174  -6.771  21.756  0.00  0.00    +0.210 HD
ENDBRANCH   6   9
BRANCH   2  11
ATOM     11  O   UNL     1       6.797  -5.569  25.678  0.00  0.00    -0.384 OA
ATOM     12  H   UNL     1       6.460  -6.403  25.297  0.00  0.00    +0.210 HD
ENDBRANCH   2  11
BRANCH   5  13
ATOM     13  C   UNL     1       6.261  -5.594  20.888  0.00  0.00    +0.190 C 
BRANCH  13  14
ATOM     14  O   UNL     1       5.777  -4.243  20.931  0.00  0.00    -0.392 OA
ATOM     15  H   UNL     1       6.371  -3.765  21.538  0.00  0.00    +0.210 HD
ENDBRANCH  13  14
ENDBRANCH   5  13
BRANCH   3  16
ATOM     16  O   UNL     1       7.608  -3.235  22.935  0.00  0.00    -0.349 OA
BRANCH  16  17
ATOM     17  C   UNL     1       7.757  -2.091  23.786  0.00  0.00    +0.163 C 
BRANCH  17  18
ATOM     18  C   UNL     1       9.111  -1.407  23.591  0.00  0.00    +0.028 C 
BRANCH  18  19
ATOM     19  C   UNL     1       9.738  -1.553  22.195  0.00  0.00    +0.002 C 
BRANCH  19  20
ATOM     20  C   UNL     1       9.456  -0.362  21.276  0.00  0.00    +0.000 C 
BRANCH  20  21
ATOM     21  C   UNL     1       8.941   0.862  22.039  0.00  0.00    +0.000 C 
BRANCH  21  22
ATOM     22  C   UNL     1      10.061   1.893  22.184  0.00  0.00    +0.001 C 
BRANCH  22  23
ATOM     23  C   UNL     1      10.373   2.209  23.644  0.00  0.00    +0.011 C 
BRANCH  23  24
ATOM     24  C   UNL     1       9.366   3.208  24.208  0.00  0.00    +0.120 C 
BRANCH  24  25
ATOM     25  C   UNL     1       9.680   4.624  23.803  0.00  0.00    +0.307 C 
ATOM     26  O   UNL     1      10.802   5.116  23.737  0.00  0.00    -0.251 OA
BRANCH  25  27
ATOM     27  O   UNL     1       8.521   5.285  23.522  0.00  0.00    -0.468 OA
ATOM     28  C   UNL     1       7.505   4.460  22.954  0.00  0.00    +0.280 C 
ENDBRANCH  25  27
ENDBRANCH  24  25
ENDBRANCH  23  24
ENDBRANCH  22  23
ENDBRANCH  21  22
ENDBRANCH  20  21
ENDBRANCH  19  20
ENDBRANCH  18  19
ENDBRANCH  17  18
ENDBRANCH  16  17
ENDBRANCH   3  16
TORSDOF 16
ENDMDL
MODEL 9
REMARK VINA RESULT:      -5.1      2.025      2.816
REMARK  Name = 
REMARK  17 active torsions:
REMARK  status: ('A' for Active; 'I' for Inactive)
REMARK    1  A    between atoms: C_2  and  O_3
REMARK    2  A    between atoms: C_4  and  O_6
REMARK    3  A    between atoms: C_7  and  C_9
REMARK    4  A    between atoms: C_9  and  O_10
REMARK    5  A    between atoms: C_12  and  O_14
REMARK    6  A    between atoms: O_14  and  C_15
REMARK    7  A    between atoms: C_15  and  C_16
REMARK    8  A    between atoms: C_16  and  C_17
REMARK    9  A    between atoms: C_17  and  C_18
REMARK   10  A    between atoms: C_18  and  C_19
REMARK   11  A    between atoms: C_19  and  C_20
REMARK   12  A    between atoms: C_20  and  C_21
REMARK   13  A    between atoms: C_21  and  C_22
REMARK   14  A    between atoms: C_22  and  C_23
REMARK   15  A    between atoms: C_23  and  O_25
REMARK   16  A    between atoms: O_25  and  C_26
REMARK   17  A    between atoms: C_27  and  O_29
REMARK                            x       y       z     vdW  Elec       q    Type
REMARK                         _______ _______ _______ _____ _____    ______ ____
ROOT
ATOM      1  C   UNL     1       5.065  -4.917  24.326  0.00  0.00    +0.179 C 
ATOM      2  C   UNL     1       6.399  -4.724  25.049  0.00  0.00    +0.201 C 
ATOM      3  C   UNL     1       7.547  -4.491  24.053  0.00  0.00    +0.282 C 
ATOM      4  O   UNL     1       7.648  -5.564  23.117  0.00  0.00    -0.341 OA
ATOM      5  C   UNL     1       6.449  -5.999  22.435  0.00  0.00    +0.178 C 
ATOM      6  C   UNL     1       5.174  -6.052  23.306  0.00  0.00    +0.177 C 
ENDROOT
BRANCH   1   7
ATOM      7  O   UNL     1       4.588  -3.741  23.669  0.00  0.00    -0.386 OA
ATOM      8  H   UNL     1       5.078  -2.973  24.020  0.00  0.00    +0.210 HD
ENDBRANCH   1   7
BRANCH   6   9
ATOM      9  O   UNL     1       3.982  -6.156  22.520  0.00  0.00    -0.386 OA
ATOM     10  H   UNL     1       3.373  -5.463  22.846  0.00  0.00    +0.210 HD
ENDBRANCH   6   9
BRANCH   2  11
ATOM     11  O   UNL     1       6.671  -5.885  25.850  0.00  0.00    -0.384 OA
ATOM     12  H   UNL     1       6.638  -5.619  26.790  0.00  0.00    +0.210 HD
ENDBRANCH   2  11
BRANCH   5  13
ATOM     13  C   UNL     1       6.298  -5.300  21.080  0.00  0.00    +0.190 C 
BRANCH  13  14
ATOM     14  O   UNL     1       5.750  -3.989  21.279  0.00  0.00    -0.392 OA
ATOM     15  H   UNL     1       5.911  -3.769  22.214  0.00  0.00    +0.210 HD
ENDBRANCH  13  14
ENDBRANCH   5  13
BRANCH   3  16
ATOM     16  O   UNL     1       7.488  -3.188  23.465  0.00  0.00    -0.349 OA
BRANCH  16  17
ATOM     17  C   UNL     1       7.791  -2.168  24.426  0.00  0.00    +0.163 C 
BRANCH  17  18
ATOM     18  C   UNL     1       9.071  -1.411  24.070  0.00  0.00    +0.028 C 
BRANCH  18  19
ATOM     19  C   UNL     1       9.741  -1.816  22.748  0.00  0.00    +0.002 C 
BRANCH  19  20
ATOM     20  C   UNL     1       9.787  -0.684  21.719  0.00  0.00    +0.000 C 
BRANCH  20  21
ATOM     21  C   UNL     1       9.068   0.579  22.200  0.00  0.00    +0.000 C 
BRANCH  21  22
ATOM     22  C   UNL     1      10.000   1.786  22.081  0.00  0.00    +0.001 C 
BRANCH  22  23
ATOM     23  C   UNL     1      10.389   2.355  23.443  0.00  0.00    +0.011 C 
BRANCH  23  24
ATOM     24  C   UNL     1       9.816   3.759  23.624  0.00  0.00    +0.120 C 
BRANCH  24  25
ATOM     25  C   UNL     1      10.893   4.802  23.757  0.00  0.00    +0.307 C 
ATOM     26  O   UNL     1      10.752   5.918  24.246  0.00  0.00    -0.251 OA
BRANCH  25  27
ATOM     27  O   UNL     1      12.061   4.317  23.244  0.00  0.00    -0.468 OA
ATOM     28  C   UNL     1      12.919   5.320  22.705  0.00  0.00    +0.280 C 
ENDBRANCH  25  27
ENDBRANCH  24  25
ENDBRANCH  23  24
ENDBRANCH  22  23
ENDBRANCH  21  22
ENDBRANCH  20  21
ENDBRANCH  19  20
ENDBRANCH  18  19
ENDBRANCH  17  18
ENDBRANCH  16  17
ENDBRANCH   3  16
TORSDOF 16
ENDMDL
