MODEL 1
REMARK VINA RESULT:      -5.4      0.000      0.000
REMARK  Name = 
REMARK  16 active torsions:
REMARK  status: ('A' for Active; 'I' for Inactive)
REMARK    1  A    between atoms: O_1  and  C_2
REMARK    2  A    between atoms: C_2  and  C_4
REMARK    3  A    between atoms: C_2  and  C_10
REMARK    4  A    between atoms: C_4  and  O_5
REMARK    5  A    between atoms: O_5  and  P_6
REMARK    6  A    between atoms: P_6  and  O_7
REMARK    7  A    between atoms: P_6  and  O_8
REMARK    8  A    between atoms: C_10  and  O_12
REMARK    9  A    between atoms: C_10  and  C_13
REMARK   10  A    between atoms: C_13  and  O_15
REMARK   11  A    between atoms: C_13  and  C_16
REMARK   12  A    between atoms: C_16  and  C_18
REMARK   13  A    between atoms: C_18  and  O_19
REMARK   14  A    between atoms: O_19  and  P_20
REMARK   15  A    between atoms: P_20  and  O_21
REMARK   16  A    between atoms: P_20  and  O_22
REMARK                            x       y       z     vdW  Elec       q    Type
REMARK                         _______ _______ _______ _____ _____    ______ ____
ROOT
ATOM      1  C   UNL     1      10.638   0.424  23.396  0.00  0.00    +0.181 C 
ENDROOT
BRANCH   1   2
ATOM      2  O   UNL     1      10.737   0.584  24.831  0.00  0.00    -0.386 OA
ATOM      3  H   UNL     1      10.370   1.443  25.093  0.00  0.00    +0.210 HD
ENDBRANCH   1   2
BRANCH   1   4
ATOM      4  C   UNL     1       9.761   1.582  22.896  0.00  0.00    +0.214 C 
BRANCH   4   5
ATOM      5  O   UNL     1      10.149   2.045  21.608  0.00  0.00    -0.382 OA
ATOM      6  H   UNL     1      10.666   2.861  21.734  0.00  0.00    +0.210 HD
ENDBRANCH   4   5
BRANCH   4   7
ATOM      7  C   UNL     1       9.664   2.736  23.892  0.00  0.00    +0.190 C 
ATOM      8  O   UNL     1       8.969   2.674  24.907  0.00  0.00    -0.292 OA
BRANCH   7   9
ATOM      9  C   UNL     1      10.388   4.008  23.471  0.00  0.00    +0.249 C 
BRANCH   9  10
ATOM     10  O   UNL     1      11.785   3.907  23.384  0.00  0.00    -0.279 OA
BRANCH  10  11
ATOM     11  P   UNL     1      12.650   5.241  23.223  0.00  0.00    +0.473 P 
ATOM     12  O   UNL     1      12.318   6.395  24.094  0.00  0.00    -0.228 OA
BRANCH  11  13
ATOM     13  O   UNL     1      12.533   5.561  21.664  0.00  0.00    -0.303 OA
ATOM     14  H   UNL     1      12.149   6.445  21.521  0.00  0.00    +0.222 HD
ENDBRANCH  11  13
BRANCH  11  15
ATOM     15  O   UNL     1      14.170   4.768  23.366  0.00  0.00    -0.303 OA
ATOM     16  H   UNL     1      14.328   3.961  22.841  0.00  0.00    +0.222 HD
ENDBRANCH  11  15
ENDBRANCH  10  11
ENDBRANCH   9  10
ENDBRANCH   7   9
ENDBRANCH   4   7
ENDBRANCH   1   4
BRANCH   1  17
ATOM     17  C   UNL     1      10.169  -1.012  23.038  0.00  0.00    +0.172 C 
BRANCH  17  18
ATOM     18  O   UNL     1      10.044  -1.197  21.624  0.00  0.00    -0.387 OA
ATOM     19  H   UNL     1      10.885  -0.930  21.214  0.00  0.00    +0.210 HD
ENDBRANCH  17  18
BRANCH  17  20
ATOM     20  C   UNL     1       8.808  -1.259  23.706  0.00  0.00    +0.206 C 
BRANCH  20  21
ATOM     21  O   UNL     1       8.927  -1.810  25.005  0.00  0.00    -0.284 OA
BRANCH  21  22
ATOM     22  P   UNL     1       8.122  -1.047  26.163  0.00  0.00    +0.472 P 
ATOM     23  O   UNL     1       7.062  -1.819  26.874  0.00  0.00    -0.228 OA
BRANCH  22  24
ATOM     24  O   UNL     1       7.559   0.285  25.474  0.00  0.00    -0.303 OA
ATOM     25  H   UNL     1       7.358   0.952  26.155  0.00  0.00    +0.222 HD
ENDBRANCH  22  24
BRANCH  22  26
ATOM     26  O   UNL     1       9.254  -0.484  27.145  0.00  0.00    -0.303 OA
ATOM     27  H   UNL     1       9.605   0.361  26.808  0.00  0.00    +0.222 HD
ENDBRANCH  22  26
ENDBRANCH  21  22
ENDBRANCH  20  21
ENDBRANCH  17  20
ENDBRANCH   1  17
TORSDOF 16
ENDMDL
MODEL 2
REMARK VINA RESULT:      -5.4      2.525      7.067
REMARK  Name = 
REMARK  16 active torsions:
REMARK  status: ('A' for Active; 'I' for Inactive)
REMARK    1  A    between atoms: O_1  and  C_2
REMARK    2  A    between atoms: C_2  and  C_4
REMARK    3  A    between atoms: C_2  and  C_10
REMARK    4  A    between atoms: C_4  and  O_5
REMARK    5  A    between atoms: O_5  and  P_6
REMARK    6  A    between atoms: P_6  and  O_7
REMARK    7  A    between atoms: P_6  and  O_8
REMARK    8  A    between atoms: C_10  and  O_12
REMARK    9  A    between atoms: C_10  and  C_13
REMARK   10  A    between atoms: C_13  and  O_15
REMARK   11  A    between atoms: C_13  and  C_16
REMARK   12  A    between atoms: C_16  and  C_18
REMARK   13  A    between atoms: C_18  and  O_19
REMARK   14  A    between atoms: O_19  and  P_20
REMARK   15  A    between atoms: P_20  and  O_21
REMARK   16  A    between atoms: P_20  and  O_22
REMARK                            x       y       z     vdW  Elec       q    Type
REMARK                         _______ _______ _______ _____ _____    ______ ____
ROOT
ATOM      1  C   UNL     1       8.435  -1.531  22.975  0.00  0.00    +0.181 C 
ENDROOT
BRANCH   1   2
ATOM      2  O   UNL     1       7.486  -0.594  23.537  0.00  0.00    -0.386 OA
ATOM      3  H   UNL     1       6.724  -1.075  23.899  0.00  0.00    +0.210 HD
ENDBRANCH   1   2
BRANCH   1   4
ATOM      4  C   UNL     1       9.428  -1.862  24.099  0.00  0.00    +0.214 C 
BRANCH   4   5
ATOM      5  O   UNL     1       9.900  -3.203  24.033  0.00  0.00    -0.382 OA
ATOM      6  H   UNL     1      10.800  -3.178  23.661  0.00  0.00    +0.210 HD
ENDBRANCH   4   5
BRANCH   4   7
ATOM      7  C   UNL     1       8.892  -1.532  25.491  0.00  0.00    +0.190 C 
ATOM      8  O   UNL     1       9.219  -0.512  26.099  0.00  0.00    -0.292 OA
BRANCH   7   9
ATOM      9  C   UNL     1       8.024  -2.617  26.116  0.00  0.00    +0.249 C 
BRANCH   9  10
ATOM     10  O   UNL     1       8.715  -3.733  26.612  0.00  0.00    -0.279 OA
BRANCH  10  11
ATOM     11  P   UNL     1       8.267  -5.193  26.144  0.00  0.00    +0.473 P 
ATOM     12  O   UNL     1       7.154  -5.300  25.169  0.00  0.00    -0.228 OA
BRANCH  11  13
ATOM     13  O   UNL     1       7.984  -5.943  27.524  0.00  0.00    -0.303 OA
ATOM     14  H   UNL     1       8.730  -6.525  27.759  0.00  0.00    +0.222 HD
ENDBRANCH  11  13
BRANCH  11  15
ATOM     15  O   UNL     1       9.611  -5.896  25.637  0.00  0.00    -0.303 OA
ATOM     16  H   UNL     1       9.938  -5.462  24.827  0.00  0.00    +0.222 HD
ENDBRANCH  11  15
ENDBRANCH  10  11
ENDBRANCH   9  10
ENDBRANCH   7   9
ENDBRANCH   4   7
ENDBRANCH   1   4
BRANCH   1  17
ATOM     17  C   UNL     1       9.035  -0.973  21.655  0.00  0.00    +0.172 C 
BRANCH  17  18
ATOM     18  O   UNL     1      10.379  -1.420  21.449  0.00  0.00    -0.387 OA
ATOM     19  H   UNL     1      10.971  -0.664  21.607  0.00  0.00    +0.210 HD
ENDBRANCH  17  18
BRANCH  17  20
ATOM     20  C   UNL     1       9.013   0.561  21.722  0.00  0.00    +0.206 C 
BRANCH  20  21
ATOM     21  O   UNL     1      10.270   1.113  22.070  0.00  0.00    -0.284 OA
BRANCH  21  22
ATOM     22  P   UNL     1      10.311   1.942  23.442  0.00  0.00    +0.472 P 
ATOM     23  O   UNL     1      10.768   3.360  23.364  0.00  0.00    -0.228 OA
BRANCH  22  24
ATOM     24  O   UNL     1      11.202   1.061  24.440  0.00  0.00    -0.303 OA
ATOM     25  H   UNL     1      11.178   1.445  25.334  0.00  0.00    +0.222 HD
ENDBRANCH  22  24
BRANCH  22  26
ATOM     26  O   UNL     1       8.841   1.791  24.055  0.00  0.00    -0.303 OA
ATOM     27  H   UNL     1       8.461   2.668  24.247  0.00  0.00    +0.222 HD
ENDBRANCH  22  26
ENDBRANCH  21  22
ENDBRANCH  20  21
ENDBRANCH  17  20
ENDBRANCH   1  17
TORSDOF 16
ENDMDL
MODEL 3
REMARK VINA RESULT:      -5.3      2.641      7.223
REMARK  Name = 
REMARK  16 active torsions:
REMARK  status: ('A' for Active; 'I' for Inactive)
REMARK    1  A    between atoms: O_1  and  C_2
REMARK    2  A    between atoms: C_2  and  C_4
REMARK    3  A    between atoms: C_2  and  C_10
REMARK    4  A    between atoms: C_4  and  O_5
REMARK    5  A    between atoms: O_5  and  P_6
REMARK    6  A    between atoms: P_6  and  O_7
REMARK    7  A    between atoms: P_6  and  O_8
REMARK    8  A    between atoms: C_10  and  O_12
REMARK    9  A    between atoms: C_10  and  C_13
REMARK   10  A    between atoms: C_13  and  O_15
REMARK   11  A    between atoms: C_13  and  C_16
REMARK   12  A    between atoms: C_16  and  C_18
REMARK   13  A    between atoms: C_18  and  O_19
REMARK   14  A    between atoms: O_19  and  P_20
REMARK   15  A    between atoms: P_20  and  O_21
REMARK   16  A    between atoms: P_20  and  O_22
REMARK                            x       y       z     vdW  Elec       q    Type
REMARK                         _______ _______ _______ _____ _____    ______ ____
ROOT
ATOM      1  C   UNL     1       8.163  -1.391  22.680  0.00  0.00    +0.181 C 
ENDROOT
BRANCH   1   2
ATOM      2  O   UNL     1       7.344  -0.216  22.892  0.00  0.00    -0.386 OA
ATOM      3  H   UNL     1       7.893   0.511  23.227  0.00  0.00    +0.210 HD
ENDBRANCH   1   2
BRANCH   1   4
ATOM      4  C   UNL     1       8.716  -1.781  24.059  0.00  0.00    +0.214 C 
BRANCH   4   5
ATOM      5  O   UNL     1       9.800  -0.954  24.467  0.00  0.00    -0.382 OA
ATOM      6  H   UNL     1      10.006  -0.356  23.726  0.00  0.00    +0.210 HD
ENDBRANCH   4   5
BRANCH   4   7
ATOM      7  C   UNL     1       9.079  -3.261  24.164  0.00  0.00    +0.190 C 
ATOM      8  O   UNL     1      10.246  -3.655  24.166  0.00  0.00    -0.292 OA
BRANCH   7   9
ATOM      9  C   UNL     1       7.892  -4.214  24.139  0.00  0.00    +0.249 C 
BRANCH   9  10
ATOM     10  O   UNL     1       7.912  -5.231  25.105  0.00  0.00    -0.279 OA
BRANCH  10  11
ATOM     11  P   UNL     1       7.908  -4.833  26.652  0.00  0.00    +0.473 P 
ATOM     12  O   UNL     1       7.137  -3.633  27.059  0.00  0.00    -0.228 OA
BRANCH  11  13
ATOM     13  O   UNL     1       9.461  -4.746  27.006  0.00  0.00    -0.303 OA
ATOM     14  H   UNL     1       9.861  -3.948  26.615  0.00  0.00    +0.222 HD
ENDBRANCH  11  13
BRANCH  11  15
ATOM     15  O   UNL     1       7.451  -6.158  27.420  0.00  0.00    -0.303 OA
ATOM     16  H   UNL     1       6.959  -5.930  28.231  0.00  0.00    +0.222 HD
ENDBRANCH  11  15
ENDBRANCH  10  11
ENDBRANCH   9  10
ENDBRANCH   7   9
ENDBRANCH   4   7
ENDBRANCH   1   4
BRANCH   1  17
ATOM     17  C   UNL     1       9.204  -1.136  21.556  0.00  0.00    +0.172 C 
BRANCH  17  18
ATOM     18  O   UNL     1      10.498  -1.640  21.903  0.00  0.00    -0.387 OA
ATOM     19  H   UNL     1      11.153  -1.183  21.348  0.00  0.00    +0.210 HD
ENDBRANCH  17  18
BRANCH  17  20
ATOM     20  C   UNL     1       9.295   0.378  21.314  0.00  0.00    +0.206 C 
BRANCH  20  21
ATOM     21  O   UNL     1      10.217   1.017  22.179  0.00  0.00    -0.284 OA
BRANCH  21  22
ATOM     22  P   UNL     1       9.663   2.302  22.962  0.00  0.00    +0.472 P 
ATOM     23  O   UNL     1       9.114   2.079  24.331  0.00  0.00    -0.228 OA
BRANCH  22  24
ATOM     24  O   UNL     1       8.597   2.971  21.971  0.00  0.00    -0.303 OA
ATOM     25  H   UNL     1       9.059   3.433  21.249  0.00  0.00    +0.222 HD
ENDBRANCH  22  24
BRANCH  22  26
ATOM     26  O   UNL     1      10.874   3.349  22.935  0.00  0.00    -0.303 OA
ATOM     27  H   UNL     1      11.725   2.884  23.028  0.00  0.00    +0.222 HD
ENDBRANCH  22  26
ENDBRANCH  21  22
ENDBRANCH  20  21
ENDBRANCH  17  20
ENDBRANCH   1  17
TORSDOF 16
ENDMDL
MODEL 4
REMARK VINA RESULT:      -5.3      2.442      3.760
REMARK  Name = 
REMARK  16 active torsions:
REMARK  status: ('A' for Active; 'I' for Inactive)
REMARK    1  A    between atoms: O_1  and  C_2
REMARK    2  A    between atoms: C_2  and  C_4
REMARK    3  A    between atoms: C_2  and  C_10
REMARK    4  A    between atoms: C_4  and  O_5
REMARK    5  A    between atoms: O_5  and  P_6
REMARK    6  A    between atoms: P_6  and  O_7
REMARK    7  A    between atoms: P_6  and  O_8
REMARK    8  A    between atoms: C_10  and  O_12
REMARK    9  A    between atoms: C_10  and  C_13
REMARK   10  A    between atoms: C_13  and  O_15
REMARK   11  A    between atoms: C_13  and  C_16
REMARK   12  A    between atoms: C_16  and  C_18
REMARK   13  A    between atoms: C_18  and  O_19
REMARK   14  A    between atoms: O_19  and  P_20
REMARK   15  A    between atoms: P_20  and  O_21
REMARK   16  A    between atoms: P_20  and  O_22
REMARK                            x       y       z     vdW  Elec       q    Type
REMARK                         _______ _______ _______ _____ _____    ______ ____
ROOT
ATOM      1  C   UNL     1       9.062  -2.772  22.843  0.00  0.00    +0.181 C 
ENDROOT
BRANCH   1   2
ATOM      2  O   UNL     1      10.026  -3.148  23.855  0.00  0.00    -0.386 OA
ATOM      3  H   UNL     1      10.318  -2.360  24.340  0.00  0.00    +0.210 HD
ENDBRANCH   1   2
BRANCH   1   4
ATOM      4  C   UNL     1       9.125  -1.240  22.739  0.00  0.00    +0.214 C 
BRANCH   4   5
ATOM      5  O   UNL     1       9.841  -0.800  21.591  0.00  0.00    -0.382 OA
ATOM      6  H   UNL     1      10.765  -1.094  21.691  0.00  0.00    +0.210 HD
ENDBRANCH   4   5
BRANCH   4   7
ATOM      7  C   UNL     1       9.651  -0.573  24.009  0.00  0.00    +0.190 C 
ATOM      8  O   UNL     1       9.134  -0.754  25.112  0.00  0.00    -0.292 OA
BRANCH   7   9
ATOM      9  C   UNL     1      10.781   0.424  23.786  0.00  0.00    +0.249 C 
BRANCH   9  10
ATOM     10  O   UNL     1      10.528   1.732  24.227  0.00  0.00    -0.279 OA
BRANCH  10  11
ATOM     11  P   UNL     1      10.050   2.829  23.169  0.00  0.00    +0.473 P 
ATOM     12  O   UNL     1       8.715   3.445  23.362  0.00  0.00    -0.228 OA
BRANCH  11  13
ATOM     13  O   UNL     1      10.213   2.078  21.771  0.00  0.00    -0.303 OA
ATOM     14  H   UNL     1      11.123   2.167  21.435  0.00  0.00    +0.222 HD
ENDBRANCH  11  13
BRANCH  11  15
ATOM     15  O   UNL     1      11.232   3.904  23.124  0.00  0.00    -0.303 OA
ATOM     16  H   UNL     1      11.048   4.587  22.452  0.00  0.00    +0.222 HD
ENDBRANCH  11  15
ENDBRANCH  10  11
ENDBRANCH   9  10
ENDBRANCH   7   9
ENDBRANCH   4   7
ENDBRANCH   1   4
BRANCH   1  17
ATOM     17  C   UNL     1       7.673  -3.394  23.154  0.00  0.00    +0.172 C 
BRANCH  17  18
ATOM     18  O   UNL     1       6.931  -2.604  24.089  0.00  0.00    -0.387 OA
ATOM     19  H   UNL     1       7.315  -1.710  24.093  0.00  0.00    +0.210 HD
ENDBRANCH  17  18
BRANCH  17  20
ATOM     20  C   UNL     1       7.890  -4.799  23.735  0.00  0.00    +0.206 C 
BRANCH  20  21
ATOM     21  O   UNL     1       7.273  -4.972  24.998  0.00  0.00    -0.284 OA
BRANCH  21  22
ATOM     22  P   UNL     1       8.264  -5.013  26.258  0.00  0.00    +0.472 P 
ATOM     23  O   UNL     1       7.756  -5.666  27.500  0.00  0.00    -0.228 OA
BRANCH  22  24
ATOM     24  O   UNL     1       8.705  -3.492  26.497  0.00  0.00    -0.303 OA
ATOM     25  H   UNL     1       8.543  -2.969  25.692  0.00  0.00    +0.222 HD
ENDBRANCH  22  24
BRANCH  22  26
ATOM     26  O   UNL     1       9.605  -5.686  25.700  0.00  0.00    -0.303 OA
ATOM     27  H   UNL     1       9.517  -5.877  24.749  0.00  0.00    +0.222 HD
ENDBRANCH  22  26
ENDBRANCH  21  22
ENDBRANCH  20  21
ENDBRANCH  17  20
ENDBRANCH   1  17
TORSDOF 16
ENDMDL
MODEL 5
REMARK VINA RESULT:      -5.2      1.558      7.066
REMARK  Name = 
REMARK  16 active torsions:
REMARK  status: ('A' for Active; 'I' for Inactive)
REMARK    1  A    between atoms: O_1  and  C_2
REMARK    2  A    between atoms: C_2  and  C_4
REMARK    3  A    between atoms: C_2  and  C_10
REMARK    4  A    between atoms: C_4  and  O_5
REMARK    5  A    between atoms: O_5  and  P_6
REMARK    6  A    between atoms: P_6  and  O_7
REMARK    7  A    between atoms: P_6  and  O_8
REMARK    8  A    between atoms: C_10  and  O_12
REMARK    9  A    between atoms: C_10  and  C_13
REMARK   10  A    between atoms: C_13  and  O_15
REMARK   11  A    between atoms: C_13  and  C_16
REMARK   12  A    between atoms: C_16  and  C_18
REMARK   13  A    between atoms: C_18  and  O_19
REMARK   14  A    between atoms: O_19  and  P_20
REMARK   15  A    between atoms: P_20  and  O_21
REMARK   16  A    between atoms: P_20  and  O_22
REMARK                            x       y       z     vdW  Elec       q    Type
REMARK                         _______ _______ _______ _____ _____    ______ ____
ROOT
ATOM      1  C   UNL     1       9.734   1.416  23.793  0.00  0.00    +0.181 C 
ENDROOT
BRANCH   1   2
ATOM      2  O   UNL     1      11.005   0.729  23.706  0.00  0.00    -0.386 OA
ATOM      3  H   UNL     1      11.372   0.827  22.813  0.00  0.00    +0.210 HD
ENDBRANCH   1   2
BRANCH   1   4
ATOM      4  C   UNL     1       8.658   0.366  23.479  0.00  0.00    +0.214 C 
BRANCH   4   5
ATOM      5  O   UNL     1       8.182  -0.295  24.646  0.00  0.00    -0.382 OA
ATOM      6  H   UNL     1       8.476  -1.223  24.597  0.00  0.00    +0.210 HD
ENDBRANCH   4   5
BRANCH   4   7
ATOM      7  C   UNL     1       9.091  -0.638  22.413  0.00  0.00    +0.190 C 
ATOM      8  O   UNL     1       9.530  -0.288  21.317  0.00  0.00    -0.292 OA
BRANCH   7   9
ATOM      9  C   UNL     1       8.822  -2.097  22.760  0.00  0.00    +0.249 C 
BRANCH   9  10
ATOM     10  O   UNL     1       9.722  -2.679  23.666  0.00  0.00    -0.279 OA
BRANCH  10  11
ATOM     11  P   UNL     1       9.199  -3.817  24.657  0.00  0.00    +0.473 P 
ATOM     12  O   UNL     1      10.140  -4.900  25.031  0.00  0.00    -0.228 OA
BRANCH  11  13
ATOM     13  O   UNL     1       7.874  -4.340  23.939  0.00  0.00    -0.303 OA
ATOM     14  H   UNL     1       7.585  -3.714  23.250  0.00  0.00    +0.222 HD
ENDBRANCH  11  13
BRANCH  11  15
ATOM     15  O   UNL     1       8.620  -3.029  25.922  0.00  0.00    -0.303 OA
ATOM     16  H   UNL     1       9.347  -2.717  26.492  0.00  0.00    +0.222 HD
ENDBRANCH  11  15
ENDBRANCH  10  11
ENDBRANCH   9  10
ENDBRANCH   7   9
ENDBRANCH   4   7
ENDBRANCH   1   4
BRANCH   1  17
ATOM     17  C   UNL     1       9.742   2.693  22.910  0.00  0.00    +0.172 C 
BRANCH  17  18
ATOM     18  O   UNL     1      10.362   2.461  21.640  0.00  0.00    -0.387 OA
ATOM     19  H   UNL     1      10.952   1.693  21.733  0.00  0.00    +0.210 HD
ENDBRANCH  17  18
BRANCH  17  20
ATOM     20  C   UNL     1      10.509   3.795  23.657  0.00  0.00    +0.206 C 
BRANCH  20  21
ATOM     21  O   UNL     1      11.906   3.741  23.429  0.00  0.00    -0.284 OA
BRANCH  21  22
ATOM     22  P   UNL     1      12.636   5.157  23.239  0.00  0.00    +0.472 P 
ATOM     23  O   UNL     1      12.217   6.263  24.148  0.00  0.00    -0.228 OA
BRANCH  22  24
ATOM     24  O   UNL     1      12.446   5.524  21.692  0.00  0.00    -0.303 OA
ATOM     25  H   UNL     1      13.153   5.112  21.164  0.00  0.00    +0.222 HD
ENDBRANCH  22  24
BRANCH  22  26
ATOM     26  O   UNL     1      14.199   4.826  23.334  0.00  0.00    -0.303 OA
ATOM     27  H   UNL     1      14.592   4.789  22.442  0.00  0.00    +0.222 HD
ENDBRANCH  22  26
ENDBRANCH  21  22
ENDBRANCH  20  21
ENDBRANCH  17  20
ENDBRANCH   1  17
TORSDOF 16
ENDMDL
MODEL 6
REMARK VINA RESULT:      -5.2      3.728      5.671
REMARK  Name = 
REMARK  16 active torsions:
REMARK  status: ('A' for Active; 'I' for Inactive)
REMARK    1  A    between atoms: O_1  and  C_2
REMARK    2  A    between atoms: C_2  and  C_4
REMARK    3  A    between atoms: C_2  and  C_10
REMARK    4  A    between atoms: C_4  and  O_5
REMARK    5  A    between atoms: O_5  and  P_6
REMARK    6  A    between atoms: P_6  and  O_7
REMARK    7  A    between atoms: P_6  and  O_8
REMARK    8  A    between atoms: C_10  and  O_12
REMARK    9  A    between atoms: C_10  and  C_13
REMARK   10  A    between atoms: C_13  and  O_15
REMARK   11  A    between atoms: C_13  and  C_16
REMARK   12  A    between atoms: C_16  and  C_18
REMARK   13  A    between atoms: C_18  and  O_19
REMARK   14  A    between atoms: O_19  and  P_20
REMARK   15  A    between atoms: P_20  and  O_21
REMARK   16  A    between atoms: P_20  and  O_22
REMARK                            x       y       z     vdW  Elec       q    Type
REMARK                         _______ _______ _______ _____ _____    ______ ____
ROOT
ATOM      1  C   UNL     1       7.609  -4.801  23.267  0.00  0.00    +0.181 C 
ENDROOT
BRANCH   1   2
ATOM      2  O   UNL     1       8.687  -5.328  24.075  0.00  0.00    -0.386 OA
ATOM      3  H   UNL     1       9.301  -4.614  24.311  0.00  0.00    +0.210 HD
ENDBRANCH   1   2
BRANCH   1   4
ATOM      4  C   UNL     1       7.637  -3.276  23.456  0.00  0.00    +0.214 C 
BRANCH   4   5
ATOM      5  O   UNL     1       7.453  -2.571  22.234  0.00  0.00    -0.382 OA
ATOM      6  H   UNL     1       6.494  -2.485  22.087  0.00  0.00    +0.210 HD
ENDBRANCH   4   5
BRANCH   4   7
ATOM      7  C   UNL     1       8.879  -2.786  24.197  0.00  0.00    +0.190 C 
ATOM      8  O   UNL     1       8.987  -2.856  25.422  0.00  0.00    -0.292 OA
BRANCH   7   9
ATOM      9  C   UNL     1       9.914  -2.092  23.321  0.00  0.00    +0.249 C 
BRANCH   9  10
ATOM     10  O   UNL     1       9.946  -0.693  23.414  0.00  0.00    -0.279 OA
BRANCH  10  11
ATOM     11  P   UNL     1       9.480   0.179  22.158  0.00  0.00    +0.473 P 
ATOM     12  O   UNL     1      10.180   1.462  21.905  0.00  0.00    -0.228 OA
BRANCH  11  13
ATOM     13  O   UNL     1       7.910   0.341  22.394  0.00  0.00    -0.303 OA
ATOM     14  H   UNL     1       7.526   0.958  21.745  0.00  0.00    +0.222 HD
ENDBRANCH  11  13
BRANCH  11  15
ATOM     15  O   UNL     1       9.541  -0.822  20.914  0.00  0.00    -0.303 OA
ATOM     16  H   UNL     1       8.807  -1.463  20.954  0.00  0.00    +0.222 HD
ENDBRANCH  11  15
ENDBRANCH  10  11
ENDBRANCH   9  10
ENDBRANCH   7   9
ENDBRANCH   4   7
ENDBRANCH   1   4
BRANCH   1  17
ATOM     17  C   UNL     1       6.274  -5.521  23.600  0.00  0.00    +0.172 C 
BRANCH  17  18
ATOM     18  O   UNL     1       5.231  -5.163  22.688  0.00  0.00    -0.387 OA
ATOM     19  H   UNL     1       4.449  -5.700  22.904  0.00  0.00    +0.210 HD
ENDBRANCH  17  18
BRANCH  17  20
ATOM     20  C   UNL     1       5.857  -5.135  25.027  0.00  0.00    +0.206 C 
BRANCH  20  21
ATOM     21  O   UNL     1       6.427  -5.978  26.012  0.00  0.00    -0.284 OA
BRANCH  21  22
ATOM     22  P   UNL     1       7.048  -5.236  27.291  0.00  0.00    +0.472 P 
ATOM     23  O   UNL     1       6.660  -5.758  28.633  0.00  0.00    -0.228 OA
BRANCH  22  24
ATOM     24  O   UNL     1       6.679  -3.690  27.099  0.00  0.00    -0.303 OA
ATOM     25  H   UNL     1       6.111  -3.391  27.831  0.00  0.00    +0.222 HD
ENDBRANCH  22  24
BRANCH  22  26
ATOM     26  O   UNL     1       8.630  -5.254  27.044  0.00  0.00    -0.303 OA
ATOM     27  H   UNL     1       8.937  -4.376  26.755  0.00  0.00    +0.222 HD
ENDBRANCH  22  26
ENDBRANCH  21  22
ENDBRANCH  20  21
ENDBRANCH  17  20
ENDBRANCH   1  17
TORSDOF 16
ENDMDL
MODEL 7
REMARK VINA RESULT:      -5.1      5.244      7.693
REMARK  Name = 
REMARK  16 active torsions:
REMARK  status: ('A' for Active; 'I' for Inactive)
REMARK    1  A    between atoms: O_1  and  C_2
REMARK    2  A    between atoms: C_2  and  C_4
REMARK    3  A    between atoms: C_2  and  C_10
REMARK    4  A    between atoms: C_4  and  O_5
REMARK    5  A    between atoms: O_5  and  P_6
REMARK    6  A    between atoms: P_6  and  O_7
REMARK    7  A    between atoms: P_6  and  O_8
REMARK    8  A    between atoms: C_10  and  O_12
REMARK    9  A    between atoms: C_10  and  C_13
REMARK   10  A    between atoms: C_13  and  O_15
REMARK   11  A    between atoms: C_13  and  C_16
REMARK   12  A    between atoms: C_16  and  C_18
REMARK   13  A    between atoms: C_18  and  O_19
REMARK   14  A    between atoms: O_19  and  P_20
REMARK   15  A    between atoms: P_20  and  O_21
REMARK   16  A    between atoms: P_20  and  O_22
REMARK                            x       y       z     vdW  Elec       q    Type
REMARK                         _______ _______ _______ _____ _____    ______ ____
ROOT
ATOM      1  C   UNL     1       4.927  -5.397  23.394  0.00  0.00    +0.181 C 
ENDROOT
BRANCH   1   2
ATOM      2  O   UNL     1       3.560  -5.331  22.924  0.00  0.00    -0.386 OA
ATOM      3  H   UNL     1       3.233  -6.225  22.737  0.00  0.00    +0.210 HD
ENDBRANCH   1   2
BRANCH   1   4
ATOM      4  C   UNL     1       5.816  -5.255  22.149  0.00  0.00    +0.214 C 
BRANCH   4   5
ATOM      5  O   UNL     1       5.762  -6.399  21.306  0.00  0.00    -0.382 OA
ATOM      6  H   UNL     1       6.338  -7.080  21.699  0.00  0.00    +0.210 HD
ENDBRANCH   4   5
BRANCH   4   7
ATOM      7  C   UNL     1       7.259  -4.880  22.481  0.00  0.00    +0.190 C 
ATOM      8  O   UNL     1       8.070  -5.698  22.916  0.00  0.00    -0.292 OA
BRANCH   7   9
ATOM      9  C   UNL     1       7.580  -3.396  22.352  0.00  0.00    +0.249 C 
BRANCH   9  10
ATOM     10  O   UNL     1       7.882  -2.736  23.553  0.00  0.00    -0.279 OA
BRANCH  10  11
ATOM     11  P   UNL     1       9.409  -2.420  23.902  0.00  0.00    +0.473 P 
ATOM     12  O   UNL     1      10.253  -1.813  22.844  0.00  0.00    -0.228 OA
BRANCH  11  13
ATOM     13  O   UNL     1       9.955  -3.823  24.431  0.00  0.00    -0.303 OA
ATOM     14  H   UNL     1       9.622  -4.554  23.879  0.00  0.00    +0.222 HD
ENDBRANCH  11  13
BRANCH  11  15
ATOM     15  O   UNL     1       9.355  -1.543  25.237  0.00  0.00    -0.303 OA
ATOM     16  H   UNL     1       8.568  -0.966  25.235  0.00  0.00    +0.222 HD
ENDBRANCH  11  15
ENDBRANCH  10  11
ENDBRANCH   9  10
ENDBRANCH   7   9
ENDBRANCH   4   7
ENDBRANCH   1   4
BRANCH   1  17
ATOM     17  C   UNL     1       5.144  -6.664  24.266  0.00  0.00    +0.172 C 
BRANCH  17  18
ATOM     18  O   UNL     1       4.007  -7.533  24.238  0.00  0.00    -0.387 OA
ATOM     19  H   UNL     1       4.127  -8.156  23.501  0.00  0.00    +0.210 HD
ENDBRANCH  17  18
BRANCH  17  20
ATOM     20  C   UNL     1       5.410  -6.219  25.711  0.00  0.00    +0.206 C 
BRANCH  20  21
ATOM     21  O   UNL     1       6.132  -5.003  25.786  0.00  0.00    -0.284 OA
BRANCH  21  22
ATOM     22  P   UNL     1       7.472  -5.041  26.667  0.00  0.00    +0.472 P 
ATOM     23  O   UNL     1       8.092  -3.730  27.016  0.00  0.00    -0.228 OA
BRANCH  22  24
ATOM     24  O   UNL     1       8.473  -6.004  25.869  0.00  0.00    -0.303 OA
ATOM     25  H   UNL     1       8.025  -6.841  25.651  0.00  0.00    +0.222 HD
ENDBRANCH  22  24
BRANCH  22  26
ATOM     26  O   UNL     1       7.091  -5.917  27.952  0.00  0.00    -0.303 OA
ATOM     27  H   UNL     1       7.887  -6.344  28.318  0.00  0.00    +0.222 HD
ENDBRANCH  22  26
ENDBRANCH  21  22
ENDBRANCH  20  21
ENDBRANCH  17  20
ENDBRANCH   1  17
TORSDOF 16
ENDMDL
MODEL 8
REMARK VINA RESULT:      -5.1      3.768      5.819
REMARK  Name = 
REMARK  16 active torsions:
REMARK  status: ('A' for Active; 'I' for Inactive)
REMARK    1  A    between atoms: O_1  and  C_2
REMARK    2  A    between atoms: C_2  and  C_4
REMARK    3  A    between atoms: C_2  and  C_10
REMARK    4  A    between atoms: C_4  and  O_5
REMARK    5  A    between atoms: O_5  and  P_6
REMARK    6  A    between atoms: P_6  and  O_7
REMARK    7  A    between atoms: P_6  and  O_8
REMARK    8  A    between atoms: C_10  and  O_12
REMARK    9  A    between atoms: C_10  and  C_13
REMARK   10  A    between atoms: C_13  and  O_15
REMARK   11  A    between atoms: C_13  and  C_16
REMARK   12  A    between atoms: C_16  and  C_18
REMARK   13  A    between atoms: C_18  and  O_19
REMARK   14  A    between atoms: O_19  and  P_20
REMARK   15  A    between atoms: P_20  and  O_21
REMARK   16  A    between atoms: P_20  and  O_22
REMARK                            x       y       z     vdW  Elec       q    Type
REMARK                         _______ _______ _______ _____ _____    ______ ____
ROOT
ATOM      1  C   UNL     1       8.636  -4.101  24.663  0.00  0.00    +0.181 C 
ENDROOT
BRANCH   1   2
ATOM      2  O   UNL     1       9.994  -4.543  24.897  0.00  0.00    -0.386 OA
ATOM      3  H   UNL     1      10.196  -4.498  25.845  0.00  0.00    +0.210 HD
ENDBRANCH   1   2
BRANCH   1   4
ATOM      4  C   UNL     1       8.677  -2.565  24.684  0.00  0.00    +0.214 C 
BRANCH   4   5
ATOM      5  O   UNL     1       7.429  -1.981  24.329  0.00  0.00    -0.382 OA
ATOM      6  H   UNL     1       6.769  -2.697  24.297  0.00  0.00    +0.210 HD
ENDBRANCH   4   5
BRANCH   4   7
ATOM      7  C   UNL     1       9.817  -1.982  23.851  0.00  0.00    +0.190 C 
ATOM      8  O   UNL     1      10.435  -2.649  23.021  0.00  0.00    -0.292 OA
BRANCH   7   9
ATOM      9  C   UNL     1      10.212  -0.557  24.216  0.00  0.00    +0.249 C 
BRANCH   9  10
ATOM     10  O   UNL     1      10.451   0.300  23.131  0.00  0.00    -0.279 OA
BRANCH  10  11
ATOM     11  P   UNL     1       9.272   0.585  22.091  0.00  0.00    +0.473 P 
ATOM     12  O   UNL     1       7.879   0.576  22.601  0.00  0.00    -0.228 OA
BRANCH  11  13
ATOM     13  O   UNL     1       9.540  -0.488  20.941  0.00  0.00    -0.303 OA
ATOM     14  H   UNL     1       9.388  -0.096  20.062  0.00  0.00    +0.222 HD
ENDBRANCH  11  13
BRANCH  11  15
ATOM     15  O   UNL     1       9.669   1.961  21.382  0.00  0.00    -0.303 OA
ATOM     16  H   UNL     1       9.895   1.809  20.445  0.00  0.00    +0.222 HD
ENDBRANCH  11  15
ENDBRANCH  10  11
ENDBRANCH   9  10
ENDBRANCH   7   9
ENDBRANCH   4   7
ENDBRANCH   1   4
BRANCH   1  17
ATOM     17  C   UNL     1       7.659  -4.788  25.655  0.00  0.00    +0.172 C 
BRANCH  17  18
ATOM     18  O   UNL     1       8.297  -5.833  26.396  0.00  0.00    -0.387 OA
ATOM     19  H   UNL     1       8.982  -5.426  26.955  0.00  0.00    +0.210 HD
ENDBRANCH  17  18
BRANCH  17  20
ATOM     20  C   UNL     1       6.487  -5.373  24.855  0.00  0.00    +0.206 C 
BRANCH  20  21
ATOM     21  O   UNL     1       5.938  -4.450  23.932  0.00  0.00    -0.284 OA
BRANCH  21  22
ATOM     22  P   UNL     1       5.125  -5.089  22.706  0.00  0.00    +0.472 P 
ATOM     23  O   UNL     1       3.638  -5.121  22.822  0.00  0.00    -0.228 OA
BRANCH  22  24
ATOM     24  O   UNL     1       5.759  -6.545  22.495  0.00  0.00    -0.303 OA
ATOM     25  H   UNL     1       5.159  -7.094  21.959  0.00  0.00    +0.222 HD
ENDBRANCH  22  24
BRANCH  22  26
ATOM     26  O   UNL     1       5.636  -4.292  21.417  0.00  0.00    -0.303 OA
ATOM     27  H   UNL     1       5.737  -3.344  21.622  0.00  0.00    +0.222 HD
ENDBRANCH  22  26
ENDBRANCH  21  22
ENDBRANCH  20  21
ENDBRANCH  17  20
ENDBRANCH   1  17
TORSDOF 16
ENDMDL
MODEL 9
REMARK VINA RESULT:      -5.1      3.523      7.813
REMARK  Name = 
REMARK  16 active torsions:
REMARK  status: ('A' for Active; 'I' for Inactive)
REMARK    1  A    between atoms: O_1  and  C_2
REMARK    2  A    between atoms: C_2  and  C_4
REMARK    3  A    between atoms: C_2  and  C_10
REMARK    4  A    between atoms: C_4  and  O_5
REMARK    5  A    between atoms: O_5  and  P_6
REMARK    6  A    between atoms: P_6  and  O_7
REMARK    7  A    between atoms: P_6  and  O_8
REMARK    8  A    between atoms: C_10  and  O_12
REMARK    9  A    between atoms: C_10  and  C_13
REMARK   10  A    between atoms: C_13  and  O_15
REMARK   11  A    between atoms: C_13  and  C_16
REMARK   12  A    between atoms: C_16  and  C_18
REMARK   13  A    between atoms: C_18  and  O_19
REMARK   14  A    between atoms: O_19  and  P_20
REMARK   15  A    between atoms: P_20  and  O_21
REMARK   16  A    between atoms: P_20  and  O_22
REMARK                            x       y       z     vdW  Elec       q    Type
REMARK                         _______ _______ _______ _____ _____    ______ ____
ROOT
ATOM      1  C   UNL     1       8.453  -1.552  25.153  0.00  0.00    +0.181 C 
ENDROOT
BRANCH   1   2
ATOM      2  O   UNL     1       8.441  -2.461  26.279  0.00  0.00    -0.386 OA
ATOM      3  H   UNL     1       9.298  -2.433  26.734  0.00  0.00    +0.210 HD
ENDBRANCH   1   2
BRANCH   1   4
ATOM      4  C   UNL     1       8.609  -2.426  23.898  0.00  0.00    +0.214 C 
BRANCH   4   5
ATOM      5  O   UNL     1       7.590  -2.186  22.935  0.00  0.00    -0.382 OA
ATOM      6  H   UNL     1       7.110  -1.384  23.211  0.00  0.00    +0.210 HD
ENDBRANCH   4   5
BRANCH   4   7
ATOM      7  C   UNL     1       8.731  -3.915  24.215  0.00  0.00    +0.190 C 
ATOM      8  O   UNL     1       9.772  -4.416  24.642  0.00  0.00    -0.292 OA
BRANCH   7   9
ATOM      9  C   UNL     1       7.511  -4.750  23.847  0.00  0.00    +0.249 C 
BRANCH   9  10
ATOM     10  O   UNL     1       7.459  -5.189  22.515  0.00  0.00    -0.279 OA
BRANCH  10  11
ATOM     11  P   UNL     1       6.035  -5.389  21.819  0.00  0.00    +0.473 P 
ATOM     12  O   UNL     1       6.004  -5.636  20.357  0.00  0.00    -0.228 OA
BRANCH  11  13
ATOM     13  O   UNL     1       5.229  -4.086  22.265  0.00  0.00    -0.303 OA
ATOM     14  H   UNL     1       4.680  -3.752  21.533  0.00  0.00    +0.222 HD
ENDBRANCH  11  13
BRANCH  11  15
ATOM     15  O   UNL     1       5.320  -6.544  22.663  0.00  0.00    -0.303 OA
ATOM     16  H   UNL     1       5.589  -6.499  23.600  0.00  0.00    +0.222 HD
ENDBRANCH  11  15
ENDBRANCH  10  11
ENDBRANCH   9  10
ENDBRANCH   7   9
ENDBRANCH   4   7
ENDBRANCH   1   4
BRANCH   1  17
ATOM     17  C   UNL     1       9.514  -0.437  25.363  0.00  0.00    +0.172 C 
BRANCH  17  18
ATOM     18  O   UNL     1       8.908   0.835  25.615  0.00  0.00    -0.387 OA
ATOM     19  H   UNL     1       9.465   1.517  25.203  0.00  0.00    +0.210 HD
ENDBRANCH  17  18
BRANCH  17  20
ATOM     20  C   UNL     1      10.380  -0.346  24.098  0.00  0.00    +0.206 C 
BRANCH  20  21
ATOM     21  O   UNL     1      10.214   0.879  23.406  0.00  0.00    -0.284 OA
BRANCH  21  22
ATOM     22  P   UNL     1       9.298   0.818  22.091  0.00  0.00    +0.472 P 
ATOM     23  O   UNL     1       9.480  -0.358  21.192  0.00  0.00    -0.228 OA
BRANCH  22  24
ATOM     24  O   UNL     1       9.547   2.212  21.342  0.00  0.00    -0.303 OA
ATOM     25  H   UNL     1      10.501   2.346  21.197  0.00  0.00    +0.222 HD
ENDBRANCH  22  24
BRANCH  22  26
ATOM     26  O   UNL     1       7.799   0.971  22.630  0.00  0.00    -0.303 OA
ATOM     27  H   UNL     1       7.677   1.842  23.049  0.00  0.00    +0.222 HD
ENDBRANCH  22  26
ENDBRANCH  21  22
ENDBRANCH  20  21
ENDBRANCH  17  20
ENDBRANCH   1  17
TORSDOF 16
ENDMDL
