MODEL 1
REMARK VINA RESULT:      -7.2      0.000      0.000
REMARK  Name = 
REMARK  5 active torsions:
REMARK  status: ('A' for Active; 'I' for Inactive)
REMARK    1  A    between atoms: C_1  and  C_2
REMARK    2  A    between atoms: C_6  and  O_7
REMARK    3  A    between atoms: C_8  and  C_10
REMARK    4  A    between atoms: N_12  and  C_13
REMARK    5  A    between atoms: C_17  and  C_20
REMARK                            x       y       z     vdW  Elec       q    Type
REMARK                         _______ _______ _______ _____ _____    ______ ____
ROOT
ATOM      1  C   UNL     1       9.594   1.848  23.533  0.00  0.00    +0.252 C 
ATOM      2  N   UNL     1       9.966   0.941  24.512  0.00  0.00    -0.281 N 
ATOM      3  H   UNL     1      10.570   1.304  25.246  0.00  0.00    +0.155 HD
ATOM      4  O   UNL     1       8.984   1.559  22.507  0.00  0.00    -0.270 OA
ENDROOT
BRANCH   1   8
ATOM      5  C   UNL     1      13.145   5.311  22.949  0.00  0.00    +0.044 C 
ATOM      6  C   UNL     1      11.759   4.964  23.410  0.00  0.00    -0.049 A 
ATOM      7  C   UNL     1      11.287   3.647  23.297  0.00  0.00    +0.020 A 
ATOM      8  C   UNL     1       9.993   3.283  23.730  0.00  0.00    +0.080 A 
ATOM      9  C   UNL     1       9.170   4.272  24.289  0.00  0.00    +0.142 A 
ATOM     10  C   UNL     1       9.636   5.591  24.396  0.00  0.00    +0.056 A 
ATOM     11  I   UNL     1       8.438   7.106  25.202  0.00  0.00    -0.040 I 
ATOM     12  C   UNL     1      10.921   5.936  23.960  0.00  0.00    +0.021 A 
BRANCH   9  13
ATOM     13  O   UNL     1       7.913   3.946  24.736  0.00  0.00    -0.505 OA
ATOM     14  H   UNL     1       7.648   4.642  25.370  0.00  0.00    +0.292 HD
ENDBRANCH   9  13
ENDBRANCH   1   8
BRANCH   2  15
ATOM     15  C   UNL     1       9.633  -0.431  24.563  0.00  0.00    +0.035 A 
ATOM     16  C   UNL     1      10.271  -1.308  23.682  0.00  0.00    +0.024 A 
ATOM     17  C   UNL     1       9.966  -2.679  23.691  0.00  0.00    +0.019 A 
ATOM     18  C   UNL     1       9.042  -3.208  24.609  0.00  0.00    +0.083 A 
ATOM     19  C   UNL     1       8.419  -2.327  25.504  0.00  0.00    +0.058 A 
ATOM     20 CL   UNL     1       7.311  -2.833  26.737  0.00  0.00    -0.083 Cl
ATOM     21  C   UNL     1       8.711  -0.957  25.470  0.00  0.00    +0.044 A 
BRANCH  18  22
ATOM     22  C   UNL     1       8.767  -4.682  24.588  0.00  0.00    +0.310 C 
ATOM     23  N   UNL     1       9.645  -5.567  24.950  0.00  0.00    -0.099 NA
ATOM     24  H   UNL     1      10.516  -5.142  25.269  0.00  0.00    +0.363 HD
ATOM     25  N   UNL     1       7.567  -5.186  24.188  0.00  0.00    -0.247 N 
ATOM     26  H   UNL     1       7.443  -6.143  24.502  0.00  0.00    +0.288 HD
ATOM     27  H   UNL     1       6.750  -4.609  24.361  0.00  0.00    +0.288 HD
ENDBRANCH  18  22
ENDBRANCH   2  15
TORSDOF 4
ENDMDL
MODEL 2
REMARK VINA RESULT:      -7.0      1.881      2.067
REMARK  Name = 
REMARK  5 active torsions:
REMARK  status: ('A' for Active; 'I' for Inactive)
REMARK    1  A    between atoms: C_1  and  C_2
REMARK    2  A    between atoms: C_6  and  O_7
REMARK    3  A    between atoms: C_8  and  C_10
REMARK    4  A    between atoms: N_12  and  C_13
REMARK    5  A    between atoms: C_17  and  C_20
REMARK                            x       y       z     vdW  Elec       q    Type
REMARK                         _______ _______ _______ _____ _____    ______ ____
ROOT
ATOM      1  C   UNL     1       9.782   1.723  23.793  0.00  0.00    +0.252 C 
ATOM      2  N   UNL     1       8.623   1.325  23.146  0.00  0.00    -0.281 N 
ATOM      3  H   UNL     1       8.028   2.075  22.800  0.00  0.00    +0.155 HD
ATOM      4  O   UNL     1      10.547   0.968  24.387  0.00  0.00    -0.270 OA
ENDROOT
BRANCH   1   8
ATOM      5  C   UNL     1      13.212   5.233  22.861  0.00  0.00    +0.044 C 
ATOM      6  C   UNL     1      11.818   4.890  23.302  0.00  0.00    -0.049 A 
ATOM      7  C   UNL     1      11.409   3.550  23.368  0.00  0.00    +0.020 A 
ATOM      8  C   UNL     1      10.109   3.190  23.788  0.00  0.00    +0.080 A 
ATOM      9  C   UNL     1       9.216   4.209  24.151  0.00  0.00    +0.142 A 
ATOM     10  C   UNL     1       9.620   5.551  24.079  0.00  0.00    +0.056 A 
ATOM     11  I   UNL     1       8.316   7.108  24.587  0.00  0.00    -0.040 I 
ATOM     12  C   UNL     1      10.911   5.890  23.658  0.00  0.00    +0.021 A 
BRANCH   9  13
ATOM     13  O   UNL     1       7.951   3.892  24.581  0.00  0.00    -0.505 OA
ATOM     14  H   UNL     1       7.331   4.190  23.887  0.00  0.00    +0.292 HD
ENDBRANCH   9  13
ENDBRANCH   1   8
BRANCH   2  15
ATOM     15  C   UNL     1       8.170  -0.001  22.967  0.00  0.00    +0.035 A 
ATOM     16  C   UNL     1       8.880  -0.840  22.104  0.00  0.00    +0.024 A 
ATOM     17  C   UNL     1       8.462  -2.164  21.890  0.00  0.00    +0.019 A 
ATOM     18  C   UNL     1       7.346  -2.689  22.565  0.00  0.00    +0.083 A 
ATOM     19  C   UNL     1       6.649  -1.849  23.445  0.00  0.00    +0.058 A 
ATOM     20 CL   UNL     1       5.297  -2.365  24.399  0.00  0.00    -0.083 Cl
ATOM     21  C   UNL     1       7.058  -0.521  23.632  0.00  0.00    +0.044 A 
BRANCH  18  22
ATOM     22  C   UNL     1       6.955  -4.114  22.314  0.00  0.00    +0.310 C 
ATOM     23  N   UNL     1       6.015  -4.451  21.485  0.00  0.00    -0.099 NA
ATOM     24  H   UNL     1       5.602  -3.644  21.017  0.00  0.00    +0.363 HD
ATOM     25  N   UNL     1       7.573  -5.152  22.942  0.00  0.00    -0.247 N 
ATOM     26  H   UNL     1       7.406  -6.030  22.461  0.00  0.00    +0.288 HD
ATOM     27  H   UNL     1       8.550  -5.021  23.186  0.00  0.00    +0.288 HD
ENDBRANCH  18  22
ENDBRANCH   2  15
TORSDOF 4
ENDMDL
MODEL 3
REMARK VINA RESULT:      -6.8      4.372      8.339
REMARK  Name = 
REMARK  5 active torsions:
REMARK  status: ('A' for Active; 'I' for Inactive)
REMARK    1  A    between atoms: C_1  and  C_2
REMARK    2  A    between atoms: C_6  and  O_7
REMARK    3  A    between atoms: C_8  and  C_10
REMARK    4  A    between atoms: N_12  and  C_13
REMARK    5  A    between atoms: C_17  and  C_20
REMARK                            x       y       z     vdW  Elec       q    Type
REMARK                         _______ _______ _______ _____ _____    ______ ____
ROOT
ATOM      1  C   UNL     1       8.297  -2.168  23.897  0.00  0.00    +0.252 C 
ATOM      2  N   UNL     1       7.850  -1.009  23.282  0.00  0.00    -0.281 N 
ATOM      3  H   UNL     1       7.005  -1.101  22.723  0.00  0.00    +0.155 HD
ATOM      4  O   UNL     1       9.363  -2.276  24.497  0.00  0.00    -0.270 OA
ENDROOT
BRANCH   1   8
ATOM      5  C   UNL     1       6.301  -5.636  20.907  0.00  0.00    +0.044 C 
ATOM      6  C   UNL     1       6.473  -5.087  22.294  0.00  0.00    -0.049 A 
ATOM      7  C   UNL     1       7.248  -3.937  22.506  0.00  0.00    +0.020 A 
ATOM      8  C   UNL     1       7.423  -3.387  23.795  0.00  0.00    +0.080 A 
ATOM      9  C   UNL     1       6.797  -4.014  24.883  0.00  0.00    +0.142 A 
ATOM     10  C   UNL     1       6.027  -5.169  24.674  0.00  0.00    +0.056 A 
ATOM     11  I   UNL     1       5.091  -6.154  26.267  0.00  0.00    -0.040 I 
ATOM     12  C   UNL     1       5.866  -5.702  23.390  0.00  0.00    +0.021 A 
BRANCH   9  13
ATOM     13  O   UNL     1       6.932  -3.494  26.146  0.00  0.00    -0.505 OA
ATOM     14  H   UNL     1       6.030  -3.342  26.490  0.00  0.00    +0.292 HD
ENDBRANCH   9  13
ENDBRANCH   1   8
BRANCH   2  15
ATOM     15  C   UNL     1       8.473   0.259  23.318  0.00  0.00    +0.035 A 
ATOM     16  C   UNL     1       9.391   0.581  22.316  0.00  0.00    +0.024 A 
ATOM     17  C   UNL     1      10.040   1.828  22.315  0.00  0.00    +0.019 A 
ATOM     18  C   UNL     1       9.755   2.792  23.297  0.00  0.00    +0.083 A 
ATOM     19  C   UNL     1       8.818   2.471  24.289  0.00  0.00    +0.058 A 
ATOM     20 CL   UNL     1       8.310   3.574  25.525  0.00  0.00    -0.083 Cl
ATOM     21  C   UNL     1       8.195   1.215  24.296  0.00  0.00    +0.044 A 
BRANCH  18  22
ATOM     22  C   UNL     1      10.462   4.112  23.238  0.00  0.00    +0.310 C 
ATOM     23  N   UNL     1      11.756   4.218  23.204  0.00  0.00    -0.099 NA
ATOM     24  H   UNL     1      12.219   3.309  23.196  0.00  0.00    +0.363 HD
ATOM     25  N   UNL     1       9.785   5.293  23.211  0.00  0.00    -0.247 N 
ATOM     26  H   UNL     1      10.373   6.052  22.882  0.00  0.00    +0.288 HD
ATOM     27  H   UNL     1       8.873   5.285  22.764  0.00  0.00    +0.288 HD
ENDBRANCH  18  22
ENDBRANCH   2  15
TORSDOF 4
ENDMDL
MODEL 4
REMARK VINA RESULT:      -6.7      1.519      1.850
REMARK  Name = 
REMARK  5 active torsions:
REMARK  status: ('A' for Active; 'I' for Inactive)
REMARK    1  A    between atoms: C_1  and  C_2
REMARK    2  A    between atoms: C_6  and  O_7
REMARK    3  A    between atoms: C_8  and  C_10
REMARK    4  A    between atoms: N_12  and  C_13
REMARK    5  A    between atoms: C_17  and  C_20
REMARK                            x       y       z     vdW  Elec       q    Type
REMARK                         _______ _______ _______ _____ _____    ______ ____
ROOT
ATOM      1  C   UNL     1       8.465   2.023  23.032  0.00  0.00    +0.252 C 
ATOM      2  N   UNL     1       9.054   1.308  24.063  0.00  0.00    -0.281 N 
ATOM      3  H   UNL     1       9.570   1.858  24.746  0.00  0.00    +0.155 HD
ATOM      4  O   UNL     1       7.921   1.520  22.053  0.00  0.00    -0.270 OA
ENDROOT
BRANCH   1   8
ATOM      5  C   UNL     1      11.088   6.030  24.449  0.00  0.00    +0.044 C 
ATOM      6  C   UNL     1       9.853   5.471  23.802  0.00  0.00    -0.049 A 
ATOM      7  C   UNL     1       9.678   4.083  23.699  0.00  0.00    +0.020 A 
ATOM      8  C   UNL     1       8.526   3.523  23.106  0.00  0.00    +0.080 A 
ATOM      9  C   UNL     1       7.536   4.387  22.616  0.00  0.00    +0.142 A 
ATOM     10  C   UNL     1       7.711   5.776  22.711  0.00  0.00    +0.056 A 
ATOM     11  I   UNL     1       6.274   7.107  21.975  0.00  0.00    -0.040 I 
ATOM     12  C   UNL     1       8.862   6.315  23.300  0.00  0.00    +0.021 A 
BRANCH   9  13
ATOM     13  O   UNL     1       6.395   3.874  22.051  0.00  0.00    -0.505 OA
ATOM     14  H   UNL     1       5.638   4.309  22.492  0.00  0.00    +0.292 HD
ENDBRANCH   9  13
ENDBRANCH   1   8
BRANCH   2  15
ATOM     15  C   UNL     1       9.046  -0.095  24.228  0.00  0.00    +0.035 A 
ATOM     16  C   UNL     1      10.017  -0.852  23.567  0.00  0.00    +0.024 A 
ATOM     17  C   UNL     1      10.045  -2.251  23.696  0.00  0.00    +0.019 A 
ATOM     18  C   UNL     1       9.123  -2.919  24.521  0.00  0.00    +0.083 A 
ATOM     19  C   UNL     1       8.163  -2.153  25.197  0.00  0.00    +0.058 A 
ATOM     20 CL   UNL     1       7.004  -2.820  26.300  0.00  0.00    -0.083 Cl
ATOM     21  C   UNL     1       8.128  -0.761  25.042  0.00  0.00    +0.044 A 
BRANCH  18  22
ATOM     22  C   UNL     1       9.209  -4.411  24.637  0.00  0.00    +0.310 C 
ATOM     23  N   UNL     1       8.426  -5.215  23.984  0.00  0.00    -0.099 NA
ATOM     24  H   UNL     1       7.778  -4.715  23.374  0.00  0.00    +0.363 HD
ATOM     25  N   UNL     1      10.125  -5.020  25.440  0.00  0.00    -0.247 N 
ATOM     26  H   UNL     1      10.248  -5.996  25.189  0.00  0.00    +0.288 HD
ATOM     27  H   UNL     1      11.008  -4.537  25.571  0.00  0.00    +0.288 HD
ENDBRANCH  18  22
ENDBRANCH   2  15
TORSDOF 4
ENDMDL
MODEL 5
REMARK VINA RESULT:      -6.7      4.848      9.012
REMARK  Name = 
REMARK  5 active torsions:
REMARK  status: ('A' for Active; 'I' for Inactive)
REMARK    1  A    between atoms: C_1  and  C_2
REMARK    2  A    between atoms: C_6  and  O_7
REMARK    3  A    between atoms: C_8  and  C_10
REMARK    4  A    between atoms: N_12  and  C_13
REMARK    5  A    between atoms: C_17  and  C_20
REMARK                            x       y       z     vdW  Elec       q    Type
REMARK                         _______ _______ _______ _____ _____    ______ ____
ROOT
ATOM      1  C   UNL     1       6.829  -3.701  24.410  0.00  0.00    +0.252 C 
ATOM      2  N   UNL     1       6.789  -2.394  24.870  0.00  0.00    -0.281 N 
ATOM      3  H   UNL     1       6.192  -2.227  25.678  0.00  0.00    +0.155 HD
ATOM      4  O   UNL     1       7.384  -4.061  23.376  0.00  0.00    -0.270 OA
ENDROOT
BRANCH   1   8
ATOM      5  C   UNL     1       3.505  -7.428  24.426  0.00  0.00    +0.044 C 
ATOM      6  C   UNL     1       4.487  -6.585  25.188  0.00  0.00    -0.049 A 
ATOM      7  C   UNL     1       5.193  -5.563  24.536  0.00  0.00    +0.020 A 
ATOM      8  C   UNL     1       6.116  -4.744  25.223  0.00  0.00    +0.080 A 
ATOM      9  C   UNL     1       6.320  -4.966  26.593  0.00  0.00    +0.142 A 
ATOM     10  C   UNL     1       5.619  -5.992  27.246  0.00  0.00    +0.056 A 
ATOM     11  I   UNL     1       5.905  -6.377  29.284  0.00  0.00    -0.040 I 
ATOM     12  C   UNL     1       4.709  -6.796  26.550  0.00  0.00    +0.021 A 
BRANCH   9  13
ATOM     13  O   UNL     1       7.196  -4.175  27.294  0.00  0.00    -0.505 OA
ATOM     14  H   UNL     1       7.481  -4.689  28.076  0.00  0.00    +0.292 HD
ENDBRANCH   9  13
ENDBRANCH   1   8
BRANCH   2  15
ATOM     15  C   UNL     1       7.448  -1.280  24.305  0.00  0.00    +0.035 A 
ATOM     16  C   UNL     1       6.773  -0.518  23.348  0.00  0.00    +0.024 A 
ATOM     17  C   UNL     1       7.392   0.596  22.754  0.00  0.00    +0.019 A 
ATOM     18  C   UNL     1       8.687   0.991  23.134  0.00  0.00    +0.083 A 
ATOM     19  C   UNL     1       9.352   0.234  24.109  0.00  0.00    +0.058 A 
ATOM     20 CL   UNL     1      10.920   0.632  24.730  0.00  0.00    -0.083 Cl
ATOM     21  C   UNL     1       8.736  -0.889  24.677  0.00  0.00    +0.044 A 
BRANCH  18  22
ATOM     22  C   UNL     1       9.292   2.197  22.482  0.00  0.00    +0.310 C 
ATOM     23  N   UNL     1      10.236   2.119  21.593  0.00  0.00    -0.099 NA
ATOM     24  H   UNL     1      10.489   1.154  21.380  0.00  0.00    +0.363 HD
ATOM     25  N   UNL     1       8.883   3.461  22.781  0.00  0.00    -0.247 N 
ATOM     26  H   UNL     1       9.168   4.123  22.067  0.00  0.00    +0.288 HD
ATOM     27  H   UNL     1       7.910   3.573  23.050  0.00  0.00    +0.288 HD
ENDBRANCH  18  22
ENDBRANCH   2  15
TORSDOF 4
ENDMDL
MODEL 6
REMARK VINA RESULT:      -6.7      4.092      8.244
REMARK  Name = 
REMARK  5 active torsions:
REMARK  status: ('A' for Active; 'I' for Inactive)
REMARK    1  A    between atoms: C_1  and  C_2
REMARK    2  A    between atoms: C_6  and  O_7
REMARK    3  A    between atoms: C_8  and  C_10
REMARK    4  A    between atoms: N_12  and  C_13
REMARK    5  A    between atoms: C_17  and  C_20
REMARK                            x       y       z     vdW  Elec       q    Type
REMARK                         _______ _______ _______ _____ _____    ______ ____
ROOT
ATOM      1  C   UNL     1       9.041  -1.323  24.401  0.00  0.00    +0.252 C 
ATOM      2  N   UNL     1       8.341  -0.245  23.883  0.00  0.00    -0.281 N 
ATOM      3  H   UNL     1       7.451  -0.465  23.441  0.00  0.00    +0.155 HD
ATOM      4  O   UNL     1      10.183  -1.267  24.848  0.00  0.00    -0.270 OA
ENDROOT
BRANCH   1   8
ATOM      5  C   UNL     1       7.453  -5.226  27.082  0.00  0.00    +0.044 C 
ATOM      6  C   UNL     1       7.577  -4.559  25.743  0.00  0.00    -0.049 A 
ATOM      7  C   UNL     1       8.217  -3.315  25.632  0.00  0.00    +0.020 A 
ATOM      8  C   UNL     1       8.359  -2.663  24.388  0.00  0.00    +0.080 A 
ATOM      9  C   UNL     1       7.848  -3.287  23.240  0.00  0.00    +0.142 A 
ATOM     10  C   UNL     1       7.202  -4.528  23.349  0.00  0.00    +0.056 A 
ATOM     11  I   UNL     1       6.402  -5.490  21.670  0.00  0.00    -0.040 I 
ATOM     12  C   UNL     1       7.066  -5.160  24.591  0.00  0.00    +0.021 A 
BRANCH   9  13
ATOM     13  O   UNL     1       7.987  -2.688  22.013  0.00  0.00    -0.505 OA
ATOM     14  H   UNL     1       7.729  -1.752  22.122  0.00  0.00    +0.292 HD
ENDBRANCH   9  13
ENDBRANCH   1   8
BRANCH   2  15
ATOM     15  C   UNL     1       8.761   1.104  23.866  0.00  0.00    +0.035 A 
ATOM     16  C   UNL     1       9.658   1.513  22.876  0.00  0.00    +0.024 A 
ATOM     17  C   UNL     1      10.108   2.843  22.825  0.00  0.00    +0.019 A 
ATOM     18  C   UNL     1       9.641   3.801  23.741  0.00  0.00    +0.083 A 
ATOM     19  C   UNL     1       8.726   3.389  24.720  0.00  0.00    +0.058 A 
ATOM     20 CL   UNL     1       8.007   4.462  25.876  0.00  0.00    -0.083 Cl
ATOM     21  C   UNL     1       8.302   2.055  24.779  0.00  0.00    +0.044 A 
BRANCH  18  22
ATOM     22  C   UNL     1      10.140   5.210  23.629  0.00  0.00    +0.310 C 
ATOM     23  N   UNL     1      11.281   5.594  24.115  0.00  0.00    -0.099 NA
ATOM     24  H   UNL     1      11.796   4.827  24.549  0.00  0.00    +0.363 HD
ATOM     25  N   UNL     1       9.421   6.182  23.001  0.00  0.00    -0.247 N 
ATOM     26  H   UNL     1      10.004   6.976  22.758  0.00  0.00    +0.288 HD
ATOM     27  H   UNL     1       8.827   5.884  22.234  0.00  0.00    +0.288 HD
ENDBRANCH  18  22
ENDBRANCH   2  15
TORSDOF 4
ENDMDL
MODEL 7
REMARK VINA RESULT:      -6.5      5.006      9.045
REMARK  Name = 
REMARK  5 active torsions:
REMARK  status: ('A' for Active; 'I' for Inactive)
REMARK    1  A    between atoms: C_1  and  C_2
REMARK    2  A    between atoms: C_6  and  O_7
REMARK    3  A    between atoms: C_8  and  C_10
REMARK    4  A    between atoms: N_12  and  C_13
REMARK    5  A    between atoms: C_17  and  C_20
REMARK                            x       y       z     vdW  Elec       q    Type
REMARK                         _______ _______ _______ _____ _____    ______ ____
ROOT
ATOM      1  C   UNL     1       6.854  -3.695  24.306  0.00  0.00    +0.252 C 
ATOM      2  N   UNL     1       6.765  -2.393  24.774  0.00  0.00    -0.281 N 
ATOM      3  H   UNL     1       6.111  -2.240  25.539  0.00  0.00    +0.155 HD
ATOM      4  O   UNL     1       7.485  -4.039  23.310  0.00  0.00    -0.270 OA
ENDROOT
BRANCH   1   8
ATOM      5  C   UNL     1       6.289  -6.154  28.616  0.00  0.00    +0.044 C 
ATOM      6  C   UNL     1       5.839  -5.931  27.201  0.00  0.00    -0.049 A 
ATOM      7  C   UNL     1       6.488  -4.983  26.396  0.00  0.00    +0.020 A 
ATOM      8  C   UNL     1       6.099  -4.754  25.058  0.00  0.00    +0.080 A 
ATOM      9  C   UNL     1       5.038  -5.505  24.530  0.00  0.00    +0.142 A 
ATOM     10  C   UNL     1       4.383  -6.450  25.335  0.00  0.00    +0.056 A 
ATOM     11  I   UNL     1       2.780  -7.579  24.601  0.00  0.00    -0.040 I 
ATOM     12  C   UNL     1       4.780  -6.662  26.661  0.00  0.00    +0.021 A 
BRANCH   9  13
ATOM     13  O   UNL     1       4.647  -5.320  23.227  0.00  0.00    -0.505 OA
ATOM     14  H   UNL     1       5.304  -4.724  22.815  0.00  0.00    +0.292 HD
ENDBRANCH   9  13
ENDBRANCH   1   8
BRANCH   2  15
ATOM     15  C   UNL     1       7.448  -1.265  24.266  0.00  0.00    +0.035 A 
ATOM     16  C   UNL     1       6.799  -0.454  23.332  0.00  0.00    +0.024 A 
ATOM     17  C   UNL     1       7.442   0.674  22.795  0.00  0.00    +0.019 A 
ATOM     18  C   UNL     1       8.736   1.035  23.210  0.00  0.00    +0.083 A 
ATOM     19  C   UNL     1       9.375   0.228  24.162  0.00  0.00    +0.058 A 
ATOM     20 CL   UNL     1      10.939   0.577  24.824  0.00  0.00    -0.083 Cl
ATOM     21  C   UNL     1       8.735  -0.909  24.673  0.00  0.00    +0.044 A 
BRANCH  18  22
ATOM     22  C   UNL     1       9.368   2.258  22.619  0.00  0.00    +0.310 C 
ATOM     23  N   UNL     1       9.156   3.454  23.079  0.00  0.00    -0.099 NA
ATOM     24  H   UNL     1       8.541   3.453  23.893  0.00  0.00    +0.363 HD
ATOM     25  N   UNL     1      10.215   2.190  21.554  0.00  0.00    -0.247 N 
ATOM     26  H   UNL     1      10.769   3.035  21.466  0.00  0.00    +0.288 HD
ATOM     27  H   UNL     1      10.773   1.346  21.470  0.00  0.00    +0.288 HD
ENDBRANCH  18  22
ENDBRANCH   2  15
TORSDOF 4
ENDMDL
MODEL 8
REMARK VINA RESULT:      -6.4      3.423      4.607
REMARK  Name = 
REMARK  5 active torsions:
REMARK  status: ('A' for Active; 'I' for Inactive)
REMARK    1  A    between atoms: C_1  and  C_2
REMARK    2  A    between atoms: C_6  and  O_7
REMARK    3  A    between atoms: C_8  and  C_10
REMARK    4  A    between atoms: N_12  and  C_13
REMARK    5  A    between atoms: C_17  and  C_20
REMARK                            x       y       z     vdW  Elec       q    Type
REMARK                         _______ _______ _______ _____ _____    ______ ____
ROOT
ATOM      1  C   UNL     1       8.082  -0.912  26.030  0.00  0.00    +0.252 C 
ATOM      2  N   UNL     1       7.226  -1.942  25.671  0.00  0.00    -0.281 N 
ATOM      3  H   UNL     1       6.792  -1.860  24.755  0.00  0.00    +0.155 HD
ATOM      4  O   UNL     1       8.586  -0.777  27.141  0.00  0.00    -0.270 OA
ENDROOT
BRANCH   1   8
ATOM      5  C   UNL     1       9.473  -0.005  21.320  0.00  0.00    +0.044 C 
ATOM      6  C   UNL     1       9.060   0.534  22.659  0.00  0.00    -0.049 A 
ATOM      7  C   UNL     1       8.771  -0.344  23.714  0.00  0.00    +0.020 A 
ATOM      8  C   UNL     1       8.389   0.127  24.989  0.00  0.00    +0.080 A 
ATOM      9  C   UNL     1       8.304   1.512  25.194  0.00  0.00    +0.142 A 
ATOM     10  C   UNL     1       8.585   2.393  24.138  0.00  0.00    +0.056 A 
ATOM     11  I   UNL     1       8.450   4.467  24.388  0.00  0.00    -0.040 I 
ATOM     12  C   UNL     1       8.960   1.909  22.880  0.00  0.00    +0.021 A 
BRANCH   9  13
ATOM     13  O   UNL     1       7.953   2.003  26.427  0.00  0.00    -0.505 OA
ATOM     14  H   UNL     1       8.710   2.533  26.748  0.00  0.00    +0.292 HD
ENDBRANCH   9  13
ENDBRANCH   1   8
BRANCH   2  15
ATOM     15  C   UNL     1       6.865  -3.054  26.465  0.00  0.00    +0.035 A 
ATOM     16  C   UNL     1       7.744  -4.139  26.535  0.00  0.00    +0.024 A 
ATOM     17  C   UNL     1       7.424  -5.269  27.306  0.00  0.00    +0.019 A 
ATOM     18  C   UNL     1       6.235  -5.322  28.053  0.00  0.00    +0.083 A 
ATOM     19  C   UNL     1       5.366  -4.223  27.995  0.00  0.00    +0.058 A 
ATOM     20 CL   UNL     1       3.899  -4.108  28.909  0.00  0.00    -0.083 Cl
ATOM     21  C   UNL     1       5.682  -3.110  27.203  0.00  0.00    +0.044 A 
BRANCH  18  22
ATOM     22  C   UNL     1       5.952  -6.544  28.873  0.00  0.00    +0.310 C 
ATOM     23  N   UNL     1       6.372  -6.687  30.094  0.00  0.00    -0.099 NA
ATOM     24  H   UNL     1       6.884  -5.869  30.426  0.00  0.00    +0.363 HD
ATOM     25  N   UNL     1       5.227  -7.589  28.385  0.00  0.00    -0.247 N 
ATOM     26  H   UNL     1       4.884  -8.184  29.131  0.00  0.00    +0.288 HD
ATOM     27  H   UNL     1       4.509  -7.365  27.703  0.00  0.00    +0.288 HD
ENDBRANCH  18  22
ENDBRANCH   2  15
TORSDOF 4
ENDMDL
MODEL 9
REMARK VINA RESULT:      -6.4      2.096      2.766
REMARK  Name = 
REMARK  5 active torsions:
REMARK  status: ('A' for Active; 'I' for Inactive)
REMARK    1  A    between atoms: C_1  and  C_2
REMARK    2  A    between atoms: C_6  and  O_7
REMARK    3  A    between atoms: C_8  and  C_10
REMARK    4  A    between atoms: N_12  and  C_13
REMARK    5  A    between atoms: C_17  and  C_20
REMARK                            x       y       z     vdW  Elec       q    Type
REMARK                         _______ _______ _______ _____ _____    ______ ____
ROOT
ATOM      1  C   UNL     1       8.591   1.930  24.388  0.00  0.00    +0.252 C 
ATOM      2  N   UNL     1       8.970   0.931  23.506  0.00  0.00    -0.281 N 
ATOM      3  H   UNL     1       9.510   1.233  22.699  0.00  0.00    +0.155 HD
ATOM      4  O   UNL     1       7.829   1.773  25.339  0.00  0.00    -0.270 OA
ENDROOT
BRANCH   1   8
ATOM      5  C   UNL     1       7.651   6.835  24.379  0.00  0.00    +0.044 C 
ATOM      6  C   UNL     1       8.633   5.720  24.167  0.00  0.00    -0.049 A 
ATOM      7  C   UNL     1       8.235   4.386  24.343  0.00  0.00    +0.020 A 
ATOM      8  C   UNL     1       9.128   3.312  24.143  0.00  0.00    +0.080 A 
ATOM      9  C   UNL     1      10.445   3.598  23.752  0.00  0.00    +0.142 A 
ATOM     10  C   UNL     1      10.848   4.932  23.581  0.00  0.00    +0.056 A 
ATOM     11  I   UNL     1      12.807   5.412  23.020  0.00  0.00    -0.040 I 
ATOM     12  C   UNL     1       9.949   5.985  23.787  0.00  0.00    +0.021 A 
BRANCH   9  13
ATOM     13  O   UNL     1      11.333   2.576  23.530  0.00  0.00    -0.505 OA
ATOM     14  H   UNL     1      11.601   2.630  22.591  0.00  0.00    +0.292 HD
ENDBRANCH   9  13
ENDBRANCH   1   8
BRANCH   2  15
ATOM     15  C   UNL     1       8.643  -0.441  23.595  0.00  0.00    +0.035 A 
ATOM     16  C   UNL     1       9.490  -1.286  24.316  0.00  0.00    +0.024 A 
ATOM     17  C   UNL     1       9.209  -2.658  24.425  0.00  0.00    +0.019 A 
ATOM     18  C   UNL     1       8.052  -3.207  23.845  0.00  0.00    +0.083 A 
ATOM     19  C   UNL     1       7.196  -2.352  23.138  0.00  0.00    +0.058 A 
ATOM     20 CL   UNL     1       5.701  -2.862  22.425  0.00  0.00    -0.083 Cl
ATOM     21  C   UNL     1       7.498  -0.989  23.014  0.00  0.00    +0.044 A 
BRANCH  18  22
ATOM     22  C   UNL     1       7.791  -4.674  24.008  0.00  0.00    +0.310 C 
ATOM     23  N   UNL     1       7.968  -5.532  23.050  0.00  0.00    -0.099 NA
ATOM     24  H   UNL     1       8.326  -5.096  22.200  0.00  0.00    +0.363 HD
ATOM     25  N   UNL     1       7.351  -5.202  25.184  0.00  0.00    -0.247 N 
ATOM     26  H   UNL     1       7.504  -6.205  25.221  0.00  0.00    +0.288 HD
ATOM     27  H   UNL     1       7.647  -4.731  26.033  0.00  0.00    +0.288 HD
ENDBRANCH  18  22
ENDBRANCH   2  15
TORSDOF 4
ENDMDL
