MODEL 1
REMARK VINA RESULT:      -7.3      0.000      0.000
REMARK  Name = 
REMARK  4 active torsions:
REMARK  status: ('A' for Active; 'I' for Inactive)
REMARK    1  A    between atoms: C_1  and  N_2
REMARK    2  A    between atoms: N_13  and  C_14
REMARK    3  A    between atoms: C_14  and  C_15
REMARK    4  A    between atoms: C_16  and  C_17
REMARK                            x       y       z     vdW  Elec       q    Type
REMARK                         _______ _______ _______ _____ _____    ______ ____
ROOT
ATOM      1  C   UNL     1       7.077   1.239  26.338  0.00  0.00    +0.149 C 
ATOM      2  N   UNL     1       7.461   0.734  25.038  0.00  0.00    -0.346 N 
ATOM      3  C   UNL     1       8.397   1.342  24.217  0.00  0.00    +0.050 A 
ATOM      4  C   UNL     1       8.622   0.481  23.135  0.00  0.00    +0.012 A 
ATOM      5  C   UNL     1       9.552   0.859  22.146  0.00  0.00    +0.011 A 
ATOM      6  C   UNL     1      10.235   2.073  22.264  0.00  0.00    +0.001 A 
ATOM      7  C   UNL     1      10.016   2.901  23.360  0.00  0.00    +0.002 A 
ATOM      8  C   UNL     1       7.835  -0.683  23.355  0.00  0.00    +0.065 A 
ATOM      9  C   UNL     1       7.866  -1.984  22.686  0.00  0.00    +0.249 C 
ATOM     10  N   UNL     1       6.990  -2.912  23.248  0.00  0.00    -0.291 N 
ATOM     11  C   UNL     1       5.768  -2.472  23.933  0.00  0.00    +0.114 C 
ATOM     12  C   UNL     1       6.062  -1.418  25.021  0.00  0.00    +0.073 C 
ATOM     13  O   UNL     1       8.698  -2.267  21.829  0.00  0.00    -0.270 OA
ATOM     14  C   UNL     1       9.096   2.553  24.354  0.00  0.00    +0.026 A 
ATOM     15  C   UNL     1       7.057  -0.448  24.478  0.00  0.00    +0.033 A 
ENDROOT
BRANCH  10  16
ATOM     16  C   UNL     1       7.336  -4.318  23.213  0.00  0.00    +0.165 C 
BRANCH  16  17
ATOM     17  C   UNL     1       8.061  -4.766  24.435  0.00  0.00    +0.079 A 
ATOM     18  N   UNL     1       9.442  -4.761  24.485  0.00  0.00    -0.239 NA
ATOM     19  C   UNL     1       9.752  -5.267  25.655  0.00  0.00    +0.197 A 
ATOM     20  N   UNL     1       8.639  -5.621  26.361  0.00  0.00    -0.348 N 
ATOM     21  H   UNL     1       8.630  -6.048  27.276  0.00  0.00    +0.166 HD
ATOM     22  C   UNL     1       7.543  -5.313  25.598  0.00  0.00    +0.037 A 
ATOM     23  C   UNL     1       6.159  -5.588  26.049  0.00  0.00    +0.065 C 
ENDBRANCH  16  17
ENDBRANCH  10  16
TORSDOF 2
ENDMDL
MODEL 2
REMARK VINA RESULT:      -6.9      2.158      6.201
REMARK  Name = 
REMARK  4 active torsions:
REMARK  status: ('A' for Active; 'I' for Inactive)
REMARK    1  A    between atoms: C_1  and  N_2
REMARK    2  A    between atoms: N_13  and  C_14
REMARK    3  A    between atoms: C_14  and  C_15
REMARK    4  A    between atoms: C_16  and  C_17
REMARK                            x       y       z     vdW  Elec       q    Type
REMARK                         _______ _______ _______ _____ _____    ______ ____
ROOT
ATOM      1  C   UNL     1       4.728  -2.341  25.274  0.00  0.00    +0.149 C 
ATOM      2  N   UNL     1       5.997  -2.816  24.768  0.00  0.00    -0.346 N 
ATOM      3  C   UNL     1       6.136  -3.925  23.948  0.00  0.00    +0.050 A 
ATOM      4  C   UNL     1       7.474  -3.970  23.533  0.00  0.00    +0.012 A 
ATOM      5  C   UNL     1       7.884  -5.006  22.670  0.00  0.00    +0.011 A 
ATOM      6  C   UNL     1       6.957  -5.960  22.240  0.00  0.00    +0.001 A 
ATOM      7  C   UNL     1       5.627  -5.881  22.644  0.00  0.00    +0.002 A 
ATOM      8  C   UNL     1       8.121  -2.829  24.083  0.00  0.00    +0.065 A 
ATOM      9  C   UNL     1       9.431  -2.252  23.782  0.00  0.00    +0.249 C 
ATOM     10  N   UNL     1       9.680  -1.067  24.474  0.00  0.00    -0.291 N 
ATOM     11  C   UNL     1       9.050  -0.809  25.774  0.00  0.00    +0.114 C 
ATOM     12  C   UNL     1       7.518  -0.980  25.718  0.00  0.00    +0.073 C 
ATOM     13  O   UNL     1      10.155  -2.683  22.890  0.00  0.00    -0.270 OA
ATOM     14  C   UNL     1       5.193  -4.867  23.502  0.00  0.00    +0.026 A 
ATOM     15  C   UNL     1       7.211  -2.202  24.919  0.00  0.00    +0.033 A 
ENDROOT
BRANCH  10  16
ATOM     16  C   UNL     1      10.516  -0.055  23.859  0.00  0.00    +0.165 C 
BRANCH  16  17
ATOM     17  C   UNL     1       9.745   0.886  22.999  0.00  0.00    +0.079 A 
ATOM     18  N   UNL     1       8.714   0.435  22.197  0.00  0.00    -0.239 NA
ATOM     19  C   UNL     1       8.300   1.489  21.534  0.00  0.00    +0.197 A 
ATOM     20  N   UNL     1       9.027   2.599  21.849  0.00  0.00    -0.348 N 
ATOM     21  H   UNL     1       8.904   3.520  21.451  0.00  0.00    +0.166 HD
ATOM     22  C   UNL     1       9.962   2.238  22.783  0.00  0.00    +0.037 A 
ATOM     23  C   UNL     1      10.945   3.198  23.336  0.00  0.00    +0.065 C 
ENDBRANCH  16  17
ENDBRANCH  10  16
TORSDOF 2
ENDMDL
MODEL 3
REMARK VINA RESULT:      -6.9      2.038      6.329
REMARK  Name = 
REMARK  4 active torsions:
REMARK  status: ('A' for Active; 'I' for Inactive)
REMARK    1  A    between atoms: C_1  and  N_2
REMARK    2  A    between atoms: N_13  and  C_14
REMARK    3  A    between atoms: C_14  and  C_15
REMARK    4  A    between atoms: C_16  and  C_17
REMARK                            x       y       z     vdW  Elec       q    Type
REMARK                         _______ _______ _______ _____ _____    ______ ____
ROOT
ATOM      1  C   UNL     1       7.049  -5.396  27.514  0.00  0.00    +0.149 C 
ATOM      2  N   UNL     1       6.868  -5.286  26.082  0.00  0.00    -0.346 N 
ATOM      3  C   UNL     1       5.790  -5.822  25.396  0.00  0.00    +0.050 A 
ATOM      4  C   UNL     1       5.875  -5.370  24.072  0.00  0.00    +0.012 A 
ATOM      5  C   UNL     1       4.881  -5.763  23.154  0.00  0.00    +0.011 A 
ATOM      6  C   UNL     1       3.831  -6.584  23.577  0.00  0.00    +0.001 A 
ATOM      7  C   UNL     1       3.752  -6.999  24.902  0.00  0.00    +0.002 A 
ATOM      8  C   UNL     1       7.003  -4.507  23.995  0.00  0.00    +0.065 A 
ATOM      9  C   UNL     1       7.414  -3.583  22.939  0.00  0.00    +0.249 C 
ATOM     10  N   UNL     1       8.544  -2.836  23.271  0.00  0.00    -0.291 N 
ATOM     11  C   UNL     1       9.543  -3.363  24.209  0.00  0.00    +0.114 C 
ATOM     12  C   UNL     1       8.904  -3.822  25.536  0.00  0.00    +0.073 C 
ATOM     13  O   UNL     1       6.732  -3.375  21.940  0.00  0.00    -0.270 OA
ATOM     14  C   UNL     1       4.726  -6.628  25.834  0.00  0.00    +0.026 A 
ATOM     15  C   UNL     1       7.648  -4.563  25.221  0.00  0.00    +0.033 A 
ENDROOT
BRANCH  10  16
ATOM     16  C   UNL     1       8.687  -1.498  22.734  0.00  0.00    +0.165 C 
BRANCH  16  17
ATOM     17  C   UNL     1       9.283  -0.544  23.711  0.00  0.00    +0.079 A 
ATOM     18  N   UNL     1      10.583  -0.097  23.567  0.00  0.00    -0.239 NA
ATOM     19  C   UNL     1      10.810   0.663  24.612  0.00  0.00    +0.197 A 
ATOM     20  N   UNL     1       9.727   0.715  25.440  0.00  0.00    -0.348 N 
ATOM     21  H   UNL     1       9.674   1.220  26.314  0.00  0.00    +0.166 HD
ATOM     22  C   UNL     1       8.737  -0.054  24.887  0.00  0.00    +0.037 A 
ATOM     23  C   UNL     1       7.420  -0.243  25.538  0.00  0.00    +0.065 C 
ENDBRANCH  16  17
ENDBRANCH  10  16
TORSDOF 2
ENDMDL
MODEL 4
REMARK VINA RESULT:      -6.6      2.173      6.366
REMARK  Name = 
REMARK  4 active torsions:
REMARK  status: ('A' for Active; 'I' for Inactive)
REMARK    1  A    between atoms: C_1  and  N_2
REMARK    2  A    between atoms: N_13  and  C_14
REMARK    3  A    between atoms: C_14  and  C_15
REMARK    4  A    between atoms: C_16  and  C_17
REMARK                            x       y       z     vdW  Elec       q    Type
REMARK                         _______ _______ _______ _____ _____    ______ ____
ROOT
ATOM      1  C   UNL     1       8.020  -1.979  26.865  0.00  0.00    +0.149 C 
ATOM      2  N   UNL     1       8.348  -2.118  25.463  0.00  0.00    -0.346 N 
ATOM      3  C   UNL     1       7.827  -3.105  24.641  0.00  0.00    +0.050 A 
ATOM      4  C   UNL     1       8.239  -2.816  23.333  0.00  0.00    +0.012 A 
ATOM      5  C   UNL     1       7.830  -3.668  22.287  0.00  0.00    +0.011 A 
ATOM      6  C   UNL     1       7.021  -4.773  22.569  0.00  0.00    +0.001 A 
ATOM      7  C   UNL     1       6.603  -5.027  23.871  0.00  0.00    +0.002 A 
ATOM      8  C   UNL     1       8.976  -1.601  23.385  0.00  0.00    +0.065 A 
ATOM      9  C   UNL     1       9.423  -0.722  22.304  0.00  0.00    +0.249 C 
ATOM     10  N   UNL     1      10.050   0.436  22.763  0.00  0.00    -0.291 N 
ATOM     11  C   UNL     1      10.751   0.451  24.053  0.00  0.00    +0.114 C 
ATOM     12  C   UNL     1       9.857  -0.058  25.202  0.00  0.00    +0.073 C 
ATOM     13  O   UNL     1       9.123  -0.913  21.130  0.00  0.00    -0.270 OA
ATOM     14  C   UNL     1       6.996  -4.201  24.929  0.00  0.00    +0.026 A 
ATOM     15  C   UNL     1       9.111  -1.257  24.721  0.00  0.00    +0.033 A 
ENDROOT
BRANCH  10  16
ATOM     16  C   UNL     1       9.942   1.652  21.983  0.00  0.00    +0.165 C 
BRANCH  16  17
ATOM     17  C   UNL     1       8.715   2.436  22.301  0.00  0.00    +0.079 A 
ATOM     18  N   UNL     1       7.549   2.256  21.582  0.00  0.00    -0.239 NA
ATOM     19  C   UNL     1       6.700   3.131  22.067  0.00  0.00    +0.197 A 
ATOM     20  N   UNL     1       7.264   3.886  23.054  0.00  0.00    -0.348 N 
ATOM     21  H   UNL     1       6.811   4.634  23.559  0.00  0.00    +0.166 HD
ATOM     22  C   UNL     1       8.557   3.462  23.219  0.00  0.00    +0.037 A 
ATOM     23  C   UNL     1       9.477   4.083  24.200  0.00  0.00    +0.065 C 
ENDBRANCH  16  17
ENDBRANCH  10  16
TORSDOF 2
ENDMDL
MODEL 5
REMARK VINA RESULT:      -6.6      2.365      6.611
REMARK  Name = 
REMARK  4 active torsions:
REMARK  status: ('A' for Active; 'I' for Inactive)
REMARK    1  A    between atoms: C_1  and  N_2
REMARK    2  A    between atoms: N_13  and  C_14
REMARK    3  A    between atoms: C_14  and  C_15
REMARK    4  A    between atoms: C_16  and  C_17
REMARK                            x       y       z     vdW  Elec       q    Type
REMARK                         _______ _______ _______ _____ _____    ______ ____
ROOT
ATOM      1  C   UNL     1       4.639  -6.007  22.987  0.00  0.00    +0.149 C 
ATOM      2  N   UNL     1       5.407  -5.197  23.908  0.00  0.00    -0.346 N 
ATOM      3  C   UNL     1       5.576  -5.501  25.249  0.00  0.00    +0.050 A 
ATOM      4  C   UNL     1       6.507  -4.591  25.767  0.00  0.00    +0.012 A 
ATOM      5  C   UNL     1       6.872  -4.689  27.125  0.00  0.00    +0.011 A 
ATOM      6  C   UNL     1       6.309  -5.688  27.924  0.00  0.00    +0.001 A 
ATOM      7  C   UNL     1       5.406  -6.598  27.384  0.00  0.00    +0.002 A 
ATOM      8  C   UNL     1       6.932  -3.767  24.688  0.00  0.00    +0.065 A 
ATOM      9  C   UNL     1       8.051  -2.829  24.602  0.00  0.00    +0.249 C 
ATOM     10  N   UNL     1       8.199  -2.267  23.334  0.00  0.00    -0.291 N 
ATOM     11  C   UNL     1       7.043  -2.109  22.442  0.00  0.00    +0.114 C 
ATOM     12  C   UNL     1       6.271  -3.432  22.257  0.00  0.00    +0.073 C 
ATOM     13  O   UNL     1       8.866  -2.686  25.508  0.00  0.00    -0.270 OA
ATOM     14  C   UNL     1       5.023  -6.522  26.041  0.00  0.00    +0.026 A 
ATOM     15  C   UNL     1       6.159  -4.100  23.587  0.00  0.00    +0.033 A 
ENDROOT
BRANCH  10  16
ATOM     16  C   UNL     1       9.524  -1.904  22.875  0.00  0.00    +0.165 C 
BRANCH  16  17
ATOM     17  C   UNL     1       9.704  -0.431  22.738  0.00  0.00    +0.079 A 
ATOM     18  N   UNL     1       9.505   0.200  21.525  0.00  0.00    -0.239 NA
ATOM     19  C   UNL     1       9.806   1.460  21.731  0.00  0.00    +0.197 A 
ATOM     20  N   UNL     1      10.212   1.676  23.016  0.00  0.00    -0.348 N 
ATOM     21  H   UNL     1      10.512   2.561  23.402  0.00  0.00    +0.166 HD
ATOM     22  C   UNL     1      10.160   0.478  23.680  0.00  0.00    +0.037 A 
ATOM     23  C   UNL     1      10.558   0.338  25.100  0.00  0.00    +0.065 C 
ENDBRANCH  16  17
ENDBRANCH  10  16
TORSDOF 2
ENDMDL
MODEL 6
REMARK VINA RESULT:      -6.6      1.595      2.102
REMARK  Name = 
REMARK  4 active torsions:
REMARK  status: ('A' for Active; 'I' for Inactive)
REMARK    1  A    between atoms: C_1  and  N_2
REMARK    2  A    between atoms: N_13  and  C_14
REMARK    3  A    between atoms: C_14  and  C_15
REMARK    4  A    between atoms: C_16  and  C_17
REMARK                            x       y       z     vdW  Elec       q    Type
REMARK                         _______ _______ _______ _____ _____    ______ ____
ROOT
ATOM      1  C   UNL     1       6.483   1.777  25.886  0.00  0.00    +0.149 C 
ATOM      2  N   UNL     1       7.241   1.201  24.796  0.00  0.00    -0.346 N 
ATOM      3  C   UNL     1       8.338   1.811  24.210  0.00  0.00    +0.050 A 
ATOM      4  C   UNL     1       8.901   0.888  23.319  0.00  0.00    +0.012 A 
ATOM      5  C   UNL     1      10.051   1.257  22.593  0.00  0.00    +0.011 A 
ATOM      6  C   UNL     1      10.612   2.524  22.778  0.00  0.00    +0.001 A 
ATOM      7  C   UNL     1      10.052   3.416  23.687  0.00  0.00    +0.002 A 
ATOM      8  C   UNL     1       8.143  -0.311  23.425  0.00  0.00    +0.065 A 
ATOM      9  C   UNL     1       8.426  -1.654  22.918  0.00  0.00    +0.249 C 
ATOM     10  N   UNL     1       7.475  -2.598  23.305  0.00  0.00    -0.291 N 
ATOM     11  C   UNL     1       6.089  -2.199  23.582  0.00  0.00    +0.114 C 
ATOM     12  C   UNL     1       6.013  -1.045  24.602  0.00  0.00    +0.073 C 
ATOM     13  O   UNL     1       9.478  -1.940  22.355  0.00  0.00    -0.270 OA
ATOM     14  C   UNL     1       8.909   3.079  24.418  0.00  0.00    +0.026 A 
ATOM     15  C   UNL     1       7.071  -0.048  24.263  0.00  0.00    +0.033 A 
ENDROOT
BRANCH  10  16
ATOM     16  C   UNL     1       7.887  -3.973  23.501  0.00  0.00    +0.165 C 
BRANCH  16  17
ATOM     17  C   UNL     1       6.987  -4.948  22.822  0.00  0.00    +0.079 A 
ATOM     18  N   UNL     1       7.064  -5.158  21.459  0.00  0.00    -0.239 NA
ATOM     19  C   UNL     1       6.107  -6.012  21.181  0.00  0.00    +0.197 A 
ATOM     20  N   UNL     1       5.397  -6.351  22.297  0.00  0.00    -0.348 N 
ATOM     21  H   UNL     1       4.604  -6.976  22.325  0.00  0.00    +0.166 HD
ATOM     22  C   UNL     1       5.940  -5.679  23.360  0.00  0.00    +0.037 A 
ATOM     23  C   UNL     1       5.397  -5.795  24.734  0.00  0.00    +0.065 C 
ENDBRANCH  16  17
ENDBRANCH  10  16
TORSDOF 2
ENDMDL
MODEL 7
REMARK VINA RESULT:      -6.6      2.148      3.074
REMARK  Name = 
REMARK  4 active torsions:
REMARK  status: ('A' for Active; 'I' for Inactive)
REMARK    1  A    between atoms: C_1  and  N_2
REMARK    2  A    between atoms: N_13  and  C_14
REMARK    3  A    between atoms: C_14  and  C_15
REMARK    4  A    between atoms: C_16  and  C_17
REMARK                            x       y       z     vdW  Elec       q    Type
REMARK                         _______ _______ _______ _____ _____    ______ ____
ROOT
ATOM      1  C   UNL     1      10.808   3.655  23.554  0.00  0.00    +0.149 C 
ATOM      2  N   UNL     1       9.584   2.886  23.603  0.00  0.00    -0.346 N 
ATOM      3  C   UNL     1       8.344   3.383  23.236  0.00  0.00    +0.050 A 
ATOM      4  C   UNL     1       7.443   2.309  23.256  0.00  0.00    +0.012 A 
ATOM      5  C   UNL     1       6.098   2.543  22.906  0.00  0.00    +0.011 A 
ATOM      6  C   UNL     1       5.689   3.828  22.539  0.00  0.00    +0.001 A 
ATOM      7  C   UNL     1       6.605   4.875  22.501  0.00  0.00    +0.002 A 
ATOM      8  C   UNL     1       8.187   1.145  23.594  0.00  0.00    +0.065 A 
ATOM      9  C   UNL     1       7.814  -0.267  23.521  0.00  0.00    +0.249 C 
ATOM     10  N   UNL     1       8.857  -1.129  23.859  0.00  0.00    -0.291 N 
ATOM     11  C   UNL     1       9.916  -0.701  24.782  0.00  0.00    +0.114 C 
ATOM     12  C   UNL     1      10.561   0.631  24.344  0.00  0.00    +0.073 C 
ATOM     13  O   UNL     1       6.746  -0.645  23.049  0.00  0.00    -0.270 OA
ATOM     14  C   UNL     1       7.945   4.673  22.847  0.00  0.00    +0.026 A 
ATOM     15  C   UNL     1       9.475   1.555  23.902  0.00  0.00    +0.033 A 
ENDROOT
BRANCH  10  16
ATOM     16  C   UNL     1       8.924  -2.433  23.233  0.00  0.00    +0.165 C 
BRANCH  16  17
ATOM     17  C   UNL     1       8.809  -3.551  24.212  0.00  0.00    +0.079 A 
ATOM     18  N   UNL     1       9.919  -4.279  24.595  0.00  0.00    -0.239 NA
ATOM     19  C   UNL     1       9.466  -5.211  25.399  0.00  0.00    +0.197 A 
ATOM     20  N   UNL     1       8.111  -5.137  25.542  0.00  0.00    -0.348 N 
ATOM     21  H   UNL     1       7.539  -5.760  26.095  0.00  0.00    +0.166 HD
ATOM     22  C   UNL     1       7.666  -4.083  24.788  0.00  0.00    +0.037 A 
ATOM     23  C   UNL     1       6.232  -3.725  24.691  0.00  0.00    +0.065 C 
ENDBRANCH  16  17
ENDBRANCH  10  16
TORSDOF 2
ENDMDL
MODEL 8
REMARK VINA RESULT:      -6.5      1.962      3.488
REMARK  Name = 
REMARK  4 active torsions:
REMARK  status: ('A' for Active; 'I' for Inactive)
REMARK    1  A    between atoms: C_1  and  N_2
REMARK    2  A    between atoms: N_13  and  C_14
REMARK    3  A    between atoms: C_14  and  C_15
REMARK    4  A    between atoms: C_16  and  C_17
REMARK                            x       y       z     vdW  Elec       q    Type
REMARK                         _______ _______ _______ _____ _____    ______ ____
ROOT
ATOM      1  C   UNL     1       9.829   1.038  21.891  0.00  0.00    +0.149 C 
ATOM      2  N   UNL     1       9.355   0.639  23.199  0.00  0.00    -0.346 N 
ATOM      3  C   UNL     1       8.752   1.502  24.100  0.00  0.00    +0.050 A 
ATOM      4  C   UNL     1       8.284   0.725  25.168  0.00  0.00    +0.012 A 
ATOM      5  C   UNL     1       7.611   1.364  26.230  0.00  0.00    +0.011 A 
ATOM      6  C   UNL     1       7.416   2.748  26.195  0.00  0.00    +0.001 A 
ATOM      7  C   UNL     1       7.866   3.496  25.112  0.00  0.00    +0.002 A 
ATOM      8  C   UNL     1       8.576  -0.632  24.860  0.00  0.00    +0.065 A 
ATOM      9  C   UNL     1       8.104  -1.865  25.490  0.00  0.00    +0.249 C 
ATOM     10  N   UNL     1       8.548  -3.017  24.841  0.00  0.00    -0.291 N 
ATOM     11  C   UNL     1       9.808  -3.018  24.087  0.00  0.00    +0.114 C 
ATOM     12  C   UNL     1       9.865  -1.873  23.055  0.00  0.00    +0.073 C 
ATOM     13  O   UNL     1       7.273  -1.870  26.392  0.00  0.00    -0.270 OA
ATOM     14  C   UNL     1       8.540   2.890  24.047  0.00  0.00    +0.026 A 
ATOM     15  C   UNL     1       9.326  -0.637  23.694  0.00  0.00    +0.033 A 
ENDROOT
BRANCH  10  16
ATOM     16  C   UNL     1       7.712  -4.200  24.857  0.00  0.00    +0.165 C 
BRANCH  16  17
ATOM     17  C   UNL     1       7.257  -4.605  23.497  0.00  0.00    +0.079 A 
ATOM     18  N   UNL     1       7.671  -5.796  22.934  0.00  0.00    -0.239 NA
ATOM     19  C   UNL     1       7.151  -5.814  21.729  0.00  0.00    +0.197 A 
ATOM     20  N   UNL     1       6.435  -4.681  21.475  0.00  0.00    -0.348 N 
ATOM     21  H   UNL     1       5.961  -4.462  20.609  0.00  0.00    +0.166 HD
ATOM     22  C   UNL     1       6.491  -3.889  22.591  0.00  0.00    +0.037 A 
ATOM     23  C   UNL     1       5.837  -2.561  22.657  0.00  0.00    +0.065 C 
ENDBRANCH  16  17
ENDBRANCH  10  16
TORSDOF 2
ENDMDL
MODEL 9
REMARK VINA RESULT:      -6.4      1.792      3.150
REMARK  Name = 
REMARK  4 active torsions:
REMARK  status: ('A' for Active; 'I' for Inactive)
REMARK    1  A    between atoms: C_1  and  N_2
REMARK    2  A    between atoms: N_13  and  C_14
REMARK    3  A    between atoms: C_14  and  C_15
REMARK    4  A    between atoms: C_16  and  C_17
REMARK                            x       y       z     vdW  Elec       q    Type
REMARK                         _______ _______ _______ _____ _____    ______ ____
ROOT
ATOM      1  C   UNL     1      10.170   1.868  22.062  0.00  0.00    +0.149 C 
ATOM      2  N   UNL     1       9.540   1.371  23.265  0.00  0.00    -0.346 N 
ATOM      3  C   UNL     1       8.890   2.176  24.187  0.00  0.00    +0.050 A 
ATOM      4  C   UNL     1       8.271   1.328  25.115  0.00  0.00    +0.012 A 
ATOM      5  C   UNL     1       7.522   1.899  26.165  0.00  0.00    +0.011 A 
ATOM      6  C   UNL     1       7.405   3.288  26.257  0.00  0.00    +0.001 A 
ATOM      7  C   UNL     1       8.006   4.111  25.310  0.00  0.00    +0.002 A 
ATOM      8  C   UNL     1       8.523  -0.007  24.696  0.00  0.00    +0.065 A 
ATOM      9  C   UNL     1       7.923  -1.265  25.141  0.00  0.00    +0.249 C 
ATOM     10  N   UNL     1       8.372  -2.372  24.422  0.00  0.00    -0.291 N 
ATOM     11  C   UNL     1       9.704  -2.377  23.804  0.00  0.00    +0.114 C 
ATOM     12  C   UNL     1       9.930  -1.141  22.909  0.00  0.00    +0.073 C 
ATOM     13  O   UNL     1       7.001  -1.308  25.950  0.00  0.00    -0.270 OA
ATOM     14  C   UNL     1       8.758   3.573  24.261  0.00  0.00    +0.026 A 
ATOM     15  C   UNL     1       9.391   0.057  23.618  0.00  0.00    +0.033 A 
ENDROOT
BRANCH  10  16
ATOM     16  C   UNL     1       7.479  -3.496  24.229  0.00  0.00    +0.165 C 
BRANCH  16  17
ATOM     17  C   UNL     1       7.461  -4.427  25.393  0.00  0.00    +0.079 A 
ATOM     18  N   UNL     1       6.312  -4.614  26.137  0.00  0.00    -0.239 NA
ATOM     19  C   UNL     1       6.652  -5.428  27.108  0.00  0.00    +0.197 A 
ATOM     20  N   UNL     1       7.973  -5.763  27.044  0.00  0.00    -0.348 N 
ATOM     21  H   UNL     1       8.465  -6.361  27.694  0.00  0.00    +0.166 HD
ATOM     22  C   UNL     1       8.514  -5.131  25.956  0.00  0.00    +0.037 A 
ATOM     23  C   UNL     1       9.946  -5.253  25.596  0.00  0.00    +0.065 C 
ENDBRANCH  16  17
ENDBRANCH  10  16
TORSDOF 2
ENDMDL
