MODEL 1
REMARK VINA RESULT:      -7.6      0.000      0.000
REMARK  Name = 
REMARK  2 active torsions:
REMARK  status: ('A' for Active; 'I' for Inactive)
REMARK    1  A    between atoms: O_1  and  C_2
REMARK    2  A    between atoms: C_4  and  O_5
REMARK                            x       y       z     vdW  Elec       q    Type
REMARK                         _______ _______ _______ _____ _____    ______ ____
ROOT
ATOM      1  C   UNL     1       5.075  -6.539  26.001  0.00  0.00    +0.139 A 
ATOM      2  C   UNL     1       6.183  -5.753  25.983  0.00  0.00    +0.087 A 
ATOM      3 CL   UNL     1       7.184  -5.642  27.404  0.00  0.00    -0.079 Cl
ATOM      4  C   UNL     1       6.475  -5.028  24.803  0.00  0.00    -0.001 A 
ATOM      5  C   UNL     1       7.387  -3.944  24.913  0.00  0.00    +0.112 C 
ATOM      6  C   UNL     1       7.503  -2.994  26.005  0.00  0.00    +0.138 C 
ATOM      7  C   UNL     1       8.437  -2.056  25.458  0.00  0.00    +0.075 C 
ATOM      8  C   UNL     1       9.068  -1.036  26.325  0.00  0.00    +0.012 C 
ATOM      9  C   UNL     1       9.493  -0.267  25.129  0.00  0.00    +0.027 C 
ATOM     10  C   UNL     1      10.120   0.982  24.734  0.00  0.00    -0.031 C 
ATOM     11  C   UNL     1       9.994   0.917  23.367  0.00  0.00    -0.028 C 
ATOM     12  C   UNL     1       9.909  -0.469  22.432  0.00  0.00    +0.068 C 
ATOM     13  C   UNL     1       8.620  -1.599  21.860  0.00  0.00    +0.236 C 
ATOM     14  O   UNL     1       7.851  -2.920  22.616  0.00  0.00    -0.461 OA
ATOM     15  C   UNL     1       6.689  -3.964  22.235  0.00  0.00    +0.343 C 
ATOM     16  O   UNL     1       6.250  -3.888  21.110  0.00  0.00    -0.245 OA
ATOM     17  O   UNL     1       6.737  -2.802  26.922  0.00  0.00    -0.297 OA
ATOM     18  C   UNL     1       5.977  -5.077  23.459  0.00  0.00    +0.105 A 
ATOM     19  C   UNL     1       4.901  -6.010  23.509  0.00  0.00    +0.135 A 
ATOM     20  C   UNL     1       4.433  -6.695  24.773  0.00  0.00    +0.093 A 
ENDROOT
BRANCH   1  21
ATOM     21  O   UNL     1       4.716  -7.099  27.191  0.00  0.00    -0.505 OA
ATOM     22  H   UNL     1       5.438  -7.169  27.829  0.00  0.00    +0.292 HD
ENDBRANCH   1  21
BRANCH  19  23
ATOM     23  O   UNL     1       4.154  -6.392  22.394  0.00  0.00    -0.506 OA
ATOM     24  H   UNL     1       3.227  -6.054  22.534  0.00  0.00    +0.292 HD
ENDBRANCH  19  23
TORSDOF 2
ENDMDL
MODEL 2
REMARK VINA RESULT:      -7.0      3.816      5.585
REMARK  Name = 
REMARK  2 active torsions:
REMARK  status: ('A' for Active; 'I' for Inactive)
REMARK    1  A    between atoms: O_1  and  C_2
REMARK    2  A    between atoms: C_4  and  O_5
REMARK                            x       y       z     vdW  Elec       q    Type
REMARK                         _______ _______ _______ _____ _____    ______ ____
ROOT
ATOM      1  C   UNL     1       8.429  -2.846  24.094  0.00  0.00    +0.139 A 
ATOM      2  C   UNL     1       8.879  -1.682  23.556  0.00  0.00    +0.087 A 
ATOM      3 CL   UNL     1      10.437  -1.637  22.779  0.00  0.00    -0.079 Cl
ATOM      4  C   UNL     1       8.063  -0.530  23.667  0.00  0.00    -0.001 A 
ATOM      5  C   UNL     1       8.684   0.730  23.453  0.00  0.00    +0.112 C 
ATOM      6  C   UNL     1      10.015   1.141  23.864  0.00  0.00    +0.138 C 
ATOM      7  C   UNL     1       9.985   2.536  23.546  0.00  0.00    +0.075 C 
ATOM      8  C   UNL     1      11.232   3.333  23.551  0.00  0.00    +0.012 C 
ATOM      9  C   UNL     1      10.443   4.589  23.570  0.00  0.00    +0.027 C 
ATOM     10  C   UNL     1      10.586   6.030  23.679  0.00  0.00    -0.031 C 
ATOM     11  C   UNL     1       9.271   6.422  23.733  0.00  0.00    -0.028 C 
ATOM     12  C   UNL     1       7.958   5.621  23.071  0.00  0.00    +0.068 C 
ATOM     13  C   UNL     1       6.817   4.313  23.577  0.00  0.00    +0.236 C 
ATOM     14  O   UNL     1       6.958   2.614  23.557  0.00  0.00    -0.461 OA
ATOM     15  C   UNL     1       6.047   1.366  24.001  0.00  0.00    +0.343 C 
ATOM     16  O   UNL     1       4.935   1.629  24.399  0.00  0.00    -0.245 OA
ATOM     17  O   UNL     1      10.771   0.589  24.631  0.00  0.00    -0.297 OA
ATOM     18  C   UNL     1       6.698  -0.314  24.047  0.00  0.00    +0.105 A 
ATOM     19  C   UNL     1       6.239  -1.591  24.481  0.00  0.00    +0.135 A 
ATOM     20  C   UNL     1       7.109  -2.826  24.543  0.00  0.00    +0.093 A 
ENDROOT
BRANCH   1  21
ATOM     21  O   UNL     1       9.290  -3.902  24.125  0.00  0.00    -0.505 OA
ATOM     22  H   UNL     1       9.536  -4.240  23.254  0.00  0.00    +0.292 HD
ENDBRANCH   1  21
BRANCH  19  23
ATOM     23  O   UNL     1       4.934  -1.842  24.905  0.00  0.00    -0.506 OA
ATOM     24  H   UNL     1       4.977  -2.605  25.544  0.00  0.00    +0.292 HD
ENDBRANCH  19  23
TORSDOF 2
ENDMDL
MODEL 3
REMARK VINA RESULT:      -6.7      4.306      7.018
REMARK  Name = 
REMARK  2 active torsions:
REMARK  status: ('A' for Active; 'I' for Inactive)
REMARK    1  A    between atoms: O_1  and  C_2
REMARK    2  A    between atoms: C_4  and  O_5
REMARK                            x       y       z     vdW  Elec       q    Type
REMARK                         _______ _______ _______ _____ _____    ______ ____
ROOT
ATOM      1  C   UNL     1       9.855  -1.456  22.938  0.00  0.00    +0.139 A 
ATOM      2  C   UNL     1       9.403  -0.175  22.986  0.00  0.00    +0.087 A 
ATOM      3 CL   UNL     1       9.603   0.862  21.601  0.00  0.00    -0.079 Cl
ATOM      4  C   UNL     1       8.796   0.280  24.182  0.00  0.00    -0.001 A 
ATOM      5  C   UNL     1       8.679   1.685  24.358  0.00  0.00    +0.112 C 
ATOM      6  C   UNL     1       9.639   2.707  23.981  0.00  0.00    +0.138 C 
ATOM      7  C   UNL     1       9.055   3.870  24.579  0.00  0.00    +0.075 C 
ATOM      8  C   UNL     1       9.556   5.220  24.235  0.00  0.00    +0.012 C 
ATOM      9  C   UNL     1       8.866   5.788  25.419  0.00  0.00    +0.027 C 
ATOM     10  C   UNL     1       8.712   7.021  26.172  0.00  0.00    -0.031 C 
ATOM     11  C   UNL     1       7.958   6.586  27.235  0.00  0.00    -0.028 C 
ATOM     12  C   UNL     1       6.890   5.297  27.247  0.00  0.00    +0.068 C 
ATOM     13  C   UNL     1       6.975   3.514  27.534  0.00  0.00    +0.236 C 
ATOM     14  O   UNL     1       7.412   2.220  26.514  0.00  0.00    -0.461 OA
ATOM     15  C   UNL     1       7.557   0.625  26.655  0.00  0.00    +0.343 C 
ATOM     16  O   UNL     1       7.222   0.149  27.716  0.00  0.00    -0.245 OA
ATOM     17  O   UNL     1      10.793   2.569  23.643  0.00  0.00    -0.297 OA
ATOM     18  C   UNL     1       8.320  -0.375  25.365  0.00  0.00    +0.105 A 
ATOM     19  C   UNL     1       8.708  -1.736  25.203  0.00  0.00    +0.135 A 
ATOM     20  C   UNL     1       9.502  -2.255  24.025  0.00  0.00    +0.093 A 
ENDROOT
BRANCH   1  21
ATOM     21  O   UNL     1      10.580  -1.830  21.847  0.00  0.00    -0.505 OA
ATOM     22  H   UNL     1      10.501  -1.230  21.094  0.00  0.00    +0.292 HD
ENDBRANCH   1  21
BRANCH  19  23
ATOM     23  O   UNL     1       8.402  -2.743  26.119  0.00  0.00    -0.506 OA
ATOM     24  H   UNL     1       7.409  -2.805  26.165  0.00  0.00    +0.292 HD
ENDBRANCH  19  23
TORSDOF 2
ENDMDL
MODEL 4
REMARK VINA RESULT:      -6.6      2.098      6.189
REMARK  Name = 
REMARK  2 active torsions:
REMARK  status: ('A' for Active; 'I' for Inactive)
REMARK    1  A    between atoms: O_1  and  C_2
REMARK    2  A    between atoms: C_4  and  O_5
REMARK                            x       y       z     vdW  Elec       q    Type
REMARK                         _______ _______ _______ _____ _____    ______ ____
ROOT
ATOM      1  C   UNL     1      10.137  -0.196  24.524  0.00  0.00    +0.139 A 
ATOM      2  C   UNL     1       9.087  -0.799  25.142  0.00  0.00    +0.087 A 
ATOM      3 CL   UNL     1       8.824  -0.538  26.844  0.00  0.00    -0.079 Cl
ATOM      4  C   UNL     1       8.247  -1.641  24.375  0.00  0.00    -0.001 A 
ATOM      5  C   UNL     1       7.409  -2.544  25.082  0.00  0.00    +0.112 C 
ATOM      6  C   UNL     1       7.729  -3.288  26.287  0.00  0.00    +0.138 C 
ATOM      7  C   UNL     1       6.587  -4.145  26.396  0.00  0.00    +0.075 C 
ATOM      8  C   UNL     1       6.343  -4.914  27.637  0.00  0.00    +0.012 C 
ATOM      9  C   UNL     1       5.374  -5.781  26.922  0.00  0.00    +0.027 C 
ATOM     10  C   UNL     1       4.552  -6.965  27.096  0.00  0.00    -0.031 C 
ATOM     11  C   UNL     1       4.056  -7.129  25.826  0.00  0.00    -0.028 C 
ATOM     12  C   UNL     1       3.808  -5.930  24.683  0.00  0.00    +0.068 C 
ATOM     13  C   UNL     1       4.779  -5.110  23.398  0.00  0.00    +0.236 C 
ATOM     14  O   UNL     1       5.894  -3.823  23.466  0.00  0.00    -0.461 OA
ATOM     15  C   UNL     1       6.831  -3.038  22.421  0.00  0.00    +0.343 C 
ATOM     16  O   UNL     1       6.713  -3.349  21.258  0.00  0.00    -0.245 OA
ATOM     17  O   UNL     1       8.810  -3.453  26.807  0.00  0.00    -0.297 OA
ATOM     18  C   UNL     1       8.092  -1.873  22.968  0.00  0.00    +0.105 A 
ATOM     19  C   UNL     1       9.137  -1.118  22.362  0.00  0.00    +0.135 A 
ATOM     20  C   UNL     1      10.168  -0.328  23.136  0.00  0.00    +0.093 A 
ENDROOT
BRANCH   1  21
ATOM     21  O   UNL     1      11.028   0.476  25.304  0.00  0.00    -0.505 OA
ATOM     22  H   UNL     1      11.788   0.830  24.824  0.00  0.00    +0.292 HD
ENDBRANCH   1  21
BRANCH  19  23
ATOM     23  O   UNL     1       9.329  -1.028  20.983  0.00  0.00    -0.506 OA
ATOM     24  H   UNL     1       9.005  -0.130  20.701  0.00  0.00    +0.292 HD
ENDBRANCH  19  23
TORSDOF 2
ENDMDL
MODEL 5
REMARK VINA RESULT:      -6.5      2.334      3.230
REMARK  Name = 
REMARK  2 active torsions:
REMARK  status: ('A' for Active; 'I' for Inactive)
REMARK    1  A    between atoms: O_1  and  C_2
REMARK    2  A    between atoms: C_4  and  O_5
REMARK                            x       y       z     vdW  Elec       q    Type
REMARK                         _______ _______ _______ _____ _____    ______ ____
ROOT
ATOM      1  C   UNL     1       4.768  -6.227  24.137  0.00  0.00    +0.139 A 
ATOM      2  C   UNL     1       5.585  -5.283  23.599  0.00  0.00    +0.087 A 
ATOM      3 CL   UNL     1       6.673  -5.718  22.311  0.00  0.00    -0.079 Cl
ATOM      4  C   UNL     1       5.534  -3.970  24.126  0.00  0.00    -0.001 A 
ATOM      5  C   UNL     1       6.627  -3.110  23.835  0.00  0.00    +0.112 C 
ATOM      6  C   UNL     1       8.034  -3.460  23.765  0.00  0.00    +0.138 C 
ATOM      7  C   UNL     1       8.635  -2.167  23.633  0.00  0.00    +0.075 C 
ATOM      8  C   UNL     1      10.063  -2.039  23.262  0.00  0.00    +0.012 C 
ATOM      9  C   UNL     1      10.062  -0.623  23.706  0.00  0.00    +0.027 C 
ATOM     10  C   UNL     1      10.943   0.514  23.907  0.00  0.00    -0.031 C 
ATOM     11  C   UNL     1      10.081   1.414  24.485  0.00  0.00    -0.028 C 
ATOM     12  C   UNL     1       8.422   1.492  24.274  0.00  0.00    +0.068 C 
ATOM     13  C   UNL     1       6.959   0.740  25.022  0.00  0.00    +0.236 C 
ATOM     14  O   UNL     1       6.203  -0.767  24.770  0.00  0.00    -0.461 OA
ATOM     15  C   UNL     1       4.941  -1.553  25.382  0.00  0.00    +0.343 C 
ATOM     16  O   UNL     1       4.273  -0.947  26.189  0.00  0.00    -0.245 OA
ATOM     17  O   UNL     1       8.577  -4.476  24.135  0.00  0.00    -0.297 OA
ATOM     18  C   UNL     1       4.630  -3.287  25.005  0.00  0.00    +0.105 A 
ATOM     19  C   UNL     1       3.721  -4.295  25.438  0.00  0.00    +0.135 A 
ATOM     20  C   UNL     1       3.820  -5.751  25.041  0.00  0.00    +0.093 A 
ENDROOT
BRANCH   1  21
ATOM     21  O   UNL     1       4.943  -7.517  23.735  0.00  0.00    -0.505 OA
ATOM     22  H   UNL     1       5.368  -7.610  22.873  0.00  0.00    +0.292 HD
ENDBRANCH   1  21
BRANCH  19  23
ATOM     23  O   UNL     1       2.639  -4.050  26.285  0.00  0.00    -0.506 OA
ATOM     24  H   UNL     1       2.449  -4.900  26.768  0.00  0.00    +0.292 HD
ENDBRANCH  19  23
TORSDOF 2
ENDMDL
MODEL 6
REMARK VINA RESULT:      -6.5      2.751      7.338
REMARK  Name = 
REMARK  2 active torsions:
REMARK  status: ('A' for Active; 'I' for Inactive)
REMARK    1  A    between atoms: O_1  and  C_2
REMARK    2  A    between atoms: C_4  and  O_5
REMARK                            x       y       z     vdW  Elec       q    Type
REMARK                         _______ _______ _______ _____ _____    ______ ____
ROOT
ATOM      1  C   UNL     1       9.616   1.506  22.698  0.00  0.00    +0.139 A 
ATOM      2  C   UNL     1       9.476   0.175  22.938  0.00  0.00    +0.087 A 
ATOM      3 CL   UNL     1      10.184  -0.977  21.841  0.00  0.00    -0.079 Cl
ATOM      4  C   UNL     1       8.733  -0.229  24.073  0.00  0.00    -0.001 A 
ATOM      5  C   UNL     1       8.276  -1.573  24.107  0.00  0.00    +0.112 C 
ATOM      6  C   UNL     1       7.774  -2.365  22.997  0.00  0.00    +0.138 C 
ATOM      7  C   UNL     1       7.302  -3.531  23.680  0.00  0.00    +0.075 C 
ATOM      8  C   UNL     1       6.936  -4.748  22.919  0.00  0.00    +0.012 C 
ATOM      9  C   UNL     1       6.216  -5.283  24.101  0.00  0.00    +0.027 C 
ATOM     10  C   UNL     1       5.368  -6.383  24.523  0.00  0.00    -0.031 C 
ATOM     11  C   UNL     1       5.052  -5.995  25.803  0.00  0.00    -0.028 C 
ATOM     12  C   UNL     1       5.974  -5.032  26.815  0.00  0.00    +0.068 C 
ATOM     13  C   UNL     1       6.184  -3.264  27.125  0.00  0.00    +0.236 C 
ATOM     14  O   UNL     1       7.108  -2.074  26.326  0.00  0.00    -0.461 OA
ATOM     15  C   UNL     1       7.350  -0.491  26.479  0.00  0.00    +0.343 C 
ATOM     16  O   UNL     1       6.820   0.042  27.427  0.00  0.00    -0.245 OA
ATOM     17  O   UNL     1       7.452  -1.993  21.891  0.00  0.00    -0.297 OA
ATOM     18  C   UNL     1       8.231   0.458  25.227  0.00  0.00    +0.105 A 
ATOM     19  C   UNL     1       8.518   1.832  24.981  0.00  0.00    +0.135 A 
ATOM     20  C   UNL     1       9.162   2.347  23.713  0.00  0.00    +0.093 A 
ENDROOT
BRANCH   1  21
ATOM     21  O   UNL     1      10.189   1.879  21.519  0.00  0.00    -0.505 OA
ATOM     22  H   UNL     1      10.584   2.760  21.531  0.00  0.00    +0.292 HD
ENDBRANCH   1  21
BRANCH  19  23
ATOM     23  O   UNL     1       8.231   2.858  25.882  0.00  0.00    -0.506 OA
ATOM     24  H   UNL     1       7.263   3.070  25.782  0.00  0.00    +0.292 HD
ENDBRANCH  19  23
TORSDOF 2
ENDMDL
MODEL 7
REMARK VINA RESULT:      -6.5      3.396      7.327
REMARK  Name = 
REMARK  2 active torsions:
REMARK  status: ('A' for Active; 'I' for Inactive)
REMARK    1  A    between atoms: O_1  and  C_2
REMARK    2  A    between atoms: C_4  and  O_5
REMARK                            x       y       z     vdW  Elec       q    Type
REMARK                         _______ _______ _______ _____ _____    ______ ____
ROOT
ATOM      1  C   UNL     1       9.318   2.022  22.289  0.00  0.00    +0.139 A 
ATOM      2  C   UNL     1       9.208   0.808  22.891  0.00  0.00    +0.087 A 
ATOM      3 CL   UNL     1      10.513  -0.338  22.764  0.00  0.00    -0.079 Cl
ATOM      4  C   UNL     1       8.014   0.510  23.590  0.00  0.00    -0.001 A 
ATOM      5  C   UNL     1       7.754  -0.856  23.880  0.00  0.00    +0.112 C 
ATOM      6  C   UNL     1       8.020  -2.006  23.034  0.00  0.00    +0.138 C 
ATOM      7  C   UNL     1       7.376  -3.050  23.773  0.00  0.00    +0.075 C 
ATOM      8  C   UNL     1       7.610  -4.469  23.424  0.00  0.00    +0.012 C 
ATOM      9  C   UNL     1       6.423  -4.871  24.219  0.00  0.00    +0.027 C 
ATOM     10  C   UNL     1       5.600  -6.022  24.545  0.00  0.00    -0.031 C 
ATOM     11  C   UNL     1       4.602  -5.431  25.281  0.00  0.00    -0.028 C 
ATOM     12  C   UNL     1       4.721  -4.029  26.188  0.00  0.00    +0.068 C 
ATOM     13  C   UNL     1       4.545  -2.253  25.904  0.00  0.00    +0.236 C 
ATOM     14  O   UNL     1       5.626  -1.091  25.280  0.00  0.00    -0.461 OA
ATOM     15  C   UNL     1       5.582   0.482  24.951  0.00  0.00    +0.343 C 
ATOM     16  O   UNL     1       4.570   1.066  25.267  0.00  0.00    -0.245 OA
ATOM     17  O   UNL     1       8.315  -2.026  21.860  0.00  0.00    -0.297 OA
ATOM     18  C   UNL     1       6.898   1.296  24.029  0.00  0.00    +0.105 A 
ATOM     19  C   UNL     1       7.130   2.588  23.477  0.00  0.00    +0.135 A 
ATOM     20  C   UNL     1       8.302   2.929  22.584  0.00  0.00    +0.093 A 
ENDROOT
BRANCH   1  21
ATOM     21  O   UNL     1      10.398   2.233  21.485  0.00  0.00    -0.505 OA
ATOM     22  H   UNL     1      10.557   3.161  21.270  0.00  0.00    +0.292 HD
ENDBRANCH   1  21
BRANCH  19  23
ATOM     23  O   UNL     1       6.295   3.685  23.694  0.00  0.00    -0.506 OA
ATOM     24  H   UNL     1       5.478   3.343  24.151  0.00  0.00    +0.292 HD
ENDBRANCH  19  23
TORSDOF 2
ENDMDL
MODEL 8
REMARK VINA RESULT:      -6.4      3.263      4.621
REMARK  Name = 
REMARK  2 active torsions:
REMARK  status: ('A' for Active; 'I' for Inactive)
REMARK    1  A    between atoms: O_1  and  C_2
REMARK    2  A    between atoms: C_4  and  O_5
REMARK                            x       y       z     vdW  Elec       q    Type
REMARK                         _______ _______ _______ _____ _____    ______ ____
ROOT
ATOM      1  C   UNL     1       9.115  -4.250  24.932  0.00  0.00    +0.139 A 
ATOM      2  C   UNL     1       9.056  -3.002  24.396  0.00  0.00    +0.087 A 
ATOM      3 CL   UNL     1      10.388  -2.411  23.441  0.00  0.00    -0.079 Cl
ATOM      4  C   UNL     1       7.910  -2.212  24.653  0.00  0.00    -0.001 A 
ATOM      5  C   UNL     1       8.018  -0.814  24.422  0.00  0.00    +0.112 C 
ATOM      6  C   UNL     1       9.162   0.040  24.688  0.00  0.00    +0.138 C 
ATOM      7  C   UNL     1       8.605   1.335  24.438  0.00  0.00    +0.075 C 
ATOM      8  C   UNL     1       9.485   2.521  24.328  0.00  0.00    +0.012 C 
ATOM      9  C   UNL     1       8.315   3.418  24.497  0.00  0.00    +0.027 C 
ATOM     10  C   UNL     1       7.958   4.817  24.650  0.00  0.00    -0.031 C 
ATOM     11  C   UNL     1       6.607   4.719  24.877  0.00  0.00    -0.028 C 
ATOM     12  C   UNL     1       5.584   3.506  24.343  0.00  0.00    +0.068 C 
ATOM     13  C   UNL     1       5.047   1.881  24.923  0.00  0.00    +0.236 C 
ATOM     14  O   UNL     1       5.770   0.341  24.813  0.00  0.00    -0.461 OA
ATOM     15  C   UNL     1       5.418  -1.148  25.307  0.00  0.00    +0.343 C 
ATOM     16  O   UNL     1       4.344  -1.293  25.846  0.00  0.00    -0.245 OA
ATOM     17  O   UNL     1      10.154  -0.208  25.336  0.00  0.00    -0.297 OA
ATOM     18  C   UNL     1       6.615  -2.490  25.203  0.00  0.00    +0.105 A 
ATOM     19  C   UNL     1       6.692  -3.846  25.632  0.00  0.00    +0.135 A 
ATOM     20  C   UNL     1       7.939  -4.695  25.535  0.00  0.00    +0.093 A 
ENDROOT
BRANCH   1  21
ATOM     21  O   UNL     1      10.287  -4.934  24.815  0.00  0.00    -0.505 OA
ATOM     22  H   UNL     1      10.708  -4.854  23.949  0.00  0.00    +0.292 HD
ENDBRANCH   1  21
BRANCH  19  23
ATOM     23  O   UNL     1       5.622  -4.542  26.197  0.00  0.00    -0.506 OA
ATOM     24  H   UNL     1       5.728  -5.498  25.940  0.00  0.00    +0.292 HD
ENDBRANCH  19  23
TORSDOF 2
ENDMDL
MODEL 9
REMARK VINA RESULT:      -6.4      2.452      3.388
REMARK  Name = 
REMARK  2 active torsions:
REMARK  status: ('A' for Active; 'I' for Inactive)
REMARK    1  A    between atoms: O_1  and  C_2
REMARK    2  A    between atoms: C_4  and  O_5
REMARK                            x       y       z     vdW  Elec       q    Type
REMARK                         _______ _______ _______ _____ _____    ______ ____
ROOT
ATOM      1  C   UNL     1       5.810  -4.503  25.833  0.00  0.00    +0.139 A 
ATOM      2  C   UNL     1       6.206  -3.230  26.101  0.00  0.00    +0.087 A 
ATOM      3 CL   UNL     1       5.320  -2.278  27.258  0.00  0.00    -0.079 Cl
ATOM      4  C   UNL     1       7.326  -2.714  25.405  0.00  0.00    -0.001 A 
ATOM      5  C   UNL     1       7.496  -1.303  25.402  0.00  0.00    +0.112 C 
ATOM      6  C   UNL     1       6.462  -0.288  25.307  0.00  0.00    +0.138 C 
ATOM      7  C   UNL     1       7.250   0.898  25.161  0.00  0.00    +0.075 C 
ATOM      8  C   UNL     1       6.626   2.234  25.291  0.00  0.00    +0.012 C 
ATOM      9  C   UNL     1       7.810   2.861  24.654  0.00  0.00    +0.027 C 
ATOM     10  C   UNL     1       8.305   4.135  24.162  0.00  0.00    -0.031 C 
ATOM     11  C   UNL     1       9.498   3.752  23.598  0.00  0.00    -0.028 C 
ATOM     12  C   UNL     1      10.444   2.446  24.044  0.00  0.00    +0.068 C 
ATOM     13  C   UNL     1      10.542   0.687  23.641  0.00  0.00    +0.236 C 
ATOM     14  O   UNL     1       9.669  -0.660  24.217  0.00  0.00    -0.461 OA
ATOM     15  C   UNL     1       9.637  -2.240  23.921  0.00  0.00    +0.343 C 
ATOM     16  O   UNL     1      10.468  -2.656  23.146  0.00  0.00    -0.245 OA
ATOM     17  O   UNL     1       5.297  -0.424  25.009  0.00  0.00    -0.297 OA
ATOM     18  C   UNL     1       8.343  -3.303  24.584  0.00  0.00    +0.105 A 
ATOM     19  C   UNL     1       7.946  -4.664  24.442  0.00  0.00    +0.135 A 
ATOM     20  C   UNL     1       6.674  -5.239  25.023  0.00  0.00    +0.093 A 
ENDROOT
BRANCH   1  21
ATOM     21  O   UNL     1       4.639  -4.929  26.384  0.00  0.00    -0.505 OA
ATOM     22  H   UNL     1       3.984  -5.230  25.740  0.00  0.00    +0.292 HD
ENDBRANCH   1  21
BRANCH  19  23
ATOM     23  O   UNL     1       8.686  -5.618  23.742  0.00  0.00    -0.506 OA
ATOM     24  H   UNL     1       9.505  -5.162  23.406  0.00  0.00    +0.292 HD
ENDBRANCH  19  23
TORSDOF 2
ENDMDL
