MODEL 1
REMARK VINA RESULT:      -3.6      0.000      0.000
REMARK  Name = 
REMARK  7 active torsions:
REMARK  status: ('A' for Active; 'I' for Inactive)
REMARK    1  A    between atoms: O_1  and  C_2
REMARK    2  A    between atoms: C_2  and  C_3
REMARK    3  A    between atoms: C_3  and  O_5
REMARK    4  A    between atoms: C_3  and  C_6
REMARK    5  A    between atoms: C_6  and  O_8
REMARK    6  A    between atoms: C_6  and  C_9
REMARK    7  A    between atoms: C_9  and  O_10
REMARK                            x       y       z     vdW  Elec       q    Type
REMARK                         _______ _______ _______ _____ _____    ______ ____
ROOT
ATOM      1  C   UNL     1       8.903  -5.497  25.372  0.00  0.00    +0.170 C 
ENDROOT
BRANCH   1   2
ATOM      2  O   UNL     1      10.338  -5.574  25.353  0.00  0.00    -0.387 OA
ATOM      3  H   UNL     1      10.570  -6.521  25.328  0.00  0.00    +0.210 HD
ENDBRANCH   1   2
BRANCH   1   4
ATOM      4  C   UNL     1       8.450  -4.857  26.693  0.00  0.00    +0.189 C 
BRANCH   4   5
ATOM      5  O   UNL     1       7.884  -5.861  27.539  0.00  0.00    -0.392 OA
ATOM      6  H   UNL     1       7.667  -5.428  28.384  0.00  0.00    +0.210 HD
ENDBRANCH   4   5
ENDBRANCH   1   4
BRANCH   1   7
ATOM      7  C   UNL     1       8.422  -4.720  24.129  0.00  0.00    +0.170 C 
BRANCH   7   8
ATOM      8  O   UNL     1       7.005  -4.825  23.981  0.00  0.00    -0.387 OA
ATOM      9  H   UNL     1       6.773  -4.483  23.098  0.00  0.00    +0.210 HD
ENDBRANCH   7   8
BRANCH   7  10
ATOM     10  C   UNL     1       8.825  -3.235  24.146  0.00  0.00    +0.189 C 
BRANCH  10  11
ATOM     11  O   UNL     1      10.206  -3.044  23.860  0.00  0.00    -0.392 OA
ATOM     12  H   UNL     1      10.272  -2.820  22.909  0.00  0.00    +0.210 HD
ENDBRANCH  10  11
ENDBRANCH   7  10
ENDBRANCH   1   7
TORSDOF 7
ENDMDL
MODEL 2
REMARK VINA RESULT:      -3.6      3.578      6.031
REMARK  Name = 
REMARK  7 active torsions:
REMARK  status: ('A' for Active; 'I' for Inactive)
REMARK    1  A    between atoms: O_1  and  C_2
REMARK    2  A    between atoms: C_2  and  C_3
REMARK    3  A    between atoms: C_3  and  O_5
REMARK    4  A    between atoms: C_3  and  C_6
REMARK    5  A    between atoms: C_6  and  O_8
REMARK    6  A    between atoms: C_6  and  C_9
REMARK    7  A    between atoms: C_9  and  O_10
REMARK                            x       y       z     vdW  Elec       q    Type
REMARK                         _______ _______ _______ _____ _____    ______ ____
ROOT
ATOM      1  C   UNL     1      10.177  -0.351  22.003  0.00  0.00    +0.170 C 
ENDROOT
BRANCH   1   2
ATOM      2  O   UNL     1       9.878  -1.608  21.373  0.00  0.00    -0.387 OA
ATOM      3  H   UNL     1      10.134  -1.524  20.437  0.00  0.00    +0.210 HD
ENDBRANCH   1   2
BRANCH   1   4
ATOM      4  C   UNL     1       9.172   0.707  21.518  0.00  0.00    +0.189 C 
BRANCH   4   5
ATOM      5  O   UNL     1       9.807   1.988  21.488  0.00  0.00    -0.392 OA
ATOM      6  H   UNL     1      10.740   1.845  21.725  0.00  0.00    +0.210 HD
ENDBRANCH   4   5
ENDBRANCH   1   4
BRANCH   1   7
ATOM      7  C   UNL     1      10.165  -0.535  23.534  0.00  0.00    +0.170 C 
BRANCH   7   8
ATOM      8  O   UNL     1       9.599   0.606  24.180  0.00  0.00    -0.387 OA
ATOM      9  H   UNL     1       9.651   1.354  23.557  0.00  0.00    +0.210 HD
ENDBRANCH   7   8
BRANCH   7  10
ATOM     10  C   UNL     1       9.419  -1.802  23.989  0.00  0.00    +0.189 C 
BRANCH  10  11
ATOM     11  O   UNL     1      10.211  -2.977  23.853  0.00  0.00    -0.392 OA
ATOM     12  H   UNL     1      10.948  -2.755  23.247  0.00  0.00    +0.210 HD
ENDBRANCH  10  11
ENDBRANCH   7  10
ENDBRANCH   1   7
TORSDOF 7
ENDMDL
MODEL 3
REMARK VINA RESULT:      -3.6      0.083      3.621
REMARK  Name = 
REMARK  7 active torsions:
REMARK  status: ('A' for Active; 'I' for Inactive)
REMARK    1  A    between atoms: O_1  and  C_2
REMARK    2  A    between atoms: C_2  and  C_3
REMARK    3  A    between atoms: C_3  and  O_5
REMARK    4  A    between atoms: C_3  and  C_6
REMARK    5  A    between atoms: C_6  and  O_8
REMARK    6  A    between atoms: C_6  and  C_9
REMARK    7  A    between atoms: C_9  and  O_10
REMARK                            x       y       z     vdW  Elec       q    Type
REMARK                         _______ _______ _______ _____ _____    ______ ____
ROOT
ATOM      1  C   UNL     1       8.444  -4.618  24.136  0.00  0.00    +0.170 C 
ENDROOT
BRANCH   1   2
ATOM      2  O   UNL     1       7.012  -4.715  24.049  0.00  0.00    -0.387 OA
ATOM      3  H   UNL     1       6.705  -3.929  23.561  0.00  0.00    +0.210 HD
ENDBRANCH   1   2
BRANCH   1   4
ATOM      4  C   UNL     1       8.846  -3.137  24.204  0.00  0.00    +0.189 C 
BRANCH   4   5
ATOM      5  O   UNL     1      10.218  -2.997  23.825  0.00  0.00    -0.392 OA
ATOM      6  H   UNL     1      10.405  -2.043  23.793  0.00  0.00    +0.210 HD
ENDBRANCH   4   5
ENDBRANCH   1   4
BRANCH   1   7
ATOM      7  C   UNL     1       8.934  -5.432  25.351  0.00  0.00    +0.170 C 
BRANCH   7   8
ATOM      8  O   UNL     1      10.359  -5.520  25.362  0.00  0.00    -0.387 OA
ATOM      9  H   UNL     1      10.694  -4.838  25.973  0.00  0.00    +0.210 HD
ENDBRANCH   7   8
BRANCH   7  10
ATOM     10  C   UNL     1       8.446  -4.869  26.698  0.00  0.00    +0.189 C 
BRANCH  10  11
ATOM     11  O   UNL     1       7.857  -5.868  27.522  0.00  0.00    -0.392 OA
ATOM     12  H   UNL     1       7.331  -6.450  26.934  0.00  0.00    +0.210 HD
ENDBRANCH  10  11
ENDBRANCH   7  10
ENDBRANCH   1   7
TORSDOF 7
ENDMDL
MODEL 4
REMARK VINA RESULT:      -3.5      3.553      5.228
REMARK  Name = 
REMARK  7 active torsions:
REMARK  status: ('A' for Active; 'I' for Inactive)
REMARK    1  A    between atoms: O_1  and  C_2
REMARK    2  A    between atoms: C_2  and  C_3
REMARK    3  A    between atoms: C_3  and  O_5
REMARK    4  A    between atoms: C_3  and  C_6
REMARK    5  A    between atoms: C_6  and  O_8
REMARK    6  A    between atoms: C_6  and  C_9
REMARK    7  A    between atoms: C_9  and  O_10
REMARK                            x       y       z     vdW  Elec       q    Type
REMARK                         _______ _______ _______ _____ _____    ______ ____
ROOT
ATOM      1  C   UNL     1       9.932  -0.596  23.578  0.00  0.00    +0.170 C 
ENDROOT
BRANCH   1   2
ATOM      2  O   UNL     1       9.145   0.480  24.117  0.00  0.00    -0.387 OA
ATOM      3  H   UNL     1       8.741   0.150  24.941  0.00  0.00    +0.210 HD
ENDBRANCH   1   2
BRANCH   1   4
ATOM      4  C   UNL     1       9.240  -1.932  23.891  0.00  0.00    +0.189 C 
BRANCH   4   5
ATOM      5  O   UNL     1      10.205  -2.987  23.863  0.00  0.00    -0.392 OA
ATOM      6  H   UNL     1      10.399  -3.216  24.789  0.00  0.00    +0.210 HD
ENDBRANCH   4   5
ENDBRANCH   1   4
BRANCH   1   7
ATOM      7  C   UNL     1      10.140  -0.364  22.067  0.00  0.00    +0.170 C 
BRANCH   7   8
ATOM      8  O   UNL     1       9.974  -1.581  21.339  0.00  0.00    -0.387 OA
ATOM      9  H   UNL     1       9.020  -1.776  21.301  0.00  0.00    +0.210 HD
ENDBRANCH   7   8
BRANCH   7  10
ATOM     10  C   UNL     1       9.209   0.713  21.483  0.00  0.00    +0.189 C 
BRANCH  10  11
ATOM     11  O   UNL     1       9.799   2.008  21.501  0.00  0.00    -0.392 OA
ATOM     12  H   UNL     1      10.729   1.894  21.787  0.00  0.00    +0.210 HD
ENDBRANCH  10  11
ENDBRANCH   7  10
ENDBRANCH   1   7
TORSDOF 7
ENDMDL
MODEL 5
REMARK VINA RESULT:      -3.5      4.311      6.158
REMARK  Name = 
REMARK  7 active torsions:
REMARK  status: ('A' for Active; 'I' for Inactive)
REMARK    1  A    between atoms: O_1  and  C_2
REMARK    2  A    between atoms: C_2  and  C_3
REMARK    3  A    between atoms: C_3  and  O_5
REMARK    4  A    between atoms: C_3  and  C_6
REMARK    5  A    between atoms: C_6  and  O_8
REMARK    6  A    between atoms: C_6  and  C_9
REMARK    7  A    between atoms: C_9  and  O_10
REMARK                            x       y       z     vdW  Elec       q    Type
REMARK                         _______ _______ _______ _____ _____    ______ ____
ROOT
ATOM      1  C   UNL     1      10.194  -0.310  22.242  0.00  0.00    +0.170 C 
ENDROOT
BRANCH   1   2
ATOM      2  O   UNL     1      10.160  -1.540  21.498  0.00  0.00    -0.387 OA
ATOM      3  H   UNL     1       9.458  -1.446  20.828  0.00  0.00    +0.210 HD
ENDBRANCH   1   2
BRANCH   1   4
ATOM      4  C   UNL     1       9.293   0.724  21.549  0.00  0.00    +0.189 C 
BRANCH   4   5
ATOM      5  O   UNL     1       9.918   2.009  21.599  0.00  0.00    -0.392 OA
ATOM      6  H   UNL     1      10.824   1.895  21.262  0.00  0.00    +0.210 HD
ENDBRANCH   4   5
ENDBRANCH   1   4
BRANCH   1   7
ATOM      7  C   UNL     1       9.779  -0.590  23.701  0.00  0.00    +0.170 C 
BRANCH   7   8
ATOM      8  O   UNL     1       9.966  -1.967  24.028  0.00  0.00    -0.387 OA
ATOM      9  H   UNL     1      10.910  -2.097  24.235  0.00  0.00    +0.210 HD
ENDBRANCH   7   8
BRANCH   7  10
ATOM     10  C   UNL     1      10.524   0.285  24.725  0.00  0.00    +0.189 C 
BRANCH  10  11
ATOM     11  O   UNL     1      10.009   1.610  24.783  0.00  0.00    -0.392 OA
ATOM     12  H   UNL     1       9.379   1.705  24.039  0.00  0.00    +0.210 HD
ENDBRANCH  10  11
ENDBRANCH   7  10
ENDBRANCH   1   7
TORSDOF 7
ENDMDL
MODEL 6
REMARK VINA RESULT:      -3.5      3.444      5.297
REMARK  Name = 
REMARK  7 active torsions:
REMARK  status: ('A' for Active; 'I' for Inactive)
REMARK    1  A    between atoms: O_1  and  C_2
REMARK    2  A    between atoms: C_2  and  C_3
REMARK    3  A    between atoms: C_3  and  O_5
REMARK    4  A    between atoms: C_3  and  C_6
REMARK    5  A    between atoms: C_6  and  O_8
REMARK    6  A    between atoms: C_6  and  C_9
REMARK    7  A    between atoms: C_9  and  O_10
REMARK                            x       y       z     vdW  Elec       q    Type
REMARK                         _______ _______ _______ _____ _____    ______ ____
ROOT
ATOM      1  C   UNL     1       9.150  -1.188  22.355  0.00  0.00    +0.170 C 
ENDROOT
BRANCH   1   2
ATOM      2  O   UNL     1      10.159  -1.551  21.397  0.00  0.00    -0.387 OA
ATOM      3  H   UNL     1      11.015  -1.268  21.766  0.00  0.00    +0.210 HD
ENDBRANCH   1   2
BRANCH   1   4
ATOM      4  C   UNL     1       8.984  -2.330  23.369  0.00  0.00    +0.189 C 
BRANCH   4   5
ATOM      5  O   UNL     1      10.268  -2.872  23.690  0.00  0.00    -0.392 OA
ATOM      6  H   UNL     1      10.929  -2.309  23.250  0.00  0.00    +0.210 HD
ENDBRANCH   4   5
ENDBRANCH   1   4
BRANCH   1   7
ATOM      7  C   UNL     1       9.537   0.153  23.014  0.00  0.00    +0.170 C 
BRANCH   7   8
ATOM      8  O   UNL     1      10.667  -0.011  23.872  0.00  0.00    -0.387 OA
ATOM      9  H   UNL     1      10.335  -0.131  24.780  0.00  0.00    +0.210 HD
ENDBRANCH   7   8
BRANCH   7  10
ATOM     10  C   UNL     1       9.824   1.271  21.997  0.00  0.00    +0.189 C 
BRANCH  10  11
ATOM     11  O   UNL     1       8.906   1.264  20.909  0.00  0.00    -0.392 OA
ATOM     12  H   UNL     1       9.438   1.233  20.087  0.00  0.00    +0.210 HD
ENDBRANCH  10  11
ENDBRANCH   7  10
ENDBRANCH   1   7
TORSDOF 7
ENDMDL
MODEL 7
REMARK VINA RESULT:      -3.5      1.315      2.237
REMARK  Name = 
REMARK  7 active torsions:
REMARK  status: ('A' for Active; 'I' for Inactive)
REMARK    1  A    between atoms: O_1  and  C_2
REMARK    2  A    between atoms: C_2  and  C_3
REMARK    3  A    between atoms: C_3  and  O_5
REMARK    4  A    between atoms: C_3  and  C_6
REMARK    5  A    between atoms: C_6  and  O_8
REMARK    6  A    between atoms: C_6  and  C_9
REMARK    7  A    between atoms: C_9  and  O_10
REMARK                            x       y       z     vdW  Elec       q    Type
REMARK                         _______ _______ _______ _____ _____    ______ ____
ROOT
ATOM      1  C   UNL     1       8.793  -4.072  26.426  0.00  0.00    +0.170 C 
ENDROOT
BRANCH   1   2
ATOM      2  O   UNL     1       8.508  -2.675  26.236  0.00  0.00    -0.387 OA
ATOM      3  H   UNL     1       8.746  -2.222  27.065  0.00  0.00    +0.210 HD
ENDBRANCH   1   2
BRANCH   1   4
ATOM      4  C   UNL     1       7.525  -4.782  26.924  0.00  0.00    +0.189 C 
BRANCH   4   5
ATOM      5  O   UNL     1       7.885  -6.019  27.545  0.00  0.00    -0.392 OA
ATOM      6  H   UNL     1       8.559  -6.433  26.978  0.00  0.00    +0.210 HD
ENDBRANCH   4   5
ENDBRANCH   1   4
BRANCH   1   7
ATOM      7  C   UNL     1       9.337  -4.662  25.108  0.00  0.00    +0.170 C 
BRANCH   7   8
ATOM      8  O   UNL     1      10.032  -5.886  25.349  0.00  0.00    -0.387 OA
ATOM      9  H   UNL     1       9.479  -6.613  25.009  0.00  0.00    +0.210 HD
ENDBRANCH   7   8
BRANCH   7  10
ATOM     10  C   UNL     1       8.245  -4.893  24.049  0.00  0.00    +0.189 C 
BRANCH  10  11
ATOM     11  O   UNL     1       7.801  -3.680  23.453  0.00  0.00    -0.392 OA
ATOM     12  H   UNL     1       7.276  -3.204  24.130  0.00  0.00    +0.210 HD
ENDBRANCH  10  11
ENDBRANCH   7  10
ENDBRANCH   1   7
TORSDOF 7
ENDMDL
MODEL 8
REMARK VINA RESULT:      -3.4      3.357      5.758
REMARK  Name = 
REMARK  7 active torsions:
REMARK  status: ('A' for Active; 'I' for Inactive)
REMARK    1  A    between atoms: O_1  and  C_2
REMARK    2  A    between atoms: C_2  and  C_3
REMARK    3  A    between atoms: C_3  and  O_5
REMARK    4  A    between atoms: C_3  and  C_6
REMARK    5  A    between atoms: C_6  and  O_8
REMARK    6  A    between atoms: C_6  and  C_9
REMARK    7  A    between atoms: C_9  and  O_10
REMARK                            x       y       z     vdW  Elec       q    Type
REMARK                         _______ _______ _______ _____ _____    ______ ____
ROOT
ATOM      1  C   UNL     1       9.405   0.068  23.050  0.00  0.00    +0.170 C 
ENDROOT
BRANCH   1   2
ATOM      2  O   UNL     1      10.395  -0.115  24.077  0.00  0.00    -0.387 OA
ATOM      3  H   UNL     1      11.148  -0.576  23.665  0.00  0.00    +0.210 HD
ENDBRANCH   1   2
BRANCH   1   4
ATOM      4  C   UNL     1       9.901   1.130  22.056  0.00  0.00    +0.189 C 
BRANCH   4   5
ATOM      5  O   UNL     1       8.974   1.238  20.973  0.00  0.00    -0.392 OA
ATOM      6  H   UNL     1       8.091   1.345  21.368  0.00  0.00    +0.210 HD
ENDBRANCH   4   5
ENDBRANCH   1   4
BRANCH   1   7
ATOM      7  C   UNL     1       9.110  -1.291  22.384  0.00  0.00    +0.170 C 
BRANCH   7   8
ATOM      8  O   UNL     1      10.107  -1.607  21.411  0.00  0.00    -0.387 OA
ATOM      9  H   UNL     1      10.298  -2.560  21.480  0.00  0.00    +0.210 HD
ENDBRANCH   7   8
BRANCH   7  10
ATOM     10  C   UNL     1       8.992  -2.450  23.390  0.00  0.00    +0.189 C 
BRANCH  10  11
ATOM     11  O   UNL     1      10.261  -2.964  23.777  0.00  0.00    -0.392 OA
ATOM     12  H   UNL     1      10.750  -3.169  22.953  0.00  0.00    +0.210 HD
ENDBRANCH  10  11
ENDBRANCH   7  10
ENDBRANCH   1   7
TORSDOF 7
ENDMDL
MODEL 9
REMARK VINA RESULT:      -3.4      4.452      5.800
REMARK  Name = 
REMARK  7 active torsions:
REMARK  status: ('A' for Active; 'I' for Inactive)
REMARK    1  A    between atoms: O_1  and  C_2
REMARK    2  A    between atoms: C_2  and  C_3
REMARK    3  A    between atoms: C_3  and  O_5
REMARK    4  A    between atoms: C_3  and  C_6
REMARK    5  A    between atoms: C_6  and  O_8
REMARK    6  A    between atoms: C_6  and  C_9
REMARK    7  A    between atoms: C_9  and  O_10
REMARK                            x       y       z     vdW  Elec       q    Type
REMARK                         _______ _______ _______ _____ _____    ______ ____
ROOT
ATOM      1  C   UNL     1       9.839  -0.400  23.716  0.00  0.00    +0.170 C 
ENDROOT
BRANCH   1   2
ATOM      2  O   UNL     1       9.921  -1.785  24.095  0.00  0.00    -0.387 OA
ATOM      3  H   UNL     1       9.005  -2.112  24.171  0.00  0.00    +0.210 HD
ENDBRANCH   1   2
BRANCH   1   4
ATOM      4  C   UNL     1      10.781   0.422  24.608  0.00  0.00    +0.189 C 
BRANCH   4   5
ATOM      5  O   UNL     1      10.806   1.778  24.152  0.00  0.00    -0.392 OA
ATOM      6  H   UNL     1      11.530   2.221  24.629  0.00  0.00    +0.210 HD
ENDBRANCH   4   5
ENDBRANCH   1   4
BRANCH   1   7
ATOM      7  C   UNL     1      10.162  -0.267  22.214  0.00  0.00    +0.170 C 
BRANCH   7   8
ATOM      8  O   UNL     1      10.196  -1.549  21.585  0.00  0.00    -0.387 OA
ATOM      9  H   UNL     1       9.817  -2.195  22.209  0.00  0.00    +0.210 HD
ENDBRANCH   7   8
BRANCH   7  10
ATOM     10  C   UNL     1       9.180   0.647  21.459  0.00  0.00    +0.189 C 
BRANCH  10  11
ATOM     11  O   UNL     1       9.639   1.992  21.383  0.00  0.00    -0.392 OA
ATOM     12  H   UNL     1      10.359   2.011  20.719  0.00  0.00    +0.210 HD
ENDBRANCH  10  11
ENDBRANCH   7  10
ENDBRANCH   1   7
TORSDOF 7
ENDMDL
