MODEL 1
REMARK VINA RESULT:      -7.7      0.000      0.000
REMARK  Name = 
REMARK  8 active torsions:
REMARK  status: ('A' for Active; 'I' for Inactive)
REMARK    1  A    between atoms: N_1  and  S_2
REMARK    2  A    between atoms: S_2  and  C_5
REMARK    3  A    between atoms: C_8  and  C_9
REMARK    4  A    between atoms: C_9  and  N_10
REMARK    5  A    between atoms: C_11  and  C_13
REMARK    6  A    between atoms: C_14  and  C_18
REMARK    7  A    between atoms: C_22  and  O_23
REMARK    8  A    between atoms: C_25  and  O_26
REMARK                            x       y       z     vdW  Elec       q    Type
REMARK                         _______ _______ _______ _____ _____    ______ ____
ROOT
ATOM      1  N   UNL     1       8.321  -3.638  23.767  0.00  0.00    -0.307 N 
ATOM      2  H   UNL     1       7.578  -3.018  23.476  0.00  0.00    +0.149 HD
ATOM      3  C   UNL     1       8.158  -4.995  23.624  0.00  0.00    +0.248 C 
ATOM      4  O   UNL     1       8.906  -5.813  24.147  0.00  0.00    -0.270 OA
ENDROOT
BRANCH   3   5
ATOM      5  C   UNL     1       7.017  -5.376  22.810  0.00  0.00    +0.082 A 
ATOM      6  C   UNL     1       6.993  -5.622  21.415  0.00  0.00    +0.147 A 
ATOM      7  N   UNL     1       5.805  -6.033  20.978  0.00  0.00    -0.181 NA
ATOM      8  N   UNL     1       5.071  -6.098  22.103  0.00  0.00    -0.276 N 
ATOM      9  H   UNL     1       4.129  -6.474  22.057  0.00  0.00    +0.189 HD
ATOM     10  C   UNL     1       5.720  -5.661  23.234  0.00  0.00    +0.081 A 
BRANCH  10  11
ATOM     11  C   UNL     1       5.075  -5.639  24.555  0.00  0.00    +0.044 A 
ATOM     12  C   UNL     1       4.349  -6.739  25.056  0.00  0.00    +0.130 A 
ATOM     13  C   UNL     1       3.888  -6.763  26.374  0.00  0.00    +0.093 A 
ATOM     14  C   UNL     1       4.139  -5.676  27.202  0.00  0.00    +0.139 A 
ATOM     15  C   UNL     1       4.780  -4.542  26.707  0.00  0.00    +0.083 A 
ATOM     16 CL   UNL     1       5.065  -3.180  27.725  0.00  0.00    -0.080 Cl
ATOM     17  C   UNL     1       5.221  -4.515  25.385  0.00  0.00    +0.037 A 
BRANCH  12  18
ATOM     18  O   UNL     1       4.098  -7.816  24.242  0.00  0.00    -0.506 OA
ATOM     19  H   UNL     1       3.351  -7.595  23.659  0.00  0.00    +0.292 HD
ENDBRANCH  12  18
BRANCH  14  20
ATOM     20  O   UNL     1       3.748  -5.774  28.509  0.00  0.00    -0.505 OA
ATOM     21  H   UNL     1       2.778  -5.891  28.507  0.00  0.00    +0.292 HD
ENDBRANCH  14  20
ENDBRANCH  10  11
ENDBRANCH   3   5
BRANCH   1  22
ATOM     22  C   UNL     1       9.383  -3.099  24.576  0.00  0.00    +0.139 C 
BRANCH  22  26
ATOM     23  C   UNL     1       9.788   1.104  23.791  0.00  0.00    +0.105 A 
ATOM     24  C   UNL     1       9.403   0.674  25.063  0.00  0.00    +0.029 A 
ATOM     25  C   UNL     1       9.313  -0.691  25.327  0.00  0.00    +0.007 A 
ATOM     26  C   UNL     1       9.601  -1.631  24.326  0.00  0.00    -0.030 A 
ATOM     27  C   UNL     1      10.061  -1.180  23.073  0.00  0.00    +0.007 A 
ATOM     28  C   UNL     1      10.152   0.187  22.804  0.00  0.00    +0.029 A 
BRANCH  23  29
ATOM     29  S   UNL     1       9.715   2.828  23.398  0.00  0.00    +0.056 S 
ATOM     30  O   UNL     1       8.742   3.475  24.254  0.00  0.00    -0.153 OA
ATOM     31  O   UNL     1      11.056   3.329  23.222  0.00  0.00    -0.153 OA
BRANCH  29  32
ATOM     32  N   UNL     1       9.007   2.794  21.876  0.00  0.00    -0.204 NA
ATOM     33  H   UNL     1       8.953   1.835  21.530  0.00  0.00    +0.144 HD
ATOM     34  H   UNL     1       8.109   3.281  21.902  0.00  0.00    +0.144 HD
ENDBRANCH  29  32
ENDBRANCH  23  29
ENDBRANCH  22  26
ENDBRANCH   1  22
TORSDOF 8
ENDMDL
MODEL 2
REMARK VINA RESULT:      -7.7      2.772      3.958
REMARK  Name = 
REMARK  8 active torsions:
REMARK  status: ('A' for Active; 'I' for Inactive)
REMARK    1  A    between atoms: N_1  and  S_2
REMARK    2  A    between atoms: S_2  and  C_5
REMARK    3  A    between atoms: C_8  and  C_9
REMARK    4  A    between atoms: C_9  and  N_10
REMARK    5  A    between atoms: C_11  and  C_13
REMARK    6  A    between atoms: C_14  and  C_18
REMARK    7  A    between atoms: C_22  and  O_23
REMARK    8  A    between atoms: C_25  and  O_26
REMARK                            x       y       z     vdW  Elec       q    Type
REMARK                         _______ _______ _______ _____ _____    ______ ____
ROOT
ATOM      1  N   UNL     1       7.747  -2.925  26.765  0.00  0.00    -0.307 N 
ATOM      2  H   UNL     1       6.784  -2.731  27.005  0.00  0.00    +0.149 HD
ATOM      3  C   UNL     1       8.182  -4.229  26.730  0.00  0.00    +0.248 C 
ATOM      4  O   UNL     1       9.367  -4.532  26.667  0.00  0.00    -0.270 OA
ENDROOT
BRANCH   3   5
ATOM      5  C   UNL     1       7.116  -5.214  26.785  0.00  0.00    +0.082 A 
ATOM      6  C   UNL     1       6.589  -5.855  27.932  0.00  0.00    +0.147 A 
ATOM      7  N   UNL     1       5.558  -6.651  27.658  0.00  0.00    -0.181 NA
ATOM      8  N   UNL     1       5.389  -6.486  26.334  0.00  0.00    -0.276 N 
ATOM      9  H   UNL     1       4.596  -6.928  25.879  0.00  0.00    +0.189 HD
ATOM     10  C   UNL     1       6.328  -5.681  25.734  0.00  0.00    +0.081 A 
BRANCH  10  11
ATOM     11  C   UNL     1       6.319  -5.398  24.291  0.00  0.00    +0.044 A 
ATOM     12  C   UNL     1       5.503  -6.112  23.390  0.00  0.00    +0.130 A 
ATOM     13  C   UNL     1       5.382  -5.719  22.055  0.00  0.00    +0.093 A 
ATOM     14  C   UNL     1       6.092  -4.612  21.605  0.00  0.00    +0.139 A 
ATOM     15  C   UNL     1       6.970  -3.941  22.454  0.00  0.00    +0.083 A 
ATOM     16 CL   UNL     1       7.874  -2.586  21.888  0.00  0.00    -0.080 Cl
ATOM     17  C   UNL     1       7.101  -4.348  23.780  0.00  0.00    +0.037 A 
BRANCH  12  18
ATOM     18  O   UNL     1       4.800  -7.205  23.829  0.00  0.00    -0.506 OA
ATOM     19  H   UNL     1       4.172  -7.469  23.133  0.00  0.00    +0.292 HD
ENDBRANCH  12  18
BRANCH  14  20
ATOM     20  O   UNL     1       5.881  -4.209  20.315  0.00  0.00    -0.505 OA
ATOM     21  H   UNL     1       6.741  -4.264  19.856  0.00  0.00    +0.292 HD
ENDBRANCH  14  20
ENDBRANCH  10  11
ENDBRANCH   3   5
BRANCH   1  22
ATOM     22  C   UNL     1       8.683  -1.830  26.758  0.00  0.00    +0.139 C 
BRANCH  22  26
ATOM     23  C   UNL     1       8.525   0.630  23.240  0.00  0.00    +0.105 A 
ATOM     24  C   UNL     1       9.747   0.093  23.652  0.00  0.00    +0.029 A 
ATOM     25  C   UNL     1       9.790  -0.739  24.770  0.00  0.00    +0.007 A 
ATOM     26  C   UNL     1       8.617  -1.034  25.482  0.00  0.00    -0.030 A 
ATOM     27  C   UNL     1       7.384  -0.547  25.007  0.00  0.00    +0.007 A 
ATOM     28  C   UNL     1       7.337   0.288  23.888  0.00  0.00    +0.029 A 
BRANCH  23  29
ATOM     29  S   UNL     1       8.499   1.836  21.945  0.00  0.00    +0.056 S 
ATOM     30  O   UNL     1       8.185   1.185  20.690  0.00  0.00    -0.153 OA
ATOM     31  O   UNL     1       7.808   3.012  22.411  0.00  0.00    -0.153 OA
BRANCH  29  32
ATOM     32  N   UNL     1      10.125   2.241  21.834  0.00  0.00    -0.204 NA
ATOM     33  H   UNL     1      10.500   2.465  22.758  0.00  0.00    +0.144 HD
ATOM     34  H   UNL     1      10.633   1.502  21.345  0.00  0.00    +0.144 HD
ENDBRANCH  29  32
ENDBRANCH  23  29
ENDBRANCH  22  26
ENDBRANCH   1  22
TORSDOF 8
ENDMDL
MODEL 3
REMARK VINA RESULT:      -7.7      2.614      3.093
REMARK  Name = 
REMARK  8 active torsions:
REMARK  status: ('A' for Active; 'I' for Inactive)
REMARK    1  A    between atoms: N_1  and  S_2
REMARK    2  A    between atoms: S_2  and  C_5
REMARK    3  A    between atoms: C_8  and  C_9
REMARK    4  A    between atoms: C_9  and  N_10
REMARK    5  A    between atoms: C_11  and  C_13
REMARK    6  A    between atoms: C_14  and  C_18
REMARK    7  A    between atoms: C_22  and  O_23
REMARK    8  A    between atoms: C_25  and  O_26
REMARK                            x       y       z     vdW  Elec       q    Type
REMARK                         _______ _______ _______ _____ _____    ______ ____
ROOT
ATOM      1  N   UNL     1       9.776  -2.591  23.770  0.00  0.00    -0.307 N 
ATOM      2  H   UNL     1      10.406  -2.777  24.538  0.00  0.00    +0.149 HD
ATOM      3  C   UNL     1       8.597  -3.293  23.684  0.00  0.00    +0.248 C 
ATOM      4  O   UNL     1       7.893  -3.287  22.681  0.00  0.00    -0.270 OA
ENDROOT
BRANCH   3   5
ATOM      5  C   UNL     1       8.266  -4.051  24.877  0.00  0.00    +0.082 A 
ATOM      6  C   UNL     1       9.091  -4.299  26.001  0.00  0.00    +0.147 A 
ATOM      7  N   UNL     1       8.466  -4.962  26.971  0.00  0.00    -0.181 NA
ATOM      8  N   UNL     1       7.218  -5.101  26.491  0.00  0.00    -0.276 N 
ATOM      9  H   UNL     1       6.503  -5.508  27.086  0.00  0.00    +0.189 HD
ATOM     10  C   UNL     1       7.042  -4.629  25.212  0.00  0.00    +0.081 A 
BRANCH  10  11
ATOM     11  C   UNL     1       5.752  -4.710  24.510  0.00  0.00    +0.044 A 
ATOM     12  C   UNL     1       5.571  -5.502  23.358  0.00  0.00    +0.130 A 
ATOM     13  C   UNL     1       4.303  -5.699  22.807  0.00  0.00    +0.093 A 
ATOM     14  C   UNL     1       3.203  -5.090  23.397  0.00  0.00    +0.139 A 
ATOM     15  C   UNL     1       3.366  -4.234  24.485  0.00  0.00    +0.083 A 
ATOM     16 CL   UNL     1       2.005  -3.453  25.199  0.00  0.00    -0.080 Cl
ATOM     17  C   UNL     1       4.636  -4.026  25.020  0.00  0.00    +0.037 A 
BRANCH  12  18
ATOM     18  O   UNL     1       6.655  -6.107  22.772  0.00  0.00    -0.506 OA
ATOM     19  H   UNL     1       7.256  -5.414  22.446  0.00  0.00    +0.292 HD
ENDBRANCH  12  18
BRANCH  14  20
ATOM     20  O   UNL     1       1.970  -5.376  22.879  0.00  0.00    -0.505 OA
ATOM     21  H   UNL     1       1.585  -4.530  22.578  0.00  0.00    +0.292 HD
ENDBRANCH  14  20
ENDBRANCH  10  11
ENDBRANCH   3   5
BRANCH   1  22
ATOM     22  C   UNL     1      10.264  -1.820  22.656  0.00  0.00    +0.139 C 
BRANCH  22  26
ATOM     23  C   UNL     1       9.866   2.380  23.462  0.00  0.00    +0.105 A 
ATOM     24  C   UNL     1      10.301   1.522  24.475  0.00  0.00    +0.029 A 
ATOM     25  C   UNL     1      10.470   0.166  24.199  0.00  0.00    +0.007 A 
ATOM     26  C   UNL     1      10.201  -0.339  22.918  0.00  0.00    -0.030 A 
ATOM     27  C   UNL     1       9.838   0.553  21.891  0.00  0.00    +0.007 A 
ATOM     28  C   UNL     1       9.667   1.912  22.163  0.00  0.00    +0.029 A 
BRANCH  23  29
ATOM     29  S   UNL     1       9.466   4.058  23.858  0.00  0.00    +0.056 S 
ATOM     30  O   UNL     1       8.682   4.090  25.076  0.00  0.00    -0.153 OA
ATOM     31  O   UNL     1      10.634   4.880  23.658  0.00  0.00    -0.153 OA
BRANCH  29  32
ATOM     32  N   UNL     1       8.386   4.443  22.631  0.00  0.00    -0.204 NA
ATOM     33  H   UNL     1       7.863   5.287  22.870  0.00  0.00    +0.144 HD
ATOM     34  H   UNL     1       8.882   4.496  21.739  0.00  0.00    +0.144 HD
ENDBRANCH  29  32
ENDBRANCH  23  29
ENDBRANCH  22  26
ENDBRANCH   1  22
TORSDOF 8
ENDMDL
MODEL 4
REMARK VINA RESULT:      -7.5      3.860      8.078
REMARK  Name = 
REMARK  8 active torsions:
REMARK  status: ('A' for Active; 'I' for Inactive)
REMARK    1  A    between atoms: N_1  and  S_2
REMARK    2  A    between atoms: S_2  and  C_5
REMARK    3  A    between atoms: C_8  and  C_9
REMARK    4  A    between atoms: C_9  and  N_10
REMARK    5  A    between atoms: C_11  and  C_13
REMARK    6  A    between atoms: C_14  and  C_18
REMARK    7  A    between atoms: C_22  and  O_23
REMARK    8  A    between atoms: C_25  and  O_26
REMARK                            x       y       z     vdW  Elec       q    Type
REMARK                         _______ _______ _______ _____ _____    ______ ____
ROOT
ATOM      1  N   UNL     1       6.752   1.806  25.477  0.00  0.00    -0.307 N 
ATOM      2  H   UNL     1       6.467   1.331  24.631  0.00  0.00    +0.149 HD
ATOM      3  C   UNL     1       7.405   3.012  25.382  0.00  0.00    +0.248 C 
ATOM      4  O   UNL     1       7.972   3.537  26.333  0.00  0.00    -0.270 OA
ENDROOT
BRANCH   3   5
ATOM      5  C   UNL     1       7.373   3.605  24.056  0.00  0.00    +0.082 A 
ATOM      6  C   UNL     1       7.090   4.950  23.717  0.00  0.00    +0.147 A 
ATOM      7  N   UNL     1       7.220   5.198  22.415  0.00  0.00    -0.181 NA
ATOM      8  N   UNL     1       7.634   4.019  21.919  0.00  0.00    -0.276 N 
ATOM      9  H   UNL     1       7.892   3.959  20.939  0.00  0.00    +0.189 HD
ATOM     10  C   UNL     1       7.691   3.000  22.841  0.00  0.00    +0.081 A 
BRANCH  10  11
ATOM     11  C   UNL     1       8.102   1.634  22.483  0.00  0.00    +0.044 A 
ATOM     12  C   UNL     1       9.391   1.341  21.994  0.00  0.00    +0.130 A 
ATOM     13  C   UNL     1       9.818   0.023  21.821  0.00  0.00    +0.093 A 
ATOM     14  C   UNL     1       8.948  -1.019  22.123  0.00  0.00    +0.139 A 
ATOM     15  C   UNL     1       7.641  -0.754  22.526  0.00  0.00    +0.083 A 
ATOM     16 CL   UNL     1       6.551  -2.045  22.872  0.00  0.00    -0.080 Cl
ATOM     17  C   UNL     1       7.214   0.564  22.680  0.00  0.00    +0.037 A 
BRANCH  12  18
ATOM     18  O   UNL     1      10.255   2.366  21.695  0.00  0.00    -0.506 OA
ATOM     19  H   UNL     1      10.813   2.537  22.475  0.00  0.00    +0.292 HD
ENDBRANCH  12  18
BRANCH  14  20
ATOM     20  O   UNL     1       9.431  -2.294  22.021  0.00  0.00    -0.505 OA
ATOM     21  H   UNL     1      10.106  -2.287  21.316  0.00  0.00    +0.292 HD
ENDBRANCH  14  20
ENDBRANCH  10  11
ENDBRANCH   3   5
BRANCH   1  22
ATOM     22  C   UNL     1       6.727   1.072  26.715  0.00  0.00    +0.139 C 
BRANCH  22  26
ATOM     23  C   UNL     1       7.916  -2.992  25.993  0.00  0.00    +0.105 A 
ATOM     24  C   UNL     1       8.849  -1.963  25.842  0.00  0.00    +0.029 A 
ATOM     25  C   UNL     1       8.473  -0.650  26.118  0.00  0.00    +0.007 A 
ATOM     26  C   UNL     1       7.166  -0.358  26.538  0.00  0.00    -0.030 A 
ATOM     27  C   UNL     1       6.263  -1.415  26.758  0.00  0.00    +0.007 A 
ATOM     28  C   UNL     1       6.636  -2.732  26.483  0.00  0.00    +0.029 A 
BRANCH  23  29
ATOM     29  S   UNL     1       8.334  -4.627  25.460  0.00  0.00    +0.056 S 
ATOM     30  O   UNL     1       7.278  -5.542  25.845  0.00  0.00    -0.153 OA
ATOM     31  O   UNL     1       8.866  -4.566  24.122  0.00  0.00    -0.153 OA
BRANCH  29  32
ATOM     32  N   UNL     1       9.620  -4.991  26.477  0.00  0.00    -0.204 NA
ATOM     33  H   UNL     1       9.285  -5.173  27.424  0.00  0.00    +0.144 HD
ATOM     34  H   UNL     1      10.173  -5.751  26.075  0.00  0.00    +0.144 HD
ENDBRANCH  29  32
ENDBRANCH  23  29
ENDBRANCH  22  26
ENDBRANCH   1  22
TORSDOF 8
ENDMDL
MODEL 5
REMARK VINA RESULT:      -7.4      2.768      3.815
REMARK  Name = 
REMARK  8 active torsions:
REMARK  status: ('A' for Active; 'I' for Inactive)
REMARK    1  A    between atoms: N_1  and  S_2
REMARK    2  A    between atoms: S_2  and  C_5
REMARK    3  A    between atoms: C_8  and  C_9
REMARK    4  A    between atoms: C_9  and  N_10
REMARK    5  A    between atoms: C_11  and  C_13
REMARK    6  A    between atoms: C_14  and  C_18
REMARK    7  A    between atoms: C_22  and  O_23
REMARK    8  A    between atoms: C_25  and  O_26
REMARK                            x       y       z     vdW  Elec       q    Type
REMARK                         _______ _______ _______ _____ _____    ______ ____
ROOT
ATOM      1  N   UNL     1       8.973  -2.382  22.787  0.00  0.00    -0.307 N 
ATOM      2  H   UNL     1       8.136  -1.983  22.385  0.00  0.00    +0.149 HD
ATOM      3  C   UNL     1       8.858  -3.361  23.745  0.00  0.00    +0.248 C 
ATOM      4  O   UNL     1       9.803  -3.734  24.431  0.00  0.00    -0.270 OA
ENDROOT
BRANCH   3   5
ATOM      5  C   UNL     1       7.519  -3.907  23.882  0.00  0.00    +0.082 A 
ATOM      6  C   UNL     1       7.077  -5.207  23.539  0.00  0.00    +0.147 A 
ATOM      7  N   UNL     1       5.804  -5.427  23.862  0.00  0.00    -0.181 NA
ATOM      8  N   UNL     1       5.438  -4.279  24.459  0.00  0.00    -0.276 N 
ATOM      9  H   UNL     1       4.517  -4.215  24.882  0.00  0.00    +0.189 HD
ATOM     10  C   UNL     1       6.402  -3.300  24.453  0.00  0.00    +0.081 A 
BRANCH  10  11
ATOM     11  C   UNL     1       6.181  -1.970  25.042  0.00  0.00    +0.044 A 
ATOM     12  C   UNL     1       6.016  -1.780  26.429  0.00  0.00    +0.130 A 
ATOM     13  C   UNL     1       5.976  -0.500  26.985  0.00  0.00    +0.093 A 
ATOM     14  C   UNL     1       6.086   0.607  26.152  0.00  0.00    +0.139 A 
ATOM     15  C   UNL     1       6.163   0.447  24.770  0.00  0.00    +0.083 A 
ATOM     16 CL   UNL     1       6.268   1.821  23.732  0.00  0.00    -0.080 Cl
ATOM     17  C   UNL     1       6.184  -0.832  24.219  0.00  0.00    +0.037 A 
BRANCH  12  18
ATOM     18  O   UNL     1       5.908  -2.870  27.257  0.00  0.00    -0.506 OA
ATOM     19  H   UNL     1       6.012  -3.676  26.721  0.00  0.00    +0.292 HD
ENDBRANCH  12  18
BRANCH  14  20
ATOM     20  O   UNL     1       6.128   1.840  26.742  0.00  0.00    -0.505 OA
ATOM     21  H   UNL     1       6.143   1.693  27.707  0.00  0.00    +0.292 HD
ENDBRANCH  14  20
ENDBRANCH  10  11
ENDBRANCH   3   5
BRANCH   1  22
ATOM     22  C   UNL     1      10.228  -1.714  22.556  0.00  0.00    +0.139 C 
BRANCH  22  26
ATOM     23  C   UNL     1       9.789   2.462  23.466  0.00  0.00    +0.105 A 
ATOM     24  C   UNL     1      10.203   1.578  24.465  0.00  0.00    +0.029 A 
ATOM     25  C   UNL     1      10.385   0.231  24.157  0.00  0.00    +0.007 A 
ATOM     26  C   UNL     1      10.151  -0.240  22.856  0.00  0.00    -0.030 A 
ATOM     27  C   UNL     1       9.808   0.678  21.845  0.00  0.00    +0.007 A 
ATOM     28  C   UNL     1       9.624   2.029  22.149  0.00  0.00    +0.029 A 
BRANCH  23  29
ATOM     29  S   UNL     1       9.372   4.126  23.897  0.00  0.00    +0.056 S 
ATOM     30  O   UNL     1       8.568   4.123  25.102  0.00  0.00    -0.153 OA
ATOM     31  O   UNL     1      10.536   4.961  23.737  0.00  0.00    -0.153 OA
BRANCH  29  32
ATOM     32  N   UNL     1       8.309   4.535  22.662  0.00  0.00    -0.204 NA
ATOM     33  H   UNL     1       7.369   4.679  23.035  0.00  0.00    +0.144 HD
ATOM     34  H   UNL     1       8.678   5.331  22.139  0.00  0.00    +0.144 HD
ENDBRANCH  29  32
ENDBRANCH  23  29
ENDBRANCH  22  26
ENDBRANCH   1  22
TORSDOF 8
ENDMDL
MODEL 6
REMARK VINA RESULT:      -7.3      3.731      7.890
REMARK  Name = 
REMARK  8 active torsions:
REMARK  status: ('A' for Active; 'I' for Inactive)
REMARK    1  A    between atoms: N_1  and  S_2
REMARK    2  A    between atoms: S_2  and  C_5
REMARK    3  A    between atoms: C_8  and  C_9
REMARK    4  A    between atoms: C_9  and  N_10
REMARK    5  A    between atoms: C_11  and  C_13
REMARK    6  A    between atoms: C_14  and  C_18
REMARK    7  A    between atoms: C_22  and  O_23
REMARK    8  A    between atoms: C_25  and  O_26
REMARK                            x       y       z     vdW  Elec       q    Type
REMARK                         _______ _______ _______ _____ _____    ______ ____
ROOT
ATOM      1  N   UNL     1       6.630   1.343  25.598  0.00  0.00    -0.307 N 
ATOM      2  H   UNL     1       7.604   1.606  25.651  0.00  0.00    +0.149 HD
ATOM      3  C   UNL     1       5.851   1.856  24.587  0.00  0.00    +0.248 C 
ATOM      4  O   UNL     1       4.629   1.765  24.579  0.00  0.00    -0.270 OA
ENDROOT
BRANCH   3   5
ATOM      5  C   UNL     1       6.600   2.523  23.537  0.00  0.00    +0.082 A 
ATOM      6  C   UNL     1       6.405   3.832  23.033  0.00  0.00    +0.147 A 
ATOM      7  N   UNL     1       7.312   4.181  22.123  0.00  0.00    -0.181 NA
ATOM      8  N   UNL     1       8.123   3.110  22.074  0.00  0.00    -0.276 N 
ATOM      9  H   UNL     1       8.964   3.154  21.505  0.00  0.00    +0.189 HD
ATOM     10  C   UNL     1       7.722   2.053  22.855  0.00  0.00    +0.081 A 
BRANCH  10  11
ATOM     11  C   UNL     1       8.470   0.789  22.918  0.00  0.00    +0.044 A 
ATOM     12  C   UNL     1       9.829   0.737  23.293  0.00  0.00    +0.130 A 
ATOM     13  C   UNL     1      10.474  -0.482  23.510  0.00  0.00    +0.093 A 
ATOM     14  C   UNL     1       9.767  -1.666  23.339  0.00  0.00    +0.139 A 
ATOM     15  C   UNL     1       8.449  -1.644  22.887  0.00  0.00    +0.083 A 
ATOM     16 CL   UNL     1       7.580  -3.114  22.644  0.00  0.00    -0.080 Cl
ATOM     17  C   UNL     1       7.815  -0.425  22.654  0.00  0.00    +0.037 A 
BRANCH  12  18
ATOM     18  O   UNL     1      10.532   1.903  23.464  0.00  0.00    -0.506 OA
ATOM     19  H   UNL     1      10.059   2.457  24.111  0.00  0.00    +0.292 HD
ENDBRANCH  12  18
BRANCH  14  20
ATOM     20  O   UNL     1      10.409  -2.835  23.643  0.00  0.00    -0.505 OA
ATOM     21  H   UNL     1       9.725  -3.467  23.935  0.00  0.00    +0.292 HD
ENDBRANCH  14  20
ENDBRANCH  10  11
ENDBRANCH   3   5
BRANCH   1  22
ATOM     22  C   UNL     1       6.035   0.687  26.732  0.00  0.00    +0.139 C 
BRANCH  22  26
ATOM     23  C   UNL     1       7.148  -3.462  26.781  0.00  0.00    +0.105 A 
ATOM     24  C   UNL     1       8.129  -2.487  26.586  0.00  0.00    +0.029 A 
ATOM     25  C   UNL     1       7.772  -1.140  26.613  0.00  0.00    +0.007 A 
ATOM     26  C   UNL     1       6.438  -0.761  26.828  0.00  0.00    -0.030 A 
ATOM     27  C   UNL     1       5.477  -1.754  27.098  0.00  0.00    +0.007 A 
ATOM     28  C   UNL     1       5.831  -3.105  27.073  0.00  0.00    +0.029 A 
BRANCH  23  29
ATOM     29  S   UNL     1       7.562  -5.168  26.556  0.00  0.00    +0.056 S 
ATOM     30  O   UNL     1       7.391  -5.873  27.810  0.00  0.00    -0.153 OA
ATOM     31  O   UNL     1       6.995  -5.631  25.314  0.00  0.00    -0.153 OA
BRANCH  29  32
ATOM     32  N   UNL     1       9.224  -5.080  26.326  0.00  0.00    -0.204 NA
ATOM     33  H   UNL     1       9.547  -5.870  25.764  0.00  0.00    +0.144 HD
ATOM     34  H   UNL     1       9.471  -4.166  25.943  0.00  0.00    +0.144 HD
ENDBRANCH  29  32
ENDBRANCH  23  29
ENDBRANCH  22  26
ENDBRANCH   1  22
TORSDOF 8
ENDMDL
MODEL 7
REMARK VINA RESULT:      -7.3      3.159      5.264
REMARK  Name = 
REMARK  8 active torsions:
REMARK  status: ('A' for Active; 'I' for Inactive)
REMARK    1  A    between atoms: N_1  and  S_2
REMARK    2  A    between atoms: S_2  and  C_5
REMARK    3  A    between atoms: C_8  and  C_9
REMARK    4  A    between atoms: C_9  and  N_10
REMARK    5  A    between atoms: C_11  and  C_13
REMARK    6  A    between atoms: C_14  and  C_18
REMARK    7  A    between atoms: C_22  and  O_23
REMARK    8  A    between atoms: C_25  and  O_26
REMARK                            x       y       z     vdW  Elec       q    Type
REMARK                         _______ _______ _______ _____ _____    ______ ____
ROOT
ATOM      1  N   UNL     1       6.930  -1.293  26.978  0.00  0.00    -0.307 N 
ATOM      2  H   UNL     1       7.938  -1.312  26.901  0.00  0.00    +0.149 HD
ATOM      3  C   UNL     1       6.210  -2.413  26.635  0.00  0.00    +0.248 C 
ATOM      4  O   UNL     1       4.993  -2.402  26.491  0.00  0.00    -0.270 OA
ENDROOT
BRANCH   3   5
ATOM      5  C   UNL     1       7.016  -3.607  26.449  0.00  0.00    +0.082 A 
ATOM      6  C   UNL     1       6.958  -4.814  27.187  0.00  0.00    +0.147 A 
ATOM      7  N   UNL     1       7.776  -5.753  26.716  0.00  0.00    -0.181 NA
ATOM      8  N   UNL     1       8.330  -5.165  25.642  0.00  0.00    -0.276 N 
ATOM      9  H   UNL     1       8.943  -5.709  25.043  0.00  0.00    +0.189 HD
ATOM     10  C   UNL     1       7.962  -3.853  25.456  0.00  0.00    +0.081 A 
BRANCH  10  11
ATOM     11  C   UNL     1       8.479  -3.039  24.345  0.00  0.00    +0.044 A 
ATOM     12  C   UNL     1       8.079  -3.247  23.010  0.00  0.00    +0.130 A 
ATOM     13  C   UNL     1       8.448  -2.361  21.996  0.00  0.00    +0.093 A 
ATOM     14  C   UNL     1       9.237  -1.260  22.309  0.00  0.00    +0.139 A 
ATOM     15  C   UNL     1       9.716  -1.079  23.605  0.00  0.00    +0.083 A 
ATOM     16 CL   UNL     1      10.720   0.270  23.989  0.00  0.00    -0.080 Cl
ATOM     17  C   UNL     1       9.360  -1.977  24.609  0.00  0.00    +0.037 A 
BRANCH  12  18
ATOM     18  O   UNL     1       7.299  -4.332  22.695  0.00  0.00    -0.506 OA
ATOM     19  H   UNL     1       6.433  -4.011  22.387  0.00  0.00    +0.292 HD
ENDBRANCH  12  18
BRANCH  14  20
ATOM     20  O   UNL     1       9.506  -0.370  21.307  0.00  0.00    -0.505 OA
ATOM     21  H   UNL     1       8.940  -0.615  20.549  0.00  0.00    +0.292 HD
ENDBRANCH  14  20
ENDBRANCH  10  11
ENDBRANCH   3   5
BRANCH   1  22
ATOM     22  C   UNL     1       6.281  -0.021  27.161  0.00  0.00    +0.139 C 
BRANCH  22  26
ATOM     23  C   UNL     1       7.593   2.720  24.125  0.00  0.00    +0.105 A 
ATOM     24  C   UNL     1       6.982   1.520  23.753  0.00  0.00    +0.029 A 
ATOM     25  C   UNL     1       6.520   0.651  24.740  0.00  0.00    +0.007 A 
ATOM     26  C   UNL     1       6.669   0.972  26.098  0.00  0.00    -0.030 A 
ATOM     27  C   UNL     1       7.217   2.220  26.452  0.00  0.00    +0.007 A 
ATOM     28  C   UNL     1       7.682   3.093  25.466  0.00  0.00    +0.029 A 
BRANCH  23  29
ATOM     29  S   UNL     1       8.352   3.729  22.884  0.00  0.00    +0.056 S 
ATOM     30  O   UNL     1       7.323   4.372  22.093  0.00  0.00    -0.153 OA
ATOM     31  O   UNL     1       9.453   4.451  23.472  0.00  0.00    -0.153 OA
BRANCH  29  32
ATOM     32  N   UNL     1       9.020   2.567  21.872  0.00  0.00    -0.204 NA
ATOM     33  H   UNL     1       8.286   2.091  21.343  0.00  0.00    +0.144 HD
ATOM     34  H   UNL     1       9.746   2.991  21.292  0.00  0.00    +0.144 HD
ENDBRANCH  29  32
ENDBRANCH  23  29
ENDBRANCH  22  26
ENDBRANCH   1  22
TORSDOF 8
ENDMDL
MODEL 8
REMARK VINA RESULT:      -7.2      3.711      8.498
REMARK  Name = 
REMARK  8 active torsions:
REMARK  status: ('A' for Active; 'I' for Inactive)
REMARK    1  A    between atoms: N_1  and  S_2
REMARK    2  A    between atoms: S_2  and  C_5
REMARK    3  A    between atoms: C_8  and  C_9
REMARK    4  A    between atoms: C_9  and  N_10
REMARK    5  A    between atoms: C_11  and  C_13
REMARK    6  A    between atoms: C_14  and  C_18
REMARK    7  A    between atoms: C_22  and  O_23
REMARK    8  A    between atoms: C_25  and  O_26
REMARK                            x       y       z     vdW  Elec       q    Type
REMARK                         _______ _______ _______ _____ _____    ______ ____
ROOT
ATOM      1  N   UNL     1       9.658   1.495  21.818  0.00  0.00    -0.307 N 
ATOM      2  H   UNL     1       9.448   2.246  21.174  0.00  0.00    +0.149 HD
ATOM      3  C   UNL     1      10.242   1.791  23.027  0.00  0.00    +0.248 C 
ATOM      4  O   UNL     1      10.724   0.934  23.759  0.00  0.00    -0.270 OA
ENDROOT
BRANCH   3   5
ATOM      5  C   UNL     1      10.249   3.205  23.355  0.00  0.00    +0.082 A 
ATOM      6  C   UNL     1      11.371   4.063  23.460  0.00  0.00    +0.147 A 
ATOM      7  N   UNL     1      11.038   5.330  23.698  0.00  0.00    -0.181 NA
ATOM      8  N   UNL     1       9.694   5.297  23.700  0.00  0.00    -0.276 N 
ATOM      9  H   UNL     1       9.180   6.169  23.779  0.00  0.00    +0.189 HD
ATOM     10  C   UNL     1       9.153   4.042  23.558  0.00  0.00    +0.081 A 
BRANCH  10  11
ATOM     11  C   UNL     1       7.702   3.803  23.556  0.00  0.00    +0.044 A 
ATOM     12  C   UNL     1       6.848   4.374  22.590  0.00  0.00    +0.130 A 
ATOM     13  C   UNL     1       5.504   4.004  22.502  0.00  0.00    +0.093 A 
ATOM     14  C   UNL     1       4.997   3.065  23.392  0.00  0.00    +0.139 A 
ATOM     15  C   UNL     1       5.799   2.550  24.409  0.00  0.00    +0.083 A 
ATOM     16 CL   UNL     1       5.163   1.408  25.534  0.00  0.00    -0.080 Cl
ATOM     17  C   UNL     1       7.134   2.936  24.505  0.00  0.00    +0.037 A 
BRANCH  12  18
ATOM     18  O   UNL     1       7.343   5.301  21.707  0.00  0.00    -0.506 OA
ATOM     19  H   UNL     1       8.023   5.829  22.163  0.00  0.00    +0.292 HD
ENDBRANCH  12  18
BRANCH  14  20
ATOM     20  O   UNL     1       3.701   2.666  23.220  0.00  0.00    -0.505 OA
ATOM     21  H   UNL     1       3.136   3.343  23.639  0.00  0.00    +0.292 HD
ENDBRANCH  14  20
ENDBRANCH  10  11
ENDBRANCH   3   5
BRANCH   1  22
ATOM     22  C   UNL     1       9.607   0.141  21.330  0.00  0.00    +0.139 C 
BRANCH  22  26
ATOM     23  C   UNL     1       6.742  -2.334  23.359  0.00  0.00    +0.105 A 
ATOM     24  C   UNL     1       7.953  -2.886  22.936  0.00  0.00    +0.029 A 
ATOM     25  C   UNL     1       8.899  -2.071  22.315  0.00  0.00    +0.007 A 
ATOM     26  C   UNL     1       8.639  -0.708  22.110  0.00  0.00    -0.030 A 
ATOM     27  C   UNL     1       7.445  -0.153  22.612  0.00  0.00    +0.007 A 
ATOM     28  C   UNL     1       6.495  -0.966  23.234  0.00  0.00    +0.029 A 
BRANCH  23  29
ATOM     29  S   UNL     1       5.468  -3.400  23.969  0.00  0.00    +0.056 S 
ATOM     30  O   UNL     1       6.070  -4.524  24.656  0.00  0.00    -0.153 OA
ATOM     31  O   UNL     1       4.420  -2.598  24.551  0.00  0.00    -0.153 OA
BRANCH  29  32
ATOM     32  N   UNL     1       4.854  -4.037  22.541  0.00  0.00    -0.204 NA
ATOM     33  H   UNL     1       5.351  -4.894  22.292  0.00  0.00    +0.144 HD
ATOM     34  H   UNL     1       3.842  -4.148  22.620  0.00  0.00    +0.144 HD
ENDBRANCH  29  32
ENDBRANCH  23  29
ENDBRANCH  22  26
ENDBRANCH   1  22
TORSDOF 8
ENDMDL
MODEL 9
REMARK VINA RESULT:      -7.2      3.604      7.370
REMARK  Name = 
REMARK  8 active torsions:
REMARK  status: ('A' for Active; 'I' for Inactive)
REMARK    1  A    between atoms: N_1  and  S_2
REMARK    2  A    between atoms: S_2  and  C_5
REMARK    3  A    between atoms: C_8  and  C_9
REMARK    4  A    between atoms: C_9  and  N_10
REMARK    5  A    between atoms: C_11  and  C_13
REMARK    6  A    between atoms: C_14  and  C_18
REMARK    7  A    between atoms: C_22  and  O_23
REMARK    8  A    between atoms: C_25  and  O_26
REMARK                            x       y       z     vdW  Elec       q    Type
REMARK                         _______ _______ _______ _____ _____    ______ ____
ROOT
ATOM      1  N   UNL     1       5.687   0.034  24.574  0.00  0.00    -0.307 N 
ATOM      2  H   UNL     1       5.645  -0.621  23.805  0.00  0.00    +0.149 HD
ATOM      3  C   UNL     1       6.683   0.981  24.597  0.00  0.00    +0.248 C 
ATOM      4  O   UNL     1       6.933   1.658  25.587  0.00  0.00    -0.270 OA
ENDROOT
BRANCH   3   5
ATOM      5  C   UNL     1       7.419   1.102  23.351  0.00  0.00    +0.082 A 
ATOM      6  C   UNL     1       7.581   2.259  22.551  0.00  0.00    +0.147 A 
ATOM      7  N   UNL     1       8.384   2.063  21.507  0.00  0.00    -0.181 NA
ATOM      8  N   UNL     1       8.778   0.787  21.659  0.00  0.00    -0.276 N 
ATOM      9  H   UNL     1       9.475   0.407  21.027  0.00  0.00    +0.189 HD
ATOM     10  C   UNL     1       8.190   0.131  22.715  0.00  0.00    +0.081 A 
BRANCH  10  11
ATOM     11  C   UNL     1       8.482  -1.276  23.030  0.00  0.00    +0.044 A 
ATOM     12  C   UNL     1       9.417  -1.648  24.018  0.00  0.00    +0.130 A 
ATOM     13  C   UNL     1       9.556  -2.978  24.420  0.00  0.00    +0.093 A 
ATOM     14  C   UNL     1       8.768  -3.955  23.823  0.00  0.00    +0.139 A 
ATOM     15  C   UNL     1       7.898  -3.625  22.785  0.00  0.00    +0.083 A 
ATOM     16 CL   UNL     1       6.941  -4.841  22.023  0.00  0.00    -0.080 Cl
ATOM     17  C   UNL     1       7.775  -2.299  22.376  0.00  0.00    +0.037 A 
BRANCH  12  18
ATOM     18  O   UNL     1      10.197  -0.687  24.611  0.00  0.00    -0.506 OA
ATOM     19  H   UNL     1       9.701   0.151  24.622  0.00  0.00    +0.292 HD
ENDBRANCH  12  18
BRANCH  14  20
ATOM     20  O   UNL     1       8.873  -5.231  24.303  0.00  0.00    -0.505 OA
ATOM     21  H   UNL     1       8.452  -5.239  25.184  0.00  0.00    +0.292 HD
ENDBRANCH  14  20
ENDBRANCH  10  11
ENDBRANCH   3   5
BRANCH   1  22
ATOM     22  C   UNL     1       4.892  -0.234  25.744  0.00  0.00    +0.139 C 
BRANCH  22  26
ATOM     23  C   UNL     1       5.650  -4.185  27.249  0.00  0.00    +0.105 A 
ATOM     24  C   UNL     1       5.115  -3.215  28.099  0.00  0.00    +0.029 A 
ATOM     25  C   UNL     1       4.830  -1.945  27.598  0.00  0.00    +0.007 A 
ATOM     26  C   UNL     1       5.083  -1.639  26.252  0.00  0.00    -0.030 A 
ATOM     27  C   UNL     1       5.550  -2.652  25.393  0.00  0.00    +0.007 A 
ATOM     28  C   UNL     1       5.837  -3.925  25.891  0.00  0.00    +0.029 A 
BRANCH  23  29
ATOM     29  S   UNL     1       6.191  -5.729  27.926  0.00  0.00    +0.056 S 
ATOM     30  O   UNL     1       6.275  -5.618  29.368  0.00  0.00    -0.153 OA
ATOM     31  O   UNL     1       5.494  -6.804  27.263  0.00  0.00    -0.153 OA
BRANCH  29  32
ATOM     32  N   UNL     1       7.784  -5.785  27.397  0.00  0.00    -0.204 NA
ATOM     33  H   UNL     1       8.402  -5.350  28.083  0.00  0.00    +0.144 HD
ATOM     34  H   UNL     1       8.034  -6.747  27.158  0.00  0.00    +0.144 HD
ENDBRANCH  29  32
ENDBRANCH  23  29
ENDBRANCH  22  26
ENDBRANCH   1  22
TORSDOF 8
ENDMDL
