MODEL 1
REMARK VINA RESULT:      -4.1      0.000      0.000
REMARK  Name = 
REMARK  37 active torsions:
REMARK  status: ('A' for Active; 'I' for Inactive)
REMARK    1  A    between atoms: C_1  and  C_2
REMARK    2  A    between atoms: C_2  and  C_3
REMARK    3  A    between atoms: C_3  and  C_4
REMARK    4  A    between atoms: C_3  and  C_5
REMARK    5  A    between atoms: C_5  and  C_6
REMARK    6  A    between atoms: C_6  and  C_7
REMARK    7  A    between atoms: C_6  and  C_8
REMARK    8  A    between atoms: C_8  and  C_9
REMARK    9  A    between atoms: C_9  and  C_10
REMARK   10  A    between atoms: C_10  and  C_11
REMARK   11  A    between atoms: C_11  and  C_12
REMARK   12  A    between atoms: C_12  and  C_13
REMARK   13  A    between atoms: C_13  and  C_14
REMARK   14  A    between atoms: C_14  and  C_15
REMARK   15  A    between atoms: C_15  and  C_16
REMARK   16  A    between atoms: N_18  and  C_19
REMARK   17  A    between atoms: C_22  and  O_24
REMARK   18  A    between atoms: C_25  and  N_27
REMARK   19  A    between atoms: N_27  and  C_28
REMARK   20  A    between atoms: C_28  and  C_29
REMARK   21  A    between atoms: C_29  and  N_30
REMARK   22  A    between atoms: C_36  and  O_38
REMARK   23  A    between atoms: C_44  and  C_86
REMARK   24  A    between atoms: C_49  and  C_73
REMARK   25  A    between atoms: C_57  and  O_59
REMARK   26  A    between atoms: C_64  and  C_69
REMARK   27  A    between atoms: C_69  and  C_71
REMARK   28  A    between atoms: C_69  and  O_72
REMARK   29  A    between atoms: C_73  and  O_75
REMARK   30  A    between atoms: C_73  and  C_76
REMARK   31  A    between atoms: C_76  and  O_78
REMARK   32  A    between atoms: C_76  and  C_79
REMARK   33  A    between atoms: C_82  and  O_83
REMARK   34  A    between atoms: C_86  and  O_88
REMARK   35  A    between atoms: C_86  and  C_89
REMARK   36  A    between atoms: C_89  and  C_90
REMARK   37  A    between atoms: C_90  and  N_91
REMARK                            x       y       z     vdW  Elec       q    Type
REMARK                         _______ _______ _______ _____ _____    ______ ____
ROOT
ATOM      1  C   UNL     1       5.056   2.158  23.847  0.00  0.00    +0.161 C 
ATOM      2  C   UNL     1       4.685   2.132  25.419  0.00  0.00    +0.234 C 
ATOM      3  O   UNL     1       3.743   2.852  25.761  0.00  0.00    -0.274 OA
ATOM      4  N   UNL     1       5.076   1.065  26.215  0.00  0.00    -0.300 N 
ATOM      5  H   UNL     1       4.595   0.244  25.846  0.00  0.00    +0.150 HD
ATOM      6  C   UNL     1       5.487   0.768  27.685  0.00  0.00    +0.187 C 
ATOM      7  C   UNL     1       4.642   0.995  28.941  0.00  0.00    +0.239 C 
ATOM      8  O   UNL     1       5.074   0.842  30.088  0.00  0.00    -0.273 OA
ATOM      9  N   UNL     1       3.302   1.182  28.734  0.00  0.00    -0.286 N 
ATOM     10  C   UNL     1       2.380   0.119  28.288  0.00  0.00    +0.164 C 
ATOM     11  C   UNL     1       1.443   0.851  27.328  0.00  0.00    +0.065 C 
ATOM     12  C   UNL     1       1.496   2.322  27.735  0.00  0.00    +0.134 C 
ATOM     13  C   UNL     1       2.994  -1.137  27.574  0.00  0.00    +0.234 C 
ATOM     14  O   UNL     1       2.765  -1.439  26.414  0.00  0.00    -0.274 OA
ATOM     15  N   UNL     1       3.919  -1.806  28.292  0.00  0.00    -0.300 N 
ATOM     16  H   UNL     1       3.952  -1.654  29.298  0.00  0.00    +0.150 HD
ATOM     17  C   UNL     1       4.697  -2.955  27.837  0.00  0.00    +0.190 C 
ATOM     18  C   UNL     1       5.400  -3.188  26.460  0.00  0.00    +0.237 C 
ATOM     19  O   UNL     1       6.340  -3.967  26.552  0.00  0.00    -0.274 OA
ATOM     20  N   UNL     1       5.098  -2.707  25.181  0.00  0.00    -0.300 N 
ATOM     21  H   UNL     1       4.180  -2.204  25.145  0.00  0.00    +0.150 HD
ATOM     22  C   UNL     1       5.477  -3.506  23.918  0.00  0.00    +0.188 C 
ATOM     23  C   UNL     1       6.220  -4.799  24.220  0.00  0.00    +0.239 C 
ATOM     24  O   UNL     1       5.544  -5.836  24.248  0.00  0.00    -0.273 OA
ATOM     25  N   UNL     1       7.621  -4.796  24.300  0.00  0.00    -0.286 N 
ATOM     26  C   UNL     1       8.578  -3.927  25.139  0.00  0.00    +0.190 C 
ATOM     27  C   UNL     1       9.862  -4.814  25.182  0.00  0.00    +0.145 C 
ATOM     28  C   UNL     1       9.352  -6.238  25.028  0.00  0.00    +0.052 C 
ATOM     29  C   UNL     1       8.993  -2.428  24.793  0.00  0.00    +0.237 C 
ATOM     30  O   UNL     1      10.132  -2.136  24.438  0.00  0.00    -0.274 OA
ATOM     31  N   UNL     1       8.045  -1.431  24.945  0.00  0.00    -0.296 N 
ATOM     32  H   UNL     1       7.096  -1.739  25.142  0.00  0.00    +0.150 HD
ATOM     33  C   UNL     1       8.158  -0.128  24.244  0.00  0.00    +0.170 C 
ATOM     34  C   UNL     1       6.699   0.313  23.908  0.00  0.00    +0.151 C 
ATOM     35  C   UNL     1       8.197  -6.113  24.083  0.00  0.00    +0.111 C 
ATOM     36  C   UNL     1       2.856   2.514  28.387  0.00  0.00    +0.140 C 
ATOM     37  C   UNL     1       6.427   1.677  23.333  0.00  0.00    +0.066 C 
ENDROOT
BRANCH   1  39
ATOM     38  C   UNL     1       3.529   3.812  22.790  0.00  0.00    +0.214 C 
ATOM     39  N   UNL     1       4.775   3.475  23.265  0.00  0.00    -0.304 N 
ATOM     40  H   UNL     1       5.571   4.027  22.974  0.00  0.00    +0.149 HD
ATOM     41  O   UNL     1       2.581   3.032  22.771  0.00  0.00    -0.276 OA
BRANCH  38  42
ATOM     42  C   UNL     1       3.370   5.253  22.371  0.00  0.00    +0.096 C 
BRANCH  42  43
ATOM     43  C   UNL     1       4.524   5.725  21.503  0.00  0.00    +0.009 C 
BRANCH  43  44
ATOM     44  C   UNL     1       4.994   7.102  21.937  0.00  0.00    +0.000 C 
BRANCH  44  45
ATOM     45  C   UNL     1       6.195   6.983  22.866  0.00  0.00    +0.000 C 
BRANCH  45  46
ATOM     46  C   UNL     1       7.190   6.002  22.276  0.00  0.00    +0.000 C 
BRANCH  46  47
ATOM     47  C   UNL     1       7.901   5.183  23.349  0.00  0.00    +0.000 C 
BRANCH  47  48
ATOM     48  C   UNL     1       7.649   5.861  24.689  0.00  0.00    +0.000 C 
BRANCH  48  49
ATOM     49  C   UNL     1       7.360   4.884  25.823  0.00  0.00    +0.003 C 
BRANCH  49  50
ATOM     50  C   UNL     1       6.399   5.493  26.868  0.00  0.00    -0.014 C 
ATOM     51  C   UNL     1       5.972   4.477  27.935  0.00  0.00    +0.007 C 
BRANCH  50  52
ATOM     52  C   UNL     1       5.169   6.090  26.149  0.00  0.00    +0.006 C 
BRANCH  52  53
ATOM     53  C   UNL     1       3.853   6.033  26.955  0.00  0.00    -0.014 C 
ATOM     54  C   UNL     1       2.653   6.101  26.004  0.00  0.00    +0.007 C 
BRANCH  53  56
ATOM     55  C   UNL     1       2.727   6.815  29.139  0.00  0.00    +0.004 C 
ATOM     56  C   UNL     1       3.755   7.107  28.056  0.00  0.00    -0.000 C 
ENDBRANCH  53  56
ENDBRANCH  52  53
ENDBRANCH  50  52
ENDBRANCH  49  50
ENDBRANCH  48  49
ENDBRANCH  47  48
ENDBRANCH  46  47
ENDBRANCH  45  46
ENDBRANCH  44  45
ENDBRANCH  43  44
ENDBRANCH  42  43
ENDBRANCH  38  42
ENDBRANCH   1  39
BRANCH  34  57
ATOM     57  O   UNL     1       5.749  -0.548  23.367  0.00  0.00    -0.389 OA
ATOM     58  H   UNL     1       6.154  -1.437  23.252  0.00  0.00    +0.210 HD
ENDBRANCH  34  57
BRANCH  33  59
ATOM     59  N   UNL     1       8.580   1.021  25.055  0.00  0.00    -0.295 NA
ATOM     60  H   UNL     1       8.707   0.727  26.025  0.00  0.00    +0.124 HD
BRANCH  59  61
ATOM     61  C   UNL     1       9.656   1.949  24.817  0.00  0.00    +0.097 C 
BRANCH  61  62
ATOM     62  C   UNL     1      10.597   1.821  23.629  0.00  0.00    +0.093 C 
BRANCH  62  63
ATOM     63  N   UNL     1      10.610   3.005  22.772  0.00  0.00    -0.329 NA
ATOM     64  H   UNL     1       9.685   3.124  22.365  0.00  0.00    +0.118 HD
ATOM     65  H   UNL     1      10.805   3.828  23.340  0.00  0.00    +0.118 HD
ENDBRANCH  62  63
ENDBRANCH  61  62
ENDBRANCH  59  61
ENDBRANCH  33  59
BRANCH  27  66
ATOM     66  O   UNL     1      10.534  -4.733  26.438  0.00  0.00    -0.389 OA
ATOM     67  H   UNL     1      11.357  -5.248  26.367  0.00  0.00    +0.210 HD
ENDBRANCH  27  66
BRANCH  12  68
ATOM     68  O   UNL     1       0.457   2.565  28.682  0.00  0.00    -0.390 OA
ATOM     69  H   UNL     1       0.306   3.526  28.709  0.00  0.00    +0.210 HD
ENDBRANCH  12  68
BRANCH   6  70
ATOM     70  C   UNL     1       6.984   0.536  28.098  0.00  0.00    +0.141 C 
ATOM     71  C   UNL     1       7.665  -0.716  27.568  0.00  0.00    +0.040 C 
BRANCH  70  72
ATOM     72  O   UNL     1       7.769   1.671  27.649  0.00  0.00    -0.390 OA
ATOM     73  H   UNL     1       7.230   2.143  26.978  0.00  0.00    +0.210 HD
ENDBRANCH  70  72
ENDBRANCH   6  70
BRANCH  22  74
ATOM     74  C   UNL     1       6.181  -2.991  22.523  0.00  0.00    +0.145 C 
BRANCH  74  75
ATOM     75  O   UNL     1       5.272  -2.552  21.490  0.00  0.00    -0.389 OA
ATOM     76  H   UNL     1       4.623  -3.256  21.344  0.00  0.00    +0.210 HD
ENDBRANCH  74  75
BRANCH  74  77
ATOM     77  C   UNL     1       6.948  -4.087  21.725  0.00  0.00    +0.048 C 
BRANCH  77  78
ATOM     78  C   UNL     1       6.033  -4.889  20.771  0.00  0.00    +0.080 C 
BRANCH  78  79
ATOM     79  N   UNL     1       6.014  -6.296  21.166  0.00  0.00    -0.330 NA
ATOM     80  H   UNL     1       5.050  -6.613  21.269  0.00  0.00    +0.118 HD
ATOM     81  H   UNL     1       6.439  -6.874  20.444  0.00  0.00    +0.118 HD
ENDBRANCH  78  79
ENDBRANCH  77  78
ENDBRANCH  74  77
ENDBRANCH  22  74
BRANCH  17  82
ATOM     82  C   UNL     1       4.162  -4.304  28.432  0.00  0.00    +0.176 C 
BRANCH  82  83
ATOM     83  O   UNL     1       5.033  -5.360  27.934  0.00  0.00    -0.387 OA
ATOM     84  H   UNL     1       5.296  -5.082  27.032  0.00  0.00    +0.210 HD
ENDBRANCH  82  83
BRANCH  82  85
ATOM     85  C   UNL     1       2.688  -4.636  28.007  0.00  0.00    +0.175 C 
BRANCH  85  86
ATOM     86  C   UNL     1       2.571  -5.314  26.659  0.00  0.00    -0.016 A 
ATOM     87  C   UNL     1       2.243  -4.614  25.489  0.00  0.00    +0.010 A 
ATOM     88  C   UNL     1       2.159  -5.282  24.267  0.00  0.00    +0.046 A 
ATOM     89  C   UNL     1       2.396  -6.649  24.213  0.00  0.00    +0.117 A 
ATOM     90  C   UNL     1       2.678  -7.373  25.366  0.00  0.00    +0.046 A 
ATOM     91  C   UNL     1       2.765  -6.706  26.586  0.00  0.00    +0.010 A 
BRANCH  89  92
ATOM     92  O   UNL     1       2.354  -7.256  22.994  0.00  0.00    -0.507 OA
ATOM     93  H   UNL     1       2.920  -8.043  23.030  0.00  0.00    +0.292 HD
ENDBRANCH  89  92
ENDBRANCH  85  86
BRANCH  85  94
ATOM     94  O   UNL     1       1.926  -3.422  27.993  0.00  0.00    -0.385 OA
ATOM     95  H   UNL     1       2.480  -2.752  28.442  0.00  0.00    +0.210 HD
ENDBRANCH  85  94
ENDBRANCH  82  85
ENDBRANCH  17  82
TORSDOF 33
ENDMDL
MODEL 2
REMARK VINA RESULT:      -2.7      2.286     10.268
REMARK  Name = 
REMARK  37 active torsions:
REMARK  status: ('A' for Active; 'I' for Inactive)
REMARK    1  A    between atoms: C_1  and  C_2
REMARK    2  A    between atoms: C_2  and  C_3
REMARK    3  A    between atoms: C_3  and  C_4
REMARK    4  A    between atoms: C_3  and  C_5
REMARK    5  A    between atoms: C_5  and  C_6
REMARK    6  A    between atoms: C_6  and  C_7
REMARK    7  A    between atoms: C_6  and  C_8
REMARK    8  A    between atoms: C_8  and  C_9
REMARK    9  A    between atoms: C_9  and  C_10
REMARK   10  A    between atoms: C_10  and  C_11
REMARK   11  A    between atoms: C_11  and  C_12
REMARK   12  A    between atoms: C_12  and  C_13
REMARK   13  A    between atoms: C_13  and  C_14
REMARK   14  A    between atoms: C_14  and  C_15
REMARK   15  A    between atoms: C_15  and  C_16
REMARK   16  A    between atoms: N_18  and  C_19
REMARK   17  A    between atoms: C_22  and  O_24
REMARK   18  A    between atoms: C_25  and  N_27
REMARK   19  A    between atoms: N_27  and  C_28
REMARK   20  A    between atoms: C_28  and  C_29
REMARK   21  A    between atoms: C_29  and  N_30
REMARK   22  A    between atoms: C_36  and  O_38
REMARK   23  A    between atoms: C_44  and  C_86
REMARK   24  A    between atoms: C_49  and  C_73
REMARK   25  A    between atoms: C_57  and  O_59
REMARK   26  A    between atoms: C_64  and  C_69
REMARK   27  A    between atoms: C_69  and  C_71
REMARK   28  A    between atoms: C_69  and  O_72
REMARK   29  A    between atoms: C_73  and  O_75
REMARK   30  A    between atoms: C_73  and  C_76
REMARK   31  A    between atoms: C_76  and  O_78
REMARK   32  A    between atoms: C_76  and  C_79
REMARK   33  A    between atoms: C_82  and  O_83
REMARK   34  A    between atoms: C_86  and  O_88
REMARK   35  A    between atoms: C_86  and  C_89
REMARK   36  A    between atoms: C_89  and  C_90
REMARK   37  A    between atoms: C_90  and  N_91
REMARK                            x       y       z     vdW  Elec       q    Type
REMARK                         _______ _______ _______ _____ _____    ______ ____
ROOT
ATOM      1  C   UNL     1       3.652  -2.199  27.542  0.00  0.00    +0.161 C 
ATOM      2  C   UNL     1       5.255  -2.186  27.346  0.00  0.00    +0.234 C 
ATOM      3  O   UNL     1       5.775  -3.278  27.102  0.00  0.00    -0.274 OA
ATOM      4  N   UNL     1       5.913  -1.009  27.023  0.00  0.00    -0.300 N 
ATOM      5  H   UNL     1       5.561  -0.729  26.106  0.00  0.00    +0.150 HD
ATOM      6  C   UNL     1       7.287  -0.314  27.248  0.00  0.00    +0.187 C 
ATOM      7  C   UNL     1       8.662  -0.837  26.826  0.00  0.00    +0.239 C 
ATOM      8  O   UNL     1       9.723  -0.286  27.139  0.00  0.00    -0.273 OA
ATOM      9  N   UNL     1       8.660  -1.844  25.901  0.00  0.00    -0.286 N 
ATOM     10  C   UNL     1       8.279  -1.665  24.487  0.00  0.00    +0.164 C 
ATOM     11  C   UNL     1       7.513  -2.948  24.166  0.00  0.00    +0.065 C 
ATOM     12  C   UNL     1       8.008  -3.988  25.169  0.00  0.00    +0.134 C 
ATOM     13  C   UNL     1       7.401  -0.418  24.113  0.00  0.00    +0.234 C 
ATOM     14  O   UNL     1       6.268  -0.493  23.667  0.00  0.00    -0.274 OA
ATOM     15  N   UNL     1       7.933   0.776  24.448  0.00  0.00    -0.300 N 
ATOM     16  H   UNL     1       8.933   0.823  24.637  0.00  0.00    +0.150 HD
ATOM     17  C   UNL     1       7.296   2.079  24.286  0.00  0.00    +0.190 C 
ATOM     18  C   UNL     1       5.821   2.501  24.586  0.00  0.00    +0.237 C 
ATOM     19  O   UNL     1       5.725   3.698  24.821  0.00  0.00    -0.274 OA
ATOM     20  N   UNL     1       4.633   1.760  24.574  0.00  0.00    -0.300 N 
ATOM     21  H   UNL     1       4.762   0.796  24.184  0.00  0.00    +0.150 HD
ATOM     22  C   UNL     1       3.277   2.430  24.273  0.00  0.00    +0.188 C 
ATOM     23  C   UNL     1       3.383   3.932  24.044  0.00  0.00    +0.239 C 
ATOM     24  O   UNL     1       3.436   4.312  22.867  0.00  0.00    -0.273 OA
ATOM     25  N   UNL     1       3.263   4.813  25.129  0.00  0.00    -0.286 N 
ATOM     26  C   UNL     1       4.014   4.860  26.474  0.00  0.00    +0.190 C 
ATOM     27  C   UNL     1       3.815   6.347  26.901  0.00  0.00    +0.145 C 
ATOM     28  C   UNL     1       3.638   7.105  25.594  0.00  0.00    +0.052 C 
ATOM     29  C   UNL     1       3.715   3.916  27.722  0.00  0.00    +0.237 C 
ATOM     30  O   UNL     1       3.223   4.350  28.760  0.00  0.00    -0.274 OA
ATOM     31  N   UNL     1       4.068   2.579  27.636  0.00  0.00    -0.296 N 
ATOM     32  H   UNL     1       4.376   2.254  26.724  0.00  0.00    +0.150 HD
ATOM     33  C   UNL     1       3.448   1.548  28.504  0.00  0.00    +0.170 C 
ATOM     34  C   UNL     1       3.353   0.252  27.639  0.00  0.00    +0.151 C 
ATOM     35  C   UNL     1       2.877   6.154  24.721  0.00  0.00    +0.111 C 
ATOM     36  C   UNL     1       8.472  -3.197  26.380  0.00  0.00    +0.140 C 
ATOM     37  C   UNL     1       2.916  -1.049  28.257  0.00  0.00    +0.066 C 
ENDROOT
BRANCH   1  39
ATOM     38  C   UNL     1       2.134  -3.542  28.984  0.00  0.00    +0.214 C 
ATOM     39  N   UNL     1       3.207  -3.470  28.124  0.00  0.00    -0.304 N 
ATOM     40  H   UNL     1       3.860  -4.241  28.098  0.00  0.00    +0.149 HD
ATOM     41  O   UNL     1       1.507  -2.557  29.363  0.00  0.00    -0.276 OA
BRANCH  38  42
ATOM     42  C   UNL     1       1.712  -4.940  29.366  0.00  0.00    +0.096 C 
BRANCH  42  43
ATOM     43  C   UNL     1       1.124  -5.700  28.190  0.00  0.00    +0.009 C 
BRANCH  43  44
ATOM     44  C   UNL     1       1.978  -6.909  27.852  0.00  0.00    +0.000 C 
BRANCH  44  45
ATOM     45  C   UNL     1       1.156  -7.941  27.089  0.00  0.00    +0.000 C 
BRANCH  45  46
ATOM     46  C   UNL     1       1.619  -7.982  25.645  0.00  0.00    +0.000 C 
BRANCH  46  47
ATOM     47  C   UNL     1       0.535  -7.519  24.677  0.00  0.00    +0.000 C 
BRANCH  47  48
ATOM     48  C   UNL     1       1.158  -6.487  23.747  0.00  0.00    +0.000 C 
BRANCH  48  49
ATOM     49  C   UNL     1       2.681  -6.531  23.718  0.00  0.00    +0.003 C 
BRANCH  49  50
ATOM     50  C   UNL     1       3.298  -5.261  24.347  0.00  0.00    -0.014 C 
ATOM     51  C   UNL     1       2.234  -4.234  24.758  0.00  0.00    +0.007 C 
BRANCH  50  52
ATOM     52  C   UNL     1       4.314  -4.641  23.362  0.00  0.00    +0.006 C 
BRANCH  52  53
ATOM     53  C   UNL     1       5.136  -5.663  22.546  0.00  0.00    -0.014 C 
ATOM     54  C   UNL     1       6.116  -6.400  23.466  0.00  0.00    +0.007 C 
BRANCH  53  56
ATOM     55  C   UNL     1       5.831  -3.524  21.283  0.00  0.00    +0.004 C 
ATOM     56  C   UNL     1       5.864  -5.045  21.336  0.00  0.00    -0.000 C 
ENDBRANCH  53  56
ENDBRANCH  52  53
ENDBRANCH  50  52
ENDBRANCH  49  50
ENDBRANCH  48  49
ENDBRANCH  47  48
ENDBRANCH  46  47
ENDBRANCH  45  46
ENDBRANCH  44  45
ENDBRANCH  43  44
ENDBRANCH  42  43
ENDBRANCH  38  42
ENDBRANCH   1  39
BRANCH  34  57
ATOM     57  O   UNL     1       2.896   0.246  26.324  0.00  0.00    -0.389 OA
ATOM     58  H   UNL     1       1.942   0.005  26.321  0.00  0.00    +0.210 HD
ENDBRANCH  34  57
BRANCH  33  59
ATOM     59  N   UNL     1       4.267   1.042  29.613  0.00  0.00    -0.295 NA
ATOM     60  H   UNL     1       4.817   0.243  29.295  0.00  0.00    +0.124 HD
BRANCH  59  61
ATOM     61  C   UNL     1       5.156   1.768  30.483  0.00  0.00    +0.097 C 
BRANCH  61  62
ATOM     62  C   UNL     1       5.478   3.240  30.279  0.00  0.00    +0.093 C 
BRANCH  62  63
ATOM     63  N   UNL     1       6.897   3.550  30.440  0.00  0.00    -0.329 NA
ATOM     64  H   UNL     1       7.435   2.952  29.815  0.00  0.00    +0.118 HD
ATOM     65  H   UNL     1       7.064   4.515  30.161  0.00  0.00    +0.118 HD
ENDBRANCH  62  63
ENDBRANCH  61  62
ENDBRANCH  59  61
ENDBRANCH  33  59
BRANCH  27  66
ATOM     66  O   UNL     1       4.965   6.883  27.554  0.00  0.00    -0.389 OA
ATOM     67  H   UNL     1       4.667   7.604  28.135  0.00  0.00    +0.210 HD
ENDBRANCH  27  66
BRANCH  12  68
ATOM     68  O   UNL     1       9.107  -4.688  24.587  0.00  0.00    -0.390 OA
ATOM     69  H   UNL     1       9.015  -4.625  23.620  0.00  0.00    +0.210 HD
ENDBRANCH  12  68
BRANCH   6  70
ATOM     70  C   UNL     1       7.466   0.855  28.280  0.00  0.00    +0.141 C 
ATOM     71  C   UNL     1       8.495   0.659  29.382  0.00  0.00    +0.040 C 
BRANCH  70  72
ATOM     72  O   UNL     1       7.838   2.057  27.558  0.00  0.00    -0.390 OA
ATOM     73  H   UNL     1       8.800   1.994  27.375  0.00  0.00    +0.210 HD
ENDBRANCH  70  72
ENDBRANCH   6  70
BRANCH  22  74
ATOM     74  C   UNL     1       1.835   2.274  25.049  0.00  0.00    +0.145 C 
BRANCH  74  75
ATOM     75  O   UNL     1       0.704   1.964  24.206  0.00  0.00    -0.389 OA
ATOM     76  H   UNL     1      -0.052   2.484  24.518  0.00  0.00    +0.210 HD
ENDBRANCH  74  75
BRANCH  74  77
ATOM     77  C   UNL     1       1.297   3.576  25.714  0.00  0.00    +0.048 C 
BRANCH  77  78
ATOM     78  C   UNL     1       0.450   3.300  26.978  0.00  0.00    +0.080 C 
BRANCH  78  79
ATOM     79  N   UNL     1       0.501   4.454  27.873  0.00  0.00    -0.330 NA
ATOM     80  H   UNL     1      -0.380   4.965  27.830  0.00  0.00    +0.118 HD
ATOM     81  H   UNL     1       0.619   4.151  28.838  0.00  0.00    +0.118 HD
ENDBRANCH  78  79
ENDBRANCH  77  78
ENDBRANCH  74  77
ENDBRANCH  22  74
BRANCH  17  82
ATOM     82  C   UNL     1       7.868   2.869  23.057  0.00  0.00    +0.176 C 
BRANCH  82  83
ATOM     83  O   UNL     1       7.208   2.340  21.871  0.00  0.00    -0.387 OA
ATOM     84  H   UNL     1       7.210   3.071  21.219  0.00  0.00    +0.210 HD
ENDBRANCH  82  83
BRANCH  82  85
ATOM     85  C   UNL     1       9.419   2.707  22.875  0.00  0.00    +0.175 C 
BRANCH  85  86
ATOM     86  C   UNL     1      10.223   3.904  23.335  0.00  0.00    -0.016 A 
ATOM     87  C   UNL     1       9.626   5.127  23.676  0.00  0.00    +0.010 A 
ATOM     88  C   UNL     1      10.409   6.198  24.105  0.00  0.00    +0.046 A 
ATOM     89  C   UNL     1      11.787   6.053  24.189  0.00  0.00    +0.117 A 
ATOM     90  C   UNL     1      12.406   4.866  23.813  0.00  0.00    +0.046 A 
ATOM     91  C   UNL     1      11.625   3.794  23.386  0.00  0.00    +0.010 A 
BRANCH  89  92
ATOM     92  O   UNL     1      12.513   7.105  24.661  0.00  0.00    -0.507 OA
ATOM     93  H   UNL     1      13.223   6.755  25.222  0.00  0.00    +0.292 HD
ENDBRANCH  89  92
ENDBRANCH  85  86
BRANCH  85  94
ATOM     94  O   UNL     1       9.698   2.451  21.493  0.00  0.00    -0.385 OA
ATOM     95  H   UNL     1      10.587   2.825  21.325  0.00  0.00    +0.210 HD
ENDBRANCH  85  94
ENDBRANCH  82  85
ENDBRANCH  17  82
TORSDOF 33
ENDMDL
MODEL 3
REMARK VINA RESULT:      -2.6      1.558      2.991
REMARK  Name = 
REMARK  37 active torsions:
REMARK  status: ('A' for Active; 'I' for Inactive)
REMARK    1  A    between atoms: C_1  and  C_2
REMARK    2  A    between atoms: C_2  and  C_3
REMARK    3  A    between atoms: C_3  and  C_4
REMARK    4  A    between atoms: C_3  and  C_5
REMARK    5  A    between atoms: C_5  and  C_6
REMARK    6  A    between atoms: C_6  and  C_7
REMARK    7  A    between atoms: C_6  and  C_8
REMARK    8  A    between atoms: C_8  and  C_9
REMARK    9  A    between atoms: C_9  and  C_10
REMARK   10  A    between atoms: C_10  and  C_11
REMARK   11  A    between atoms: C_11  and  C_12
REMARK   12  A    between atoms: C_12  and  C_13
REMARK   13  A    between atoms: C_13  and  C_14
REMARK   14  A    between atoms: C_14  and  C_15
REMARK   15  A    between atoms: C_15  and  C_16
REMARK   16  A    between atoms: N_18  and  C_19
REMARK   17  A    between atoms: C_22  and  O_24
REMARK   18  A    between atoms: C_25  and  N_27
REMARK   19  A    between atoms: N_27  and  C_28
REMARK   20  A    between atoms: C_28  and  C_29
REMARK   21  A    between atoms: C_29  and  N_30
REMARK   22  A    between atoms: C_36  and  O_38
REMARK   23  A    between atoms: C_44  and  C_86
REMARK   24  A    between atoms: C_49  and  C_73
REMARK   25  A    between atoms: C_57  and  O_59
REMARK   26  A    between atoms: C_64  and  C_69
REMARK   27  A    between atoms: C_69  and  C_71
REMARK   28  A    between atoms: C_69  and  O_72
REMARK   29  A    between atoms: C_73  and  O_75
REMARK   30  A    between atoms: C_73  and  C_76
REMARK   31  A    between atoms: C_76  and  O_78
REMARK   32  A    between atoms: C_76  and  C_79
REMARK   33  A    between atoms: C_82  and  O_83
REMARK   34  A    between atoms: C_86  and  O_88
REMARK   35  A    between atoms: C_86  and  C_89
REMARK   36  A    between atoms: C_89  and  C_90
REMARK   37  A    between atoms: C_90  and  N_91
REMARK                            x       y       z     vdW  Elec       q    Type
REMARK                         _______ _______ _______ _____ _____    ______ ____
ROOT
ATOM      1  C   UNL     1       4.858   2.102  24.072  0.00  0.00    +0.161 C 
ATOM      2  C   UNL     1       4.546   2.037  25.655  0.00  0.00    +0.234 C 
ATOM      3  O   UNL     1       3.622   2.752  26.051  0.00  0.00    -0.274 OA
ATOM      4  N   UNL     1       4.960   0.948  26.408  0.00  0.00    -0.300 N 
ATOM      5  H   UNL     1       4.460   0.139  26.036  0.00  0.00    +0.150 HD
ATOM      6  C   UNL     1       5.424   0.609  27.854  0.00  0.00    +0.187 C 
ATOM      7  C   UNL     1       4.627   0.807  29.145  0.00  0.00    +0.239 C 
ATOM      8  O   UNL     1       5.101   0.622  30.271  0.00  0.00    -0.273 OA
ATOM      9  N   UNL     1       3.282   1.007  28.993  0.00  0.00    -0.286 N 
ATOM     10  C   UNL     1       2.337  -0.039  28.554  0.00  0.00    +0.164 C 
ATOM     11  C   UNL     1       1.369   0.722  27.650  0.00  0.00    +0.065 C 
ATOM     12  C   UNL     1       1.447   2.182  28.093  0.00  0.00    +0.134 C 
ATOM     13  C   UNL     1       2.916  -1.279  27.785  0.00  0.00    +0.234 C 
ATOM     14  O   UNL     1       2.643  -1.550  26.627  0.00  0.00    -0.274 OA
ATOM     15  N   UNL     1       3.864  -1.972  28.450  0.00  0.00    -0.300 N 
ATOM     16  H   UNL     1       3.935  -1.846  29.459  0.00  0.00    +0.150 HD
ATOM     17  C   UNL     1       4.618  -3.112  27.937  0.00  0.00    +0.190 C 
ATOM     18  C   UNL     1       5.267  -3.313  26.529  0.00  0.00    +0.237 C 
ATOM     19  O   UNL     1       6.205  -4.098  26.565  0.00  0.00    -0.274 OA
ATOM     20  N   UNL     1       4.921  -2.796  25.275  0.00  0.00    -0.300 N 
ATOM     21  H   UNL     1       4.005  -2.288  25.287  0.00  0.00    +0.150 HD
ATOM     22  C   UNL     1       5.247  -3.563  23.978  0.00  0.00    +0.188 C 
ATOM     23  C   UNL     1       5.994  -4.868  24.219  0.00  0.00    +0.239 C 
ATOM     24  O   UNL     1       5.313  -5.902  24.245  0.00  0.00    -0.273 OA
ATOM     25  N   UNL     1       7.397  -4.874  24.246  0.00  0.00    -0.286 N 
ATOM     26  C   UNL     1       8.389  -4.032  25.071  0.00  0.00    +0.190 C 
ATOM     27  C   UNL     1       9.668  -4.926  25.043  0.00  0.00    +0.145 C 
ATOM     28  C   UNL     1       9.145  -6.344  24.871  0.00  0.00    +0.052 C 
ATOM     29  C   UNL     1       8.800  -2.527  24.749  0.00  0.00    +0.237 C 
ATOM     30  O   UNL     1       9.927  -2.231  24.360  0.00  0.00    -0.274 OA
ATOM     31  N   UNL     1       7.864  -1.529  24.963  0.00  0.00    -0.296 N 
ATOM     32  H   UNL     1       6.922  -1.838  25.187  0.00  0.00    +0.150 HD
ATOM     33  C   UNL     1       7.959  -0.209  24.292  0.00  0.00    +0.170 C 
ATOM     34  C   UNL     1       6.491   0.249  24.023  0.00  0.00    +0.151 C 
ATOM     35  C   UNL     1       7.956  -6.187  23.973  0.00  0.00    +0.111 C 
ATOM     36  C   UNL     1       2.830   2.350  28.699  0.00  0.00    +0.140 C 
ATOM     37  C   UNL     1       6.206   1.628  23.494  0.00  0.00    +0.066 C 
ENDROOT
BRANCH   1  39
ATOM     38  C   UNL     1       3.304   3.789  23.111  0.00  0.00    +0.214 C 
ATOM     39  N   UNL     1       4.564   3.436  23.536  0.00  0.00    -0.304 N 
ATOM     40  H   UNL     1       5.352   3.993  23.234  0.00  0.00    +0.149 HD
ATOM     41  O   UNL     1       2.353   3.013  23.101  0.00  0.00    -0.276 OA
BRANCH  38  42
ATOM     42  C   UNL     1       3.138   5.242  22.736  0.00  0.00    +0.096 C 
BRANCH  42  43
ATOM     43  C   UNL     1       4.018   5.633  21.563  0.00  0.00    +0.009 C 
BRANCH  43  44
ATOM     44  C   UNL     1       4.661   6.988  21.802  0.00  0.00    +0.000 C 
BRANCH  44  45
ATOM     45  C   UNL     1       5.525   6.949  23.057  0.00  0.00    +0.000 C 
BRANCH  45  46
ATOM     46  C   UNL     1       6.983   7.106  22.667  0.00  0.00    +0.000 C 
BRANCH  46  47
ATOM     47  C   UNL     1       7.873   6.054  23.320  0.00  0.00    +0.000 C 
BRANCH  47  48
ATOM     48  C   UNL     1       7.812   6.268  24.826  0.00  0.00    +0.000 C 
BRANCH  48  49
ATOM     49  C   UNL     1       9.004   7.039  25.382  0.00  0.00    +0.003 C 
BRANCH  49  50
ATOM     50  C   UNL     1      10.314   6.232  25.253  0.00  0.00    -0.014 C 
ATOM     51  C   UNL     1      11.563   7.108  25.423  0.00  0.00    +0.007 C 
BRANCH  50  52
ATOM     52  C   UNL     1      10.335   5.497  23.894  0.00  0.00    +0.006 C 
BRANCH  52  53
ATOM     53  C   UNL     1      11.626   4.703  23.603  0.00  0.00    -0.014 C 
ATOM     54  C   UNL     1      12.682   5.626  22.986  0.00  0.00    +0.007 C 
BRANCH  53  56
ATOM     55  C   UNL     1       9.938   3.132  22.448  0.00  0.00    +0.004 C 
ATOM     56  C   UNL     1      11.399   3.453  22.730  0.00  0.00    -0.000 C 
ENDBRANCH  53  56
ENDBRANCH  52  53
ENDBRANCH  50  52
ENDBRANCH  49  50
ENDBRANCH  48  49
ENDBRANCH  47  48
ENDBRANCH  46  47
ENDBRANCH  45  46
ENDBRANCH  44  45
ENDBRANCH  43  44
ENDBRANCH  42  43
ENDBRANCH  38  42
ENDBRANCH   1  39
BRANCH  34  57
ATOM     57  O   UNL     1       5.516  -0.593  23.495  0.00  0.00    -0.389 OA
ATOM     58  H   UNL     1       4.999  -0.983  24.236  0.00  0.00    +0.210 HD
ENDBRANCH  34  57
BRANCH  33  59
ATOM     59  N   UNL     1       8.418   0.916  25.117  0.00  0.00    -0.295 NA
ATOM     60  H   UNL     1       8.170   0.749  26.093  0.00  0.00    +0.124 HD
BRANCH  59  61
ATOM     61  C   UNL     1       9.724   1.519  25.177  0.00  0.00    +0.097 C 
BRANCH  61  62
ATOM     62  C   UNL     1      11.004   0.697  25.197  0.00  0.00    +0.093 C 
BRANCH  62  63
ATOM     63  N   UNL     1      11.361   0.151  23.889  0.00  0.00    -0.329 NA
ATOM     64  H   UNL     1      11.034   0.790  23.168  0.00  0.00    +0.118 HD
ATOM     65  H   UNL     1      12.376   0.096  23.815  0.00  0.00    +0.118 HD
ENDBRANCH  62  63
ENDBRANCH  61  62
ENDBRANCH  59  61
ENDBRANCH  33  59
BRANCH  27  66
ATOM     66  O   UNL     1      10.387  -4.881  26.275  0.00  0.00    -0.389 OA
ATOM     67  H   UNL     1      10.207  -5.709  26.753  0.00  0.00    +0.210 HD
ENDBRANCH  27  66
BRANCH  12  68
ATOM     68  O   UNL     1       0.445   2.405  29.084  0.00  0.00    -0.390 OA
ATOM     69  H   UNL     1       0.839   2.198  29.950  0.00  0.00    +0.210 HD
ENDBRANCH  12  68
BRANCH   6  70
ATOM     70  C   UNL     1       6.933   0.359  28.204  0.00  0.00    +0.141 C 
ATOM     71  C   UNL     1       7.607  -0.841  27.558  0.00  0.00    +0.040 C 
BRANCH  70  72
ATOM     72  O   UNL     1       7.697   1.533  27.824  0.00  0.00    -0.390 OA
ATOM     73  H   UNL     1       7.227   2.311  28.195  0.00  0.00    +0.210 HD
ENDBRANCH  70  72
ENDBRANCH   6  70
BRANCH  22  74
ATOM     74  C   UNL     1       5.902  -3.015  22.572  0.00  0.00    +0.145 C 
BRANCH  74  75
ATOM     75  O   UNL     1       4.957  -2.662  21.539  0.00  0.00    -0.389 OA
ATOM     76  H   UNL     1       4.636  -3.482  21.135  0.00  0.00    +0.210 HD
ENDBRANCH  74  75
BRANCH  74  77
ATOM     77  C   UNL     1       6.748  -4.060  21.784  0.00  0.00    +0.048 C 
BRANCH  77  78
ATOM     78  C   UNL     1       5.948  -4.757  20.660  0.00  0.00    +0.080 C 
BRANCH  78  79
ATOM     79  N   UNL     1       5.807  -6.181  20.959  0.00  0.00    -0.330 NA
ATOM     80  H   UNL     1       6.514  -6.465  21.636  0.00  0.00    +0.118 HD
ATOM     81  H   UNL     1       4.901  -6.368  21.383  0.00  0.00    +0.118 HD
ENDBRANCH  78  79
ENDBRANCH  77  78
ENDBRANCH  74  77
ENDBRANCH  22  74
BRANCH  17  82
ATOM     82  C   UNL     1       4.096  -4.474  28.516  0.00  0.00    +0.176 C 
BRANCH  82  83
ATOM     83  O   UNL     1       4.989  -5.513  28.020  0.00  0.00    -0.387 OA
ATOM     84  H   UNL     1       5.466  -5.850  28.807  0.00  0.00    +0.210 HD
ENDBRANCH  82  83
BRANCH  82  85
ATOM     85  C   UNL     1       2.632  -4.824  28.073  0.00  0.00    +0.175 C 
BRANCH  85  86
ATOM     86  C   UNL     1       2.168  -6.199  28.504  0.00  0.00    -0.016 A 
ATOM     87  C   UNL     1       2.564  -6.782  29.717  0.00  0.00    +0.010 A 
ATOM     88  C   UNL     1       2.101  -8.047  30.076  0.00  0.00    +0.046 A 
ATOM     89  C   UNL     1       1.247  -8.735  29.223  0.00  0.00    +0.117 A 
ATOM     90  C   UNL     1       0.877  -8.198  27.995  0.00  0.00    +0.046 A 
ATOM     91  C   UNL     1       1.338  -6.932  27.637  0.00  0.00    +0.010 A 
BRANCH  89  92
ATOM     92  O   UNL     1       0.776  -9.946  29.631  0.00  0.00    -0.507 OA
ATOM     93  H   UNL     1       0.236  -9.807  30.425  0.00  0.00    +0.292 HD
ENDBRANCH  89  92
ENDBRANCH  85  86
BRANCH  85  94
ATOM     94  O   UNL     1       2.543  -4.720  26.647  0.00  0.00    -0.385 OA
ATOM     95  H   UNL     1       2.664  -3.772  26.439  0.00  0.00    +0.210 HD
ENDBRANCH  85  94
ENDBRANCH  82  85
ENDBRANCH  17  82
TORSDOF 33
ENDMDL
MODEL 4
REMARK VINA RESULT:      -2.3      2.253     10.351
REMARK  Name = 
REMARK  37 active torsions:
REMARK  status: ('A' for Active; 'I' for Inactive)
REMARK    1  A    between atoms: C_1  and  C_2
REMARK    2  A    between atoms: C_2  and  C_3
REMARK    3  A    between atoms: C_3  and  C_4
REMARK    4  A    between atoms: C_3  and  C_5
REMARK    5  A    between atoms: C_5  and  C_6
REMARK    6  A    between atoms: C_6  and  C_7
REMARK    7  A    between atoms: C_6  and  C_8
REMARK    8  A    between atoms: C_8  and  C_9
REMARK    9  A    between atoms: C_9  and  C_10
REMARK   10  A    between atoms: C_10  and  C_11
REMARK   11  A    between atoms: C_11  and  C_12
REMARK   12  A    between atoms: C_12  and  C_13
REMARK   13  A    between atoms: C_13  and  C_14
REMARK   14  A    between atoms: C_14  and  C_15
REMARK   15  A    between atoms: C_15  and  C_16
REMARK   16  A    between atoms: N_18  and  C_19
REMARK   17  A    between atoms: C_22  and  O_24
REMARK   18  A    between atoms: C_25  and  N_27
REMARK   19  A    between atoms: N_27  and  C_28
REMARK   20  A    between atoms: C_28  and  C_29
REMARK   21  A    between atoms: C_29  and  N_30
REMARK   22  A    between atoms: C_36  and  O_38
REMARK   23  A    between atoms: C_44  and  C_86
REMARK   24  A    between atoms: C_49  and  C_73
REMARK   25  A    between atoms: C_57  and  O_59
REMARK   26  A    between atoms: C_64  and  C_69
REMARK   27  A    between atoms: C_69  and  C_71
REMARK   28  A    between atoms: C_69  and  O_72
REMARK   29  A    between atoms: C_73  and  O_75
REMARK   30  A    between atoms: C_73  and  C_76
REMARK   31  A    between atoms: C_76  and  O_78
REMARK   32  A    between atoms: C_76  and  C_79
REMARK   33  A    between atoms: C_82  and  O_83
REMARK   34  A    between atoms: C_86  and  O_88
REMARK   35  A    between atoms: C_86  and  C_89
REMARK   36  A    between atoms: C_89  and  C_90
REMARK   37  A    between atoms: C_90  and  N_91
REMARK                            x       y       z     vdW  Elec       q    Type
REMARK                         _______ _______ _______ _____ _____    ______ ____
ROOT
ATOM      1  C   UNL     1       3.903  -2.070  27.681  0.00  0.00    +0.161 C 
ATOM      2  C   UNL     1       5.343  -2.305  26.990  0.00  0.00    +0.234 C 
ATOM      3  O   UNL     1       5.597  -3.466  26.657  0.00  0.00    -0.274 OA
ATOM      4  N   UNL     1       6.024  -1.245  26.409  0.00  0.00    -0.300 N 
ATOM      5  H   UNL     1       5.441  -0.923  25.635  0.00  0.00    +0.150 HD
ATOM      6  C   UNL     1       7.482  -0.768  26.150  0.00  0.00    +0.187 C 
ATOM      7  C   UNL     1       8.560  -1.499  25.346  0.00  0.00    +0.239 C 
ATOM      8  O   UNL     1       9.732  -1.115  25.277  0.00  0.00    -0.273 OA
ATOM      9  N   UNL     1       8.119  -2.503  24.528  0.00  0.00    -0.286 N 
ATOM     10  C   UNL     1       7.334  -2.279  23.298  0.00  0.00    +0.164 C 
ATOM     11  C   UNL     1       6.332  -3.432  23.308  0.00  0.00    +0.065 C 
ATOM     12  C   UNL     1       6.968  -4.527  24.162  0.00  0.00    +0.134 C 
ATOM     13  C   UNL     1       6.570  -0.915  23.149  0.00  0.00    +0.234 C 
ATOM     14  O   UNL     1       5.356  -0.819  23.088  0.00  0.00    -0.274 OA
ATOM     15  N   UNL     1       7.346   0.185  23.230  0.00  0.00    -0.300 N 
ATOM     16  H   UNL     1       8.350   0.080  23.092  0.00  0.00    +0.150 HD
ATOM     17  C   UNL     1       6.883   1.570  23.204  0.00  0.00    +0.190 C 
ATOM     18  C   UNL     1       5.658   2.215  23.929  0.00  0.00    +0.237 C 
ATOM     19  O   UNL     1       5.814   3.415  24.112  0.00  0.00    -0.274 OA
ATOM     20  N   UNL     1       4.436   1.665  24.333  0.00  0.00    -0.300 N 
ATOM     21  H   UNL     1       4.295   0.690  23.979  0.00  0.00    +0.150 HD
ATOM     22  C   UNL     1       3.165   2.533  24.437  0.00  0.00    +0.188 C 
ATOM     23  C   UNL     1       3.405   3.998  24.101  0.00  0.00    +0.239 C 
ATOM     24  O   UNL     1       3.132   4.356  22.947  0.00  0.00    -0.273 OA
ATOM     25  N   UNL     1       3.766   4.897  25.116  0.00  0.00    -0.286 N 
ATOM     26  C   UNL     1       4.907   4.840  26.151  0.00  0.00    +0.190 C 
ATOM     27  C   UNL     1       5.069   6.344  26.533  0.00  0.00    +0.145 C 
ATOM     28  C   UNL     1       4.593   7.108  25.307  0.00  0.00    +0.052 C 
ATOM     29  C   UNL     1       4.892   3.964  27.481  0.00  0.00    +0.237 C 
ATOM     30  O   UNL     1       4.825   4.477  28.595  0.00  0.00    -0.274 OA
ATOM     31  N   UNL     1       5.004   2.588  27.366  0.00  0.00    -0.296 N 
ATOM     32  H   UNL     1       4.954   2.212  26.423  0.00  0.00    +0.150 HD
ATOM     33  C   UNL     1       4.554   1.672  28.442  0.00  0.00    +0.170 C 
ATOM     34  C   UNL     1       4.004   0.398  27.727  0.00  0.00    +0.151 C 
ATOM     35  C   UNL     1       3.465   6.277  24.775  0.00  0.00    +0.111 C 
ATOM     36  C   UNL     1       7.903  -3.806  25.119  0.00  0.00    +0.140 C 
ATOM     37  C   UNL     1       3.607  -0.814  28.525  0.00  0.00    +0.066 C 
ENDROOT
BRANCH   1  39
ATOM     38  C   UNL     1       3.811  -3.409  29.775  0.00  0.00    +0.214 C 
ATOM     39  N   UNL     1       3.491  -3.253  28.446  0.00  0.00    -0.304 N 
ATOM     40  H   UNL     1       3.207  -4.066  27.916  0.00  0.00    +0.149 HD
ATOM     41  O   UNL     1       4.497  -2.607  30.402  0.00  0.00    -0.276 OA
BRANCH  38  42
ATOM     42  C   UNL     1       3.179  -4.601  30.451  0.00  0.00    +0.096 C 
BRANCH  42  43
ATOM     43  C   UNL     1       3.900  -5.895  30.117  0.00  0.00    +0.009 C 
BRANCH  43  44
ATOM     44  C   UNL     1       2.921  -6.940  29.611  0.00  0.00    +0.000 C 
BRANCH  44  45
ATOM     45  C   UNL     1       1.583  -6.802  30.326  0.00  0.00    +0.000 C 
BRANCH  45  46
ATOM     46  C   UNL     1       0.786  -8.081  30.150  0.00  0.00    +0.000 C 
BRANCH  46  47
ATOM     47  C   UNL     1       1.157  -8.822  28.870  0.00  0.00    +0.000 C 
BRANCH  47  48
ATOM     48  C   UNL     1       0.446  -8.130  27.714  0.00  0.00    +0.000 C 
BRANCH  48  49
ATOM     49  C   UNL     1       0.636  -8.830  26.374  0.00  0.00    +0.003 C 
BRANCH  49  50
ATOM     50  C   UNL     1       1.445  -7.959  25.387  0.00  0.00    -0.014 C 
ATOM     51  C   UNL     1       1.894  -8.741  24.146  0.00  0.00    +0.007 C 
BRANCH  50  52
ATOM     52  C   UNL     1       2.657  -7.341  26.120  0.00  0.00    +0.006 C 
BRANCH  52  53
ATOM     53  C   UNL     1       2.818  -5.816  25.940  0.00  0.00    -0.014 C 
ATOM     54  C   UNL     1       1.551  -5.095  26.413  0.00  0.00    +0.007 C 
BRANCH  53  56
ATOM     55  C   UNL     1       2.046  -4.823  23.688  0.00  0.00    +0.004 C 
ATOM     56  C   UNL     1       3.194  -5.400  24.504  0.00  0.00    -0.000 C 
ENDBRANCH  53  56
ENDBRANCH  52  53
ENDBRANCH  50  52
ENDBRANCH  49  50
ENDBRANCH  48  49
ENDBRANCH  47  48
ENDBRANCH  46  47
ENDBRANCH  45  46
ENDBRANCH  44  45
ENDBRANCH  43  44
ENDBRANCH  42  43
ENDBRANCH  38  42
ENDBRANCH   1  39
BRANCH  34  57
ATOM     57  O   UNL     1       3.153   0.451  26.626  0.00  0.00    -0.389 OA
ATOM     58  H   UNL     1       3.679   0.289  25.810  0.00  0.00    +0.210 HD
ENDBRANCH  34  57
BRANCH  33  59
ATOM     59  N   UNL     1       5.604   1.056  29.263  0.00  0.00    -0.295 NA
ATOM     60  H   UNL     1       6.373   0.753  28.664  0.00  0.00    +0.124 HD
BRANCH  59  61
ATOM     61  C   UNL     1       6.250   1.575  30.442  0.00  0.00    +0.097 C 
BRANCH  61  62
ATOM     62  C   UNL     1       7.584   2.304  30.389  0.00  0.00    +0.093 C 
BRANCH  62  63
ATOM     63  N   UNL     1       7.668   3.276  29.300  0.00  0.00    -0.329 NA
ATOM     64  H   UNL     1       8.608   3.249  28.911  0.00  0.00    +0.118 HD
ATOM     65  H   UNL     1       7.021   3.009  28.561  0.00  0.00    +0.118 HD
ENDBRANCH  62  63
ENDBRANCH  61  62
ENDBRANCH  59  61
ENDBRANCH  33  59
BRANCH  27  66
ATOM     66  O   UNL     1       6.432   6.702  26.759  0.00  0.00    -0.389 OA
ATOM     67  H   UNL     1       6.867   5.949  27.195  0.00  0.00    +0.210 HD
ENDBRANCH  27  66
BRANCH  12  68
ATOM     68  O   UNL     1       7.711  -5.392  23.305  0.00  0.00    -0.390 OA
ATOM     69  H   UNL     1       7.741  -6.268  23.729  0.00  0.00    +0.210 HD
ENDBRANCH  12  68
BRANCH   6  70
ATOM     70  C   UNL     1       8.146   0.369  27.004  0.00  0.00    +0.141 C 
ATOM     71  C   UNL     1       9.295  -0.029  27.917  0.00  0.00    +0.040 C 
BRANCH  70  72
ATOM     72  O   UNL     1       8.651   1.389  26.103  0.00  0.00    -0.390 OA
ATOM     73  H   UNL     1       9.616   1.234  26.008  0.00  0.00    +0.210 HD
ENDBRANCH  70  72
ENDBRANCH   6  70
BRANCH  22  74
ATOM     74  C   UNL     1       2.041   2.607  25.636  0.00  0.00    +0.145 C 
BRANCH  74  75
ATOM     75  O   UNL     1       1.023   1.583  25.600  0.00  0.00    -0.389 OA
ATOM     76  H   UNL     1       1.443   0.753  25.330  0.00  0.00    +0.210 HD
ENDBRANCH  74  75
BRANCH  74  77
ATOM     77  C   UNL     1       1.123   3.866  25.606  0.00  0.00    +0.048 C 
BRANCH  77  78
ATOM     78  C   UNL     1       0.901   4.481  27.006  0.00  0.00    +0.080 C 
BRANCH  78  79
ATOM     79  N   UNL     1       1.676   3.744  28.003  0.00  0.00    -0.330 NA
ATOM     80  H   UNL     1       1.051   3.184  28.582  0.00  0.00    +0.118 HD
ATOM     81  H   UNL     1       2.317   3.098  27.549  0.00  0.00    +0.118 HD
ENDBRANCH  78  79
ENDBRANCH  77  78
ENDBRANCH  74  77
ENDBRANCH  22  74
BRANCH  17  82
ATOM     82  C   UNL     1       7.138   2.251  21.813  0.00  0.00    +0.176 C 
BRANCH  82  83
ATOM     83  O   UNL     1       8.471   1.847  21.383  0.00  0.00    -0.387 OA
ATOM     84  H   UNL     1       8.987   1.723  22.207  0.00  0.00    +0.210 HD
ENDBRANCH  82  83
BRANCH  82  85
ATOM     85  C   UNL     1       7.088   3.819  21.865  0.00  0.00    +0.175 C 
BRANCH  85  86
ATOM     86  C   UNL     1       8.066   4.437  22.841  0.00  0.00    -0.016 A 
ATOM     87  C   UNL     1       9.174   3.738  23.341  0.00  0.00    +0.010 A 
ATOM     88  C   UNL     1      10.055   4.354  24.230  0.00  0.00    +0.046 A 
ATOM     89  C   UNL     1       9.827   5.666  24.625  0.00  0.00    +0.117 A 
ATOM     90  C   UNL     1       8.711   6.364  24.179  0.00  0.00    +0.046 A 
ATOM     91  C   UNL     1       7.833   5.750  23.288  0.00  0.00    +0.010 A 
BRANCH  89  92
ATOM     92  O   UNL     1      10.737   6.250  25.455  0.00  0.00    -0.507 OA
ATOM     93  H   UNL     1      11.300   6.832  24.921  0.00  0.00    +0.292 HD
ENDBRANCH  89  92
ENDBRANCH  85  86
BRANCH  85  94
ATOM     94  O   UNL     1       5.757   4.228  22.206  0.00  0.00    -0.385 OA
ATOM     95  H   UNL     1       5.294   4.370  21.356  0.00  0.00    +0.210 HD
ENDBRANCH  85  94
ENDBRANCH  82  85
ENDBRANCH  17  82
TORSDOF 33
ENDMDL
MODEL 5
REMARK VINA RESULT:      -2.1      2.648      4.580
REMARK  Name = 
REMARK  37 active torsions:
REMARK  status: ('A' for Active; 'I' for Inactive)
REMARK    1  A    between atoms: C_1  and  C_2
REMARK    2  A    between atoms: C_2  and  C_3
REMARK    3  A    between atoms: C_3  and  C_4
REMARK    4  A    between atoms: C_3  and  C_5
REMARK    5  A    between atoms: C_5  and  C_6
REMARK    6  A    between atoms: C_6  and  C_7
REMARK    7  A    between atoms: C_6  and  C_8
REMARK    8  A    between atoms: C_8  and  C_9
REMARK    9  A    between atoms: C_9  and  C_10
REMARK   10  A    between atoms: C_10  and  C_11
REMARK   11  A    between atoms: C_11  and  C_12
REMARK   12  A    between atoms: C_12  and  C_13
REMARK   13  A    between atoms: C_13  and  C_14
REMARK   14  A    between atoms: C_14  and  C_15
REMARK   15  A    between atoms: C_15  and  C_16
REMARK   16  A    between atoms: N_18  and  C_19
REMARK   17  A    between atoms: C_22  and  O_24
REMARK   18  A    between atoms: C_25  and  N_27
REMARK   19  A    between atoms: N_27  and  C_28
REMARK   20  A    between atoms: C_28  and  C_29
REMARK   21  A    between atoms: C_29  and  N_30
REMARK   22  A    between atoms: C_36  and  O_38
REMARK   23  A    between atoms: C_44  and  C_86
REMARK   24  A    between atoms: C_49  and  C_73
REMARK   25  A    between atoms: C_57  and  O_59
REMARK   26  A    between atoms: C_64  and  C_69
REMARK   27  A    between atoms: C_69  and  C_71
REMARK   28  A    between atoms: C_69  and  O_72
REMARK   29  A    between atoms: C_73  and  O_75
REMARK   30  A    between atoms: C_73  and  C_76
REMARK   31  A    between atoms: C_76  and  O_78
REMARK   32  A    between atoms: C_76  and  C_79
REMARK   33  A    between atoms: C_82  and  O_83
REMARK   34  A    between atoms: C_86  and  O_88
REMARK   35  A    between atoms: C_86  and  C_89
REMARK   36  A    between atoms: C_89  and  C_90
REMARK   37  A    between atoms: C_90  and  N_91
REMARK                            x       y       z     vdW  Elec       q    Type
REMARK                         _______ _______ _______ _____ _____    ______ ____
ROOT
ATOM      1  C   UNL     1       5.107   2.343  24.169  0.00  0.00    +0.161 C 
ATOM      2  C   UNL     1       4.853   2.411  25.762  0.00  0.00    +0.234 C 
ATOM      3  O   UNL     1       3.969   3.189  26.133  0.00  0.00    -0.274 OA
ATOM      4  N   UNL     1       5.257   1.368  26.583  0.00  0.00    -0.300 N 
ATOM      5  H   UNL     1       4.717   0.552  26.293  0.00  0.00    +0.150 HD
ATOM      6  C   UNL     1       5.762   1.125  28.034  0.00  0.00    +0.187 C 
ATOM      7  C   UNL     1       5.022   1.451  29.333  0.00  0.00    +0.239 C 
ATOM      8  O   UNL     1       5.531   1.335  30.452  0.00  0.00    -0.273 OA
ATOM      9  N   UNL     1       3.680   1.688  29.213  0.00  0.00    -0.286 N 
ATOM     10  C   UNL     1       2.684   0.647  28.890  0.00  0.00    +0.164 C 
ATOM     11  C   UNL     1       1.710   1.372  27.962  0.00  0.00    +0.065 C 
ATOM     12  C   UNL     1       1.854   2.858  28.287  0.00  0.00    +0.134 C 
ATOM     13  C   UNL     1       3.191  -0.669  28.200  0.00  0.00    +0.234 C 
ATOM     14  O   UNL     1       2.866  -1.017  27.077  0.00  0.00    -0.274 OA
ATOM     15  N   UNL     1       4.139  -1.343  28.884  0.00  0.00    -0.300 N 
ATOM     16  H   UNL     1       4.252  -1.143  29.877  0.00  0.00    +0.150 HD
ATOM     17  C   UNL     1       4.833  -2.546  28.436  0.00  0.00    +0.190 C 
ATOM     18  C   UNL     1       5.422  -2.878  27.026  0.00  0.00    +0.237 C 
ATOM     19  O   UNL     1       6.333  -3.693  27.091  0.00  0.00    -0.274 OA
ATOM     20  N   UNL     1       5.047  -2.448  25.749  0.00  0.00    -0.300 N 
ATOM     21  H   UNL     1       4.150  -1.906  25.752  0.00  0.00    +0.150 HD
ATOM     22  C   UNL     1       5.298  -3.324  24.505  0.00  0.00    +0.188 C 
ATOM     23  C   UNL     1       6.008  -4.632  24.821  0.00  0.00    +0.239 C 
ATOM     24  O   UNL     1       5.293  -5.636  24.951  0.00  0.00    -0.273 OA
ATOM     25  N   UNL     1       7.410  -4.689  24.800  0.00  0.00    -0.286 N 
ATOM     26  C   UNL     1       8.461  -3.824  25.522  0.00  0.00    +0.190 C 
ATOM     27  C   UNL     1       9.707  -4.763  25.520  0.00  0.00    +0.145 C 
ATOM     28  C   UNL     1       9.129  -6.170  25.477  0.00  0.00    +0.052 C 
ATOM     29  C   UNL     1       8.911  -2.363  25.070  0.00  0.00    +0.237 C 
ATOM     30  O   UNL     1      10.032  -2.140  24.620  0.00  0.00    -0.274 OA
ATOM     31  N   UNL     1       8.019  -1.318  25.236  0.00  0.00    -0.296 N 
ATOM     32  H   UNL     1       7.075  -1.574  25.516  0.00  0.00    +0.150 HD
ATOM     33  C   UNL     1       8.133  -0.058  24.462  0.00  0.00    +0.170 C 
ATOM     34  C   UNL     1       6.673   0.432  24.209  0.00  0.00    +0.151 C 
ATOM     35  C   UNL     1       7.913  -6.039  24.611  0.00  0.00    +0.111 C 
ATOM     36  C   UNL     1       3.264   3.020  28.830  0.00  0.00    +0.140 C 
ATOM     37  C   UNL     1       6.416   1.776  23.584  0.00  0.00    +0.066 C 
ENDROOT
BRANCH   1  39
ATOM     38  C   UNL     1       4.440   3.748  22.229  0.00  0.00    +0.214 C 
ATOM     39  N   UNL     1       4.840   3.641  23.541  0.00  0.00    -0.304 N 
ATOM     40  H   UNL     1       5.213   4.460  24.002  0.00  0.00    +0.149 HD
ATOM     41  O   UNL     1       4.325   2.783  21.478  0.00  0.00    -0.276 OA
BRANCH  38  42
ATOM     42  C   UNL     1       4.056   5.139  21.786  0.00  0.00    +0.096 C 
BRANCH  42  43
ATOM     43  C   UNL     1       3.612   6.006  22.951  0.00  0.00    +0.009 C 
BRANCH  43  44
ATOM     44  C   UNL     1       2.653   7.085  22.482  0.00  0.00    +0.000 C 
BRANCH  44  45
ATOM     45  C   UNL     1       1.379   6.458  21.931  0.00  0.00    +0.000 C 
BRANCH  45  46
ATOM     46  C   UNL     1       1.034   7.106  20.604  0.00  0.00    +0.000 C 
BRANCH  46  47
ATOM     47  C   UNL     1       0.470   6.106  19.601  0.00  0.00    +0.000 C 
BRANCH  47  48
ATOM     48  C   UNL     1       1.555   5.077  19.315  0.00  0.00    +0.000 C 
BRANCH  48  49
ATOM     49  C   UNL     1       1.260   4.198  18.105  0.00  0.00    +0.003 C 
BRANCH  49  50
ATOM     50  C   UNL     1       0.989   5.044  16.840  0.00  0.00    -0.014 C 
ATOM     51  C   UNL     1       1.068   4.214  15.552  0.00  0.00    +0.007 C 
BRANCH  50  52
ATOM     52  C   UNL     1       1.976   6.232  16.795  0.00  0.00    +0.006 C 
BRANCH  52  53
ATOM     53  C   UNL     1       1.885   7.105  15.525  0.00  0.00    -0.014 C 
ATOM     54  C   UNL     1       0.515   6.925  14.862  0.00  0.00    +0.007 C 
BRANCH  53  56
ATOM     55  C   UNL     1       2.609   6.142  13.244  0.00  0.00    +0.004 C 
ATOM     56  C   UNL     1       3.028   6.856  14.521  0.00  0.00    -0.000 C 
ENDBRANCH  53  56
ENDBRANCH  52  53
ENDBRANCH  50  52
ENDBRANCH  49  50
ENDBRANCH  48  49
ENDBRANCH  47  48
ENDBRANCH  46  47
ENDBRANCH  45  46
ENDBRANCH  44  45
ENDBRANCH  43  44
ENDBRANCH  42  43
ENDBRANCH  38  42
ENDBRANCH   1  39
BRANCH  34  57
ATOM     57  O   UNL     1       5.651  -0.412  23.783  0.00  0.00    -0.389 OA
ATOM     58  H   UNL     1       4.833   0.120  23.656  0.00  0.00    +0.210 HD
ENDBRANCH  34  57
BRANCH  33  59
ATOM     59  N   UNL     1       8.661   1.110  25.180  0.00  0.00    -0.295 NA
ATOM     60  H   UNL     1       8.953   0.831  26.118  0.00  0.00    +0.124 HD
BRANCH  59  61
ATOM     61  C   UNL     1       9.664   2.054  24.757  0.00  0.00    +0.097 C 
BRANCH  61  62
ATOM     62  C   UNL     1       9.348   3.223  23.837  0.00  0.00    +0.093 C 
BRANCH  62  63
ATOM     63  N   UNL     1       9.527   2.909  22.421  0.00  0.00    -0.329 NA
ATOM     64  H   UNL     1      10.266   2.216  22.330  0.00  0.00    +0.118 HD
ATOM     65  H   UNL     1       8.670   2.495  22.058  0.00  0.00    +0.118 HD
ENDBRANCH  62  63
ENDBRANCH  61  62
ENDBRANCH  59  61
ENDBRANCH  33  59
BRANCH  27  66
ATOM     66  O   UNL     1      10.473  -4.651  26.719  0.00  0.00    -0.389 OA
ATOM     67  H   UNL     1      10.664  -3.708  26.860  0.00  0.00    +0.210 HD
ENDBRANCH  27  66
BRANCH  12  68
ATOM     68  O   UNL     1       0.898   3.194  29.292  0.00  0.00    -0.390 OA
ATOM     69  H   UNL     1       1.279   3.910  29.830  0.00  0.00    +0.210 HD
ENDBRANCH  12  68
BRANCH   6  70
ATOM     70  C   UNL     1       7.274   0.846  28.350  0.00  0.00    +0.141 C 
ATOM     71  C   UNL     1       7.715   0.965  29.801  0.00  0.00    +0.040 C 
BRANCH  70  72
ATOM     72  O   UNL     1       7.598  -0.500  27.915  0.00  0.00    -0.390 OA
ATOM     73  H   UNL     1       8.300  -0.833  28.515  0.00  0.00    +0.210 HD
ENDBRANCH  70  72
ENDBRANCH   6  70
BRANCH  22  74
ATOM     74  C   UNL     1       5.919  -2.910  23.038  0.00  0.00    +0.145 C 
BRANCH  74  75
ATOM     75  O   UNL     1       4.949  -2.571  22.023  0.00  0.00    -0.389 OA
ATOM     76  H   UNL     1       4.759  -3.371  21.513  0.00  0.00    +0.210 HD
ENDBRANCH  74  75
BRANCH  74  77
ATOM     77  C   UNL     1       6.668  -4.053  22.290  0.00  0.00    +0.048 C 
BRANCH  77  78
ATOM     78  C   UNL     1       5.711  -5.110  21.694  0.00  0.00    +0.080 C 
BRANCH  78  79
ATOM     79  N   UNL     1       5.858  -5.153  20.241  0.00  0.00    -0.330 NA
ATOM     80  H   UNL     1       5.484  -4.298  19.829  0.00  0.00    +0.118 HD
ATOM     81  H   UNL     1       6.842  -5.198  19.984  0.00  0.00    +0.118 HD
ENDBRANCH  78  79
ENDBRANCH  77  78
ENDBRANCH  74  77
ENDBRANCH  22  74
BRANCH  17  82
ATOM     82  C   UNL     1       4.287  -3.839  29.137  0.00  0.00    +0.176 C 
BRANCH  82  83
ATOM     83  O   UNL     1       5.016  -3.979  30.391  0.00  0.00    -0.387 OA
ATOM     84  H   UNL     1       5.851  -4.437  30.161  0.00  0.00    +0.210 HD
ENDBRANCH  82  83
BRANCH  82  85
ATOM     85  C   UNL     1       4.497  -5.146  28.294  0.00  0.00    +0.175 C 
BRANCH  85  86
ATOM     86  C   UNL     1       3.391  -6.168  28.452  0.00  0.00    -0.016 A 
ATOM     87  C   UNL     1       2.322  -6.266  27.550  0.00  0.00    +0.010 A 
ATOM     88  C   UNL     1       1.333  -7.232  27.731  0.00  0.00    +0.046 A 
ATOM     89  C   UNL     1       1.407  -8.097  28.815  0.00  0.00    +0.117 A 
ATOM     90  C   UNL     1       2.432  -7.990  29.748  0.00  0.00    +0.046 A 
ATOM     91  C   UNL     1       3.423  -7.027  29.566  0.00  0.00    +0.010 A 
BRANCH  89  92
ATOM     92  O   UNL     1       0.449  -9.060  28.930  0.00  0.00    -0.507 OA
ATOM     93  H   UNL     1       0.803  -9.770  29.489  0.00  0.00    +0.292 HD
ENDBRANCH  89  92
ENDBRANCH  85  86
BRANCH  85  94
ATOM     94  O   UNL     1       5.747  -5.740  28.664  0.00  0.00    -0.385 OA
ATOM     95  H   UNL     1       5.976  -6.358  27.941  0.00  0.00    +0.210 HD
ENDBRANCH  85  94
ENDBRANCH  82  85
ENDBRANCH  17  82
TORSDOF 33
ENDMDL
