MODEL 1
REMARK VINA RESULT:      -6.2      0.000      0.000
REMARK  Name = 
REMARK  1 active torsions:
REMARK  status: ('A' for Active; 'I' for Inactive)
REMARK    1  A    between atoms: C_8  and  C_9
REMARK                            x       y       z     vdW  Elec       q    Type
REMARK                         _______ _______ _______ _____ _____    ______ ____
ROOT
ATOM      1  N   UNL     1       7.935  -5.659  27.335  0.00  0.00    -0.279 NA
ATOM      2  H   UNL     1       7.174  -5.354  27.945  0.00  0.00    +0.189 HD
ATOM      3  C   UNL     1       8.274  -4.718  26.540  0.00  0.00    +0.158 C 
ATOM      4  S   UNL     1       9.517  -4.853  25.343  0.00  0.00    -0.049 S 
ATOM      5  C   UNL     1       9.219  -3.240  24.750  0.00  0.00    +0.079 C 
ATOM      6  C   UNL     1       9.962  -2.716  23.763  0.00  0.00    +0.048 C 
ATOM      7  C   UNL     1       8.056  -2.663  25.493  0.00  0.00    +0.256 C 
ATOM      8  O   UNL     1       7.400  -1.674  25.208  0.00  0.00    -0.269 OA
ATOM      9  N   UNL     1       7.695  -3.501  26.516  0.00  0.00    -0.261 N 
ATOM     10  H   UNL     1       6.897  -3.255  27.074  0.00  0.00    +0.157 HD
ENDROOT
BRANCH   6  11
ATOM     11  C   UNL     1       9.886  -1.368  23.197  0.00  0.00    +0.065 A 
ATOM     12  N   UNL     1      10.345  -0.351  23.952  0.00  0.00    -0.256 NA
ATOM     13  C   UNL     1      10.272   0.894  23.432  0.00  0.00    +0.111 A 
ATOM     14  C   UNL     1       9.808   1.170  22.157  0.00  0.00    +0.020 A 
ATOM     15  C   UNL     1       9.388   0.104  21.370  0.00  0.00    +0.004 A 
ATOM     16  C   UNL     1       9.428  -1.185  21.895  0.00  0.00    +0.028 A 
ENDBRANCH   6  11
TORSDOF 1
ENDMDL
MODEL 2
REMARK VINA RESULT:      -5.8      1.731      2.242
REMARK  Name = 
REMARK  1 active torsions:
REMARK  status: ('A' for Active; 'I' for Inactive)
REMARK    1  A    between atoms: C_8  and  C_9
REMARK                            x       y       z     vdW  Elec       q    Type
REMARK                         _______ _______ _______ _____ _____    ______ ____
ROOT
ATOM      1  N   UNL     1       8.281  -5.758  26.536  0.00  0.00    -0.279 NA
ATOM      2  H   UNL     1       8.821  -6.499  26.086  0.00  0.00    +0.189 HD
ATOM      3  C   UNL     1       8.466  -4.645  25.936  0.00  0.00    +0.158 C 
ATOM      4  S   UNL     1       7.736  -3.149  26.410  0.00  0.00    -0.049 S 
ATOM      5  C   UNL     1       8.574  -2.263  25.164  0.00  0.00    +0.079 C 
ATOM      6  C   UNL     1       8.369  -0.949  24.989  0.00  0.00    +0.048 C 
ATOM      7  C   UNL     1       9.492  -3.201  24.444  0.00  0.00    +0.256 C 
ATOM      8  O   UNL     1      10.407  -2.920  23.688  0.00  0.00    -0.269 OA
ATOM      9  N   UNL     1       9.269  -4.485  24.865  0.00  0.00    -0.261 N 
ATOM     10  H   UNL     1       9.848  -5.216  24.492  0.00  0.00    +0.157 HD
ENDROOT
BRANCH   6  11
ATOM     11  C   UNL     1       8.937  -0.077  23.960  0.00  0.00    +0.065 A 
ATOM     12  N   UNL     1       8.481  -0.224  22.701  0.00  0.00    -0.256 NA
ATOM     13  C   UNL     1       9.008   0.579  21.750  0.00  0.00    +0.111 A 
ATOM     14  C   UNL     1       9.940   1.569  22.008  0.00  0.00    +0.020 A 
ATOM     15  C   UNL     1      10.361   1.744  23.320  0.00  0.00    +0.004 A 
ATOM     16  C   UNL     1       9.853   0.911  24.313  0.00  0.00    +0.028 A 
ENDBRANCH   6  11
TORSDOF 1
ENDMDL
MODEL 3
REMARK VINA RESULT:      -5.6      2.077      2.621
REMARK  Name = 
REMARK  1 active torsions:
REMARK  status: ('A' for Active; 'I' for Inactive)
REMARK    1  A    between atoms: C_8  and  C_9
REMARK                            x       y       z     vdW  Elec       q    Type
REMARK                         _______ _______ _______ _____ _____    ______ ____
ROOT
ATOM      1  N   UNL     1       6.835  -6.337  28.342  0.00  0.00    -0.279 NA
ATOM      2  H   UNL     1       7.436  -7.163  28.346  0.00  0.00    +0.189 HD
ATOM      3  C   UNL     1       7.229  -5.504  27.457  0.00  0.00    +0.158 C 
ATOM      4  S   UNL     1       6.478  -3.974  27.154  0.00  0.00    -0.049 S 
ATOM      5  C   UNL     1       7.661  -3.552  25.944  0.00  0.00    +0.079 C 
ATOM      6  C   UNL     1       7.577  -2.399  25.264  0.00  0.00    +0.048 C 
ATOM      7  C   UNL     1       8.686  -4.640  25.877  0.00  0.00    +0.256 C 
ATOM      8  O   UNL     1       9.782  -4.604  25.341  0.00  0.00    -0.269 OA
ATOM      9  N   UNL     1       8.294  -5.698  26.653  0.00  0.00    -0.261 N 
ATOM     10  H   UNL     1       8.913  -6.486  26.732  0.00  0.00    +0.157 HD
ENDROOT
BRANCH   6  11
ATOM     11  C   UNL     1       8.441  -1.925  24.182  0.00  0.00    +0.065 A 
ATOM     12  N   UNL     1       8.101  -2.264  22.923  0.00  0.00    -0.256 NA
ATOM     13  C   UNL     1       8.901  -1.830  21.924  0.00  0.00    +0.111 A 
ATOM     14  C   UNL     1      10.006  -1.020  22.118  0.00  0.00    +0.020 A 
ATOM     15  C   UNL     1      10.313  -0.635  23.418  0.00  0.00    +0.004 A 
ATOM     16  C   UNL     1       9.520  -1.092  24.467  0.00  0.00    +0.028 A 
ENDBRANCH   6  11
TORSDOF 1
ENDMDL
MODEL 4
REMARK VINA RESULT:      -5.5      2.246      5.564
REMARK  Name = 
REMARK  1 active torsions:
REMARK  status: ('A' for Active; 'I' for Inactive)
REMARK    1  A    between atoms: C_8  and  C_9
REMARK                            x       y       z     vdW  Elec       q    Type
REMARK                         _______ _______ _______ _____ _____    ______ ____
ROOT
ATOM      1  N   UNL     1      10.171   2.248  21.622  0.00  0.00    -0.279 NA
ATOM      2  H   UNL     1      10.432   3.004  22.257  0.00  0.00    +0.189 HD
ATOM      3  C   UNL     1       9.858   1.199  22.283  0.00  0.00    +0.158 C 
ATOM      4  S   UNL     1       9.375  -0.298  21.562  0.00  0.00    -0.049 S 
ATOM      5  C   UNL     1       9.247  -1.085  23.114  0.00  0.00    +0.079 C 
ATOM      6  C   UNL     1       8.838  -2.358  23.214  0.00  0.00    +0.048 C 
ATOM      7  C   UNL     1       9.681  -0.124  24.175  0.00  0.00    +0.256 C 
ATOM      8  O   UNL     1       9.961  -0.368  25.338  0.00  0.00    -0.269 OA
ATOM      9  N   UNL     1       9.879   1.116  23.628  0.00  0.00    -0.261 N 
ATOM     10  H   UNL     1      10.215   1.852  24.224  0.00  0.00    +0.157 HD
ENDROOT
BRANCH   6  11
ATOM     11  C   UNL     1       8.616  -3.141  24.432  0.00  0.00    +0.065 A 
ATOM     12  N   UNL     1       7.452  -2.957  25.084  0.00  0.00    -0.256 NA
ATOM     13  C   UNL     1       7.249  -3.676  26.210  0.00  0.00    +0.111 A 
ATOM     14  C   UNL     1       8.138  -4.621  26.692  0.00  0.00    +0.020 A 
ATOM     15  C   UNL     1       9.310  -4.837  25.978  0.00  0.00    +0.004 A 
ATOM     16  C   UNL     1       9.555  -4.088  24.830  0.00  0.00    +0.028 A 
ENDBRANCH   6  11
TORSDOF 1
ENDMDL
MODEL 5
REMARK VINA RESULT:      -5.3      5.057      7.551
REMARK  Name = 
REMARK  1 active torsions:
REMARK  status: ('A' for Active; 'I' for Inactive)
REMARK    1  A    between atoms: C_8  and  C_9
REMARK                            x       y       z     vdW  Elec       q    Type
REMARK                         _______ _______ _______ _____ _____    ______ ____
ROOT
ATOM      1  N   UNL     1       6.839   7.067  21.422  0.00  0.00    -0.279 NA
ATOM      2  H   UNL     1       6.337   6.806  20.571  0.00  0.00    +0.189 HD
ATOM      3  C   UNL     1       7.327   6.029  21.987  0.00  0.00    +0.158 C 
ATOM      4  S   UNL     1       8.232   6.058  23.462  0.00  0.00    -0.049 S 
ATOM      5  C   UNL     1       8.385   4.321  23.484  0.00  0.00    +0.079 C 
ATOM      6  C   UNL     1       9.078   3.697  24.449  0.00  0.00    +0.048 C 
ATOM      7  C   UNL     1       7.621   3.757  22.327  0.00  0.00    +0.256 C 
ATOM      8  O   UNL     1       7.289   2.598  22.142  0.00  0.00    -0.269 OA
ATOM      9  N   UNL     1       7.186   4.774  21.518  0.00  0.00    -0.261 N 
ATOM     10  H   UNL     1       6.621   4.539  20.721  0.00  0.00    +0.157 HD
ENDROOT
BRANCH   6  11
ATOM     11  C   UNL     1       9.354   2.266  24.579  0.00  0.00    +0.065 A 
ATOM     12  N   UNL     1       8.411   1.503  25.165  0.00  0.00    -0.256 NA
ATOM     13  C   UNL     1       8.667   0.182  25.289  0.00  0.00    +0.111 A 
ATOM     14  C   UNL     1       9.809  -0.431  24.801  0.00  0.00    +0.020 A 
ATOM     15  C   UNL     1      10.747   0.361  24.151  0.00  0.00    +0.004 A 
ATOM     16  C   UNL     1      10.519   1.729  24.036  0.00  0.00    +0.028 A 
ENDBRANCH   6  11
TORSDOF 1
ENDMDL
MODEL 6
REMARK VINA RESULT:      -5.2      3.407      5.779
REMARK  Name = 
REMARK  1 active torsions:
REMARK  status: ('A' for Active; 'I' for Inactive)
REMARK    1  A    between atoms: C_8  and  C_9
REMARK                            x       y       z     vdW  Elec       q    Type
REMARK                         _______ _______ _______ _____ _____    ______ ____
ROOT
ATOM      1  N   UNL     1       9.951   2.677  22.490  0.00  0.00    -0.279 NA
ATOM      2  H   UNL     1      10.927   2.636  22.190  0.00  0.00    +0.189 HD
ATOM      3  C   UNL     1       9.448   1.503  22.534  0.00  0.00    +0.158 C 
ATOM      4  S   UNL     1       7.813   1.159  22.982  0.00  0.00    -0.049 S 
ATOM      5  C   UNL     1       8.015  -0.547  22.687  0.00  0.00    +0.079 C 
ATOM      6  C   UNL     1       7.017  -1.415  22.916  0.00  0.00    +0.048 C 
ATOM      7  C   UNL     1       9.393  -0.781  22.151  0.00  0.00    +0.256 C 
ATOM      8  O   UNL     1       9.824  -1.783  21.605  0.00  0.00    -0.269 OA
ATOM      9  N   UNL     1      10.121   0.378  22.218  0.00  0.00    -0.261 N 
ATOM     10  H   UNL     1      11.056   0.375  21.851  0.00  0.00    +0.157 HD
ENDROOT
BRANCH   6  11
ATOM     11  C   UNL     1       7.041  -2.872  22.782  0.00  0.00    +0.065 A 
ATOM     12  N   UNL     1       7.774  -3.565  23.676  0.00  0.00    -0.256 NA
ATOM     13  C   UNL     1       7.800  -4.910  23.551  0.00  0.00    +0.111 A 
ATOM     14  C   UNL     1       7.077  -5.609  22.600  0.00  0.00    +0.020 A 
ATOM     15  C   UNL     1       6.284  -4.884  21.720  0.00  0.00    +0.004 A 
ATOM     16  C   UNL     1       6.263  -3.495  21.811  0.00  0.00    +0.028 A 
ENDBRANCH   6  11
TORSDOF 1
ENDMDL
MODEL 7
REMARK VINA RESULT:      -5.2      2.997      3.228
REMARK  Name = 
REMARK  1 active torsions:
REMARK  status: ('A' for Active; 'I' for Inactive)
REMARK    1  A    between atoms: C_8  and  C_9
REMARK                            x       y       z     vdW  Elec       q    Type
REMARK                         _______ _______ _______ _____ _____    ______ ____
ROOT
ATOM      1  N   UNL     1       4.943  -5.993  22.017  0.00  0.00    -0.279 NA
ATOM      2  H   UNL     1       4.060  -5.560  21.737  0.00  0.00    +0.189 HD
ATOM      3  C   UNL     1       5.757  -5.105  22.444  0.00  0.00    +0.158 C 
ATOM      4  S   UNL     1       7.363  -5.441  22.995  0.00  0.00    -0.049 S 
ATOM      5  C   UNL     1       7.699  -3.752  23.268  0.00  0.00    +0.079 C 
ATOM      6  C   UNL     1       8.875  -3.351  23.775  0.00  0.00    +0.048 C 
ATOM      7  C   UNL     1       6.516  -2.950  22.824  0.00  0.00    +0.256 C 
ATOM      8  O   UNL     1       6.457  -1.747  22.628  0.00  0.00    -0.269 OA
ATOM      9  N   UNL     1       5.480  -3.788  22.504  0.00  0.00    -0.261 N 
ATOM     10  H   UNL     1       4.632  -3.382  22.148  0.00  0.00    +0.157 HD
ENDROOT
BRANCH   6  11
ATOM     11  C   UNL     1       9.290  -1.991  24.122  0.00  0.00    +0.065 A 
ATOM     12  N   UNL     1       8.940  -1.526  25.337  0.00  0.00    -0.256 NA
ATOM     13  C   UNL     1       9.321  -0.269  25.656  0.00  0.00    +0.111 A 
ATOM     14  C   UNL     1      10.089   0.535  24.832  0.00  0.00    +0.020 A 
ATOM     15  C   UNL     1      10.488   0.022  23.605  0.00  0.00    +0.004 A 
ATOM     16  C   UNL     1      10.085  -1.261  23.242  0.00  0.00    +0.028 A 
ENDBRANCH   6  11
TORSDOF 1
ENDMDL
MODEL 8
REMARK VINA RESULT:      -5.1      3.460      5.694
REMARK  Name = 
REMARK  1 active torsions:
REMARK  status: ('A' for Active; 'I' for Inactive)
REMARK    1  A    between atoms: C_8  and  C_9
REMARK                            x       y       z     vdW  Elec       q    Type
REMARK                         _______ _______ _______ _____ _____    ______ ____
ROOT
ATOM      1  N   UNL     1       6.616   3.519  21.866  0.00  0.00    -0.279 NA
ATOM      2  H   UNL     1       5.707   3.744  22.274  0.00  0.00    +0.189 HD
ATOM      3  C   UNL     1       6.950   2.319  22.156  0.00  0.00    +0.158 C 
ATOM      4  S   UNL     1       8.430   1.573  21.660  0.00  0.00    -0.049 S 
ATOM      5  C   UNL     1       8.062   0.104  22.523  0.00  0.00    +0.079 C 
ATOM      6  C   UNL     1       8.888  -0.953  22.480  0.00  0.00    +0.048 C 
ATOM      7  C   UNL     1       6.774   0.292  23.262  0.00  0.00    +0.256 C 
ATOM      8  O   UNL     1       6.313  -0.401  24.154  0.00  0.00    -0.269 OA
ATOM      9  N   UNL     1       6.200   1.483  22.900  0.00  0.00    -0.261 N 
ATOM     10  H   UNL     1       5.346   1.757  23.353  0.00  0.00    +0.157 HD
ENDROOT
BRANCH   6  11
ATOM     11  C   UNL     1       8.699  -2.270  23.090  0.00  0.00    +0.065 A 
ATOM     12  N   UNL     1       7.795  -3.092  22.521  0.00  0.00    -0.256 NA
ATOM     13  C   UNL     1       7.618  -4.307  23.085  0.00  0.00    +0.111 A 
ATOM     14  C   UNL     1       8.346  -4.768  24.169  0.00  0.00    +0.020 A 
ATOM     15  C   UNL     1       9.312  -3.928  24.710  0.00  0.00    +0.004 A 
ATOM     16  C   UNL     1       9.494  -2.661  24.164  0.00  0.00    +0.028 A 
ENDBRANCH   6  11
TORSDOF 1
ENDMDL
MODEL 9
REMARK VINA RESULT:      -5.1      3.256      5.077
REMARK  Name = 
REMARK  1 active torsions:
REMARK  status: ('A' for Active; 'I' for Inactive)
REMARK    1  A    between atoms: C_8  and  C_9
REMARK                            x       y       z     vdW  Elec       q    Type
REMARK                         _______ _______ _______ _____ _____    ______ ____
ROOT
ATOM      1  N   UNL     1      10.786   0.602  25.104  0.00  0.00    -0.279 NA
ATOM      2  H   UNL     1      10.731   0.677  26.121  0.00  0.00    +0.189 HD
ATOM      3  C   UNL     1       9.962  -0.277  24.677  0.00  0.00    +0.158 C 
ATOM      4  S   UNL     1       9.770  -0.706  23.012  0.00  0.00    -0.049 S 
ATOM      5  C   UNL     1       8.593  -1.936  23.390  0.00  0.00    +0.079 C 
ATOM      6  C   UNL     1       7.997  -2.648  22.422  0.00  0.00    +0.048 C 
ATOM      7  C   UNL     1       8.447  -2.019  24.877  0.00  0.00    +0.256 C 
ATOM      8  O   UNL     1       7.915  -2.901  25.530  0.00  0.00    -0.269 OA
ATOM      9  N   UNL     1       9.146  -1.000  25.471  0.00  0.00    -0.261 N 
ATOM     10  H   UNL     1       9.169  -0.959  26.474  0.00  0.00    +0.157 HD
ENDROOT
BRANCH   6  11
ATOM     11  C   UNL     1       6.951  -3.663  22.563  0.00  0.00    +0.065 A 
ATOM     12  N   UNL     1       5.705  -3.234  22.844  0.00  0.00    -0.256 NA
ATOM     13  C   UNL     1       4.740  -4.171  22.977  0.00  0.00    +0.111 A 
ATOM     14  C   UNL     1       4.950  -5.526  22.788  0.00  0.00    +0.020 A 
ATOM     15  C   UNL     1       6.229  -5.947  22.446  0.00  0.00    +0.004 A 
ATOM     16  C   UNL     1       7.246  -5.003  22.330  0.00  0.00    +0.028 A 
ENDBRANCH   6  11
TORSDOF 1
ENDMDL
