MODEL 1
REMARK VINA RESULT:      -8.0      0.000      0.000
REMARK  Name = 
REMARK  17 active torsions:
REMARK  status: ('A' for Active; 'I' for Inactive)
REMARK    1  A    between atoms: C_1  and  C_2
REMARK    2  A    between atoms: C_2  and  C_4
REMARK    3  A    between atoms: N_6  and  C_10
REMARK    4  A    between atoms: C_13  and  C_15
REMARK    5  A    between atoms: C_15  and  O_16
REMARK    6  A    between atoms: O_16  and  P_17
REMARK    7  A    between atoms: P_17  and  O_20
REMARK    8  A    between atoms: O_20  and  P_21
REMARK    9  A    between atoms: P_21  and  O_22
REMARK   10  A    between atoms: P_21  and  O_24
REMARK   11  A    between atoms: O_24  and  C_25
REMARK   12  A    between atoms: C_25  and  C_26
REMARK   13  A    between atoms: C_29  and  N_37
REMARK   14  A    between atoms: C_31  and  O_33
REMARK   15  A    between atoms: C_34  and  O_36
REMARK   16  A    between atoms: C_47  and  O_49
REMARK   17  A    between atoms: C_50  and  O_52
REMARK                            x       y       z     vdW  Elec       q    Type
REMARK                         _______ _______ _______ _____ _____    ______ ____
ROOT
ATOM      1  P   UNL     1       3.791  -4.947  23.336  0.00  0.00    +0.480 P 
ATOM      2  O   UNL     1       2.350  -5.178  22.996  0.00  0.00    -0.227 OA
ENDROOT
BRANCH   1   3
ATOM      3  O   UNL     1       3.863  -4.020  24.645  0.00  0.00    -0.302 OA
ATOM      4  H   UNL     1       3.748  -3.076  24.417  0.00  0.00    +0.222 HD
ENDBRANCH   1   3
BRANCH   1   5
ATOM      5  O   UNL     1       4.513  -6.305  23.820  0.00  0.00    -0.284 OA
BRANCH   5   6
ATOM      6  C   UNL     1       4.136  -6.781  25.120  0.00  0.00    +0.206 C 
BRANCH   6   7
ATOM      7  C   UNL     1       5.331  -6.657  26.069  0.00  0.00    +0.178 C 
ATOM      8  C   UNL     1       4.977  -6.437  27.546  0.00  0.00    +0.178 C 
ATOM      9  C   UNL     1       6.043  -5.456  28.055  0.00  0.00    +0.195 C 
ATOM     10  C   UNL     1       6.880  -5.152  26.816  0.00  0.00    +0.253 C 
ATOM     11  O   UNL     1       6.084  -5.490  25.682  0.00  0.00    -0.346 OA
BRANCH  10  12
ATOM     12  N   UNL     1       7.311  -3.779  26.727  0.00  0.00    -0.286 N 
ATOM     13  C   UNL     1       6.502  -2.695  26.929  0.00  0.00    +0.167 A 
ATOM     14  N   UNL     1       5.195  -2.685  27.239  0.00  0.00    -0.216 NA
ATOM     15  C   UNL     1       4.773  -1.413  27.450  0.00  0.00    +0.225 A 
ATOM     16  N   UNL     1       5.469  -0.263  27.325  0.00  0.00    -0.219 NA
ATOM     17  C   UNL     1       6.765  -0.332  26.949  0.00  0.00    +0.147 A 
ATOM     18  N   UNL     1       7.464   0.855  26.788  0.00  0.00    -0.341 N 
ATOM     19  H   UNL     1       8.471   0.744  26.844  0.00  0.00    +0.144 HD
ATOM     20  H   UNL     1       7.048   1.619  27.302  0.00  0.00    +0.144 HD
ATOM     21  C   UNL     1       7.340  -1.596  26.760  0.00  0.00    +0.147 A 
ATOM     22  N   UNL     1       8.615  -2.007  26.435  0.00  0.00    -0.231 NA
ATOM     23  C   UNL     1       8.567  -3.322  26.433  0.00  0.00    +0.203 A 
ENDBRANCH  10  12
BRANCH   9  24
ATOM     24  O   UNL     1       6.833  -6.039  29.106  0.00  0.00    -0.385 OA
ATOM     25  H   UNL     1       6.457  -6.929  29.277  0.00  0.00    +0.210 HD
ENDBRANCH   9  24
BRANCH   8  26
ATOM     26  O   UNL     1       4.999  -7.654  28.290  0.00  0.00    -0.386 OA
ATOM     27  H   UNL     1       5.931  -7.956  28.279  0.00  0.00    +0.210 HD
ENDBRANCH   8  26
ENDBRANCH   6   7
ENDBRANCH   5   6
ENDBRANCH   1   5
BRANCH   1  28
ATOM     28  O   UNL     1       4.745  -4.172  22.247  0.00  0.00    -0.229 OA
BRANCH  28  29
ATOM     29  P   UNL     1       6.002  -5.352  22.104  0.00  0.00    +0.222 P 
ATOM     30  O   UNL     1       7.258  -6.532  21.962  0.00  0.00    -0.437 OA
ATOM     31  O   UNL     1       5.921  -5.092  20.588  0.00  0.00    -0.517 OA
BRANCH  29  32
ATOM     32  O   UNL     1       7.047  -4.161  22.682  0.00  0.00    -0.324 OA
BRANCH  32  33
ATOM     33  C   UNL     1       6.975  -2.844  22.156  0.00  0.00    +0.202 C 
BRANCH  33  37
ATOM     34  C   UNL     1       8.235   0.313  23.525  0.00  0.00    +0.439 C 
ATOM     35  C   UNL     1       9.463  -0.182  22.771  0.00  0.00    +0.244 C 
ATOM     36  C   UNL     1       9.184  -1.680  22.623  0.00  0.00    +0.183 C 
ATOM     37  C   UNL     1       7.717  -1.851  23.059  0.00  0.00    +0.182 C 
ATOM     38  O   UNL     1       7.164  -0.515  23.056  0.00  0.00    -0.309 OA
BRANCH  34  43
ATOM     39  C   UNL     1       8.492   4.053  23.691  0.00  0.00    +0.081 A 
ATOM     40  C   UNL     1       7.694   4.429  22.612  0.00  0.00    +0.023 A 
ATOM     41  C   UNL     1       7.024   3.455  21.881  0.00  0.00    +0.071 A 
ATOM     42  C   UNL     1       7.183   2.116  22.227  0.00  0.00    +0.311 A 
ATOM     43  N   UNL     1       7.980   1.754  23.266  0.00  0.00    -0.173 N 
ATOM     44  C   UNL     1       8.621   2.701  23.996  0.00  0.00    +0.323 A 
BRANCH  39  46
ATOM     45  C   UNL     1      10.303   5.882  23.874  0.00  0.00    +0.092 C 
ATOM     46  C   UNL     1       9.178   5.095  24.496  0.00  0.00    +0.166 C 
ATOM     47  O   UNL     1       8.819   5.269  25.658  0.00  0.00    -0.292 OA
ENDBRANCH  39  46
ENDBRANCH  34  43
BRANCH  36  48
ATOM     48  O   UNL     1      10.091  -2.405  23.454  0.00  0.00    -0.386 OA
ATOM     49  H   UNL     1      10.609  -2.995  22.866  0.00  0.00    +0.210 HD
ENDBRANCH  36  48
BRANCH  35  50
ATOM     50  O   UNL     1      10.677   0.099  23.469  0.00  0.00    -0.380 OA
ATOM     51  H   UNL     1      11.356   0.232  22.766  0.00  0.00    +0.210 HD
ENDBRANCH  35  50
ENDBRANCH  33  37
ENDBRANCH  32  33
ENDBRANCH  29  32
ENDBRANCH  28  29
ENDBRANCH   1  28
TORSDOF 16
ENDMDL
MODEL 2
REMARK VINA RESULT:      -7.8      2.977      9.041
REMARK  Name = 
REMARK  17 active torsions:
REMARK  status: ('A' for Active; 'I' for Inactive)
REMARK    1  A    between atoms: C_1  and  C_2
REMARK    2  A    between atoms: C_2  and  C_4
REMARK    3  A    between atoms: N_6  and  C_10
REMARK    4  A    between atoms: C_13  and  C_15
REMARK    5  A    between atoms: C_15  and  O_16
REMARK    6  A    between atoms: O_16  and  P_17
REMARK    7  A    between atoms: P_17  and  O_20
REMARK    8  A    between atoms: O_20  and  P_21
REMARK    9  A    between atoms: P_21  and  O_22
REMARK   10  A    between atoms: P_21  and  O_24
REMARK   11  A    between atoms: O_24  and  C_25
REMARK   12  A    between atoms: C_25  and  C_26
REMARK   13  A    between atoms: C_29  and  N_37
REMARK   14  A    between atoms: C_31  and  O_33
REMARK   15  A    between atoms: C_34  and  O_36
REMARK   16  A    between atoms: C_47  and  O_49
REMARK   17  A    between atoms: C_50  and  O_52
REMARK                            x       y       z     vdW  Elec       q    Type
REMARK                         _______ _______ _______ _____ _____    ______ ____
ROOT
ATOM      1  P   UNL     1       6.791   2.514  27.644  0.00  0.00    +0.480 P 
ATOM      2  O   UNL     1       6.933   2.291  29.120  0.00  0.00    -0.227 OA
ENDROOT
BRANCH   1   3
ATOM      3  O   UNL     1       5.228   2.626  27.294  0.00  0.00    -0.302 OA
ATOM      4  H   UNL     1       4.963   3.556  27.153  0.00  0.00    +0.222 HD
ENDBRANCH   1   3
BRANCH   1   5
ATOM      5  O   UNL     1       7.361   3.955  27.203  0.00  0.00    -0.284 OA
BRANCH   5   6
ATOM      6  C   UNL     1       6.497   4.736  26.364  0.00  0.00    +0.206 C 
BRANCH   6   7
ATOM      7  C   UNL     1       7.222   5.062  25.056  0.00  0.00    +0.178 C 
ATOM      8  C   UNL     1       6.314   5.434  23.877  0.00  0.00    +0.178 C 
ATOM      9  C   UNL     1       6.989   4.792  22.656  0.00  0.00    +0.195 C 
ATOM     10  C   UNL     1       8.191   4.061  23.245  0.00  0.00    +0.253 C 
ATOM     11  O   UNL     1       7.926   3.877  24.634  0.00  0.00    -0.346 OA
BRANCH  10  12
ATOM     12  N   UNL     1       8.463   2.790  22.621  0.00  0.00    -0.286 N 
ATOM     13  C   UNL     1       9.385   1.884  23.068  0.00  0.00    +0.167 A 
ATOM     14  N   UNL     1      10.192   1.987  24.137  0.00  0.00    -0.216 NA
ATOM     15  C   UNL     1      10.896   0.839  24.304  0.00  0.00    +0.225 A 
ATOM     16  N   UNL     1      10.902  -0.265  23.529  0.00  0.00    -0.219 NA
ATOM     17  C   UNL     1      10.115  -0.287  22.431  0.00  0.00    +0.147 A 
ATOM     18  N   UNL     1      10.153  -1.410  21.619  0.00  0.00    -0.341 N 
ATOM     19  H   UNL     1       9.330  -1.517  21.034  0.00  0.00    +0.144 HD
ATOM     20  H   UNL     1      10.488  -2.228  22.110  0.00  0.00    +0.144 HD
ATOM     21  C   UNL     1       9.289   0.817  22.179  0.00  0.00    +0.147 A 
ATOM     22  N   UNL     1       8.354   1.086  21.203  0.00  0.00    -0.231 NA
ATOM     23  C   UNL     1       7.869   2.273  21.501  0.00  0.00    +0.203 A 
ENDBRANCH  10  12
BRANCH   9  24
ATOM     24  O   UNL     1       7.384   5.785  21.693  0.00  0.00    -0.385 OA
ATOM     25  H   UNL     1       8.149   6.261  22.081  0.00  0.00    +0.210 HD
ENDBRANCH   9  24
BRANCH   8  26
ATOM     26  O   UNL     1       6.193   6.845  23.716  0.00  0.00    -0.386 OA
ATOM     27  H   UNL     1       7.005   7.131  23.248  0.00  0.00    +0.210 HD
ENDBRANCH   8  26
ENDBRANCH   6   7
ENDBRANCH   5   6
ENDBRANCH   1   5
BRANCH   1  28
ATOM     28  O   UNL     1       7.347   1.361  26.616  0.00  0.00    -0.229 OA
BRANCH  28  29
ATOM     29  P   UNL     1       5.837   0.636  26.184  0.00  0.00    +0.222 P 
ATOM     30  O   UNL     1       4.327  -0.089  25.753  0.00  0.00    -0.437 OA
ATOM     31  O   UNL     1       6.045   1.288  24.804  0.00  0.00    -0.517 OA
BRANCH  29  32
ATOM     32  O   UNL     1       6.678  -0.823  26.094  0.00  0.00    -0.324 OA
BRANCH  32  33
ATOM     33  C   UNL     1       7.808  -0.934  25.241  0.00  0.00    +0.202 C 
BRANCH  33  37
ATOM     34  C   UNL     1       7.046  -4.418  24.400  0.00  0.00    +0.439 C 
ATOM     35  C   UNL     1       8.413  -4.574  25.054  0.00  0.00    +0.244 C 
ATOM     36  C   UNL     1       8.995  -3.161  24.957  0.00  0.00    +0.183 C 
ATOM     37  C   UNL     1       7.813  -2.281  24.508  0.00  0.00    +0.182 C 
ATOM     38  O   UNL     1       6.634  -3.087  24.734  0.00  0.00    -0.309 OA
BRANCH  34  43
ATOM     39  C   UNL     1       5.028  -6.572  26.716  0.00  0.00    +0.081 A 
ATOM     40  C   UNL     1       4.122  -7.152  25.830  0.00  0.00    +0.023 A 
ATOM     41  C   UNL     1       4.225  -6.884  24.469  0.00  0.00    +0.071 A 
ATOM     42  C   UNL     1       5.219  -6.018  24.020  0.00  0.00    +0.311 A 
ATOM     43  N   UNL     1       6.085  -5.439  24.893  0.00  0.00    -0.173 N 
ATOM     44  C   UNL     1       6.002  -5.712  26.219  0.00  0.00    +0.323 A 
BRANCH  39  46
ATOM     45  C   UNL     1       3.795  -6.337  28.971  0.00  0.00    +0.092 C 
ATOM     46  C   UNL     1       4.942  -6.888  28.165  0.00  0.00    +0.166 C 
ATOM     47  O   UNL     1       5.827  -7.575  28.668  0.00  0.00    -0.292 OA
ENDBRANCH  39  46
ENDBRANCH  34  43
BRANCH  36  48
ATOM     48  O   UNL     1      10.065  -3.165  24.011  0.00  0.00    -0.386 OA
ATOM     49  H   UNL     1      10.491  -4.048  24.065  0.00  0.00    +0.210 HD
ENDBRANCH  36  48
BRANCH  35  50
ATOM     50  O   UNL     1       9.216  -5.560  24.403  0.00  0.00    -0.380 OA
ATOM     51  H   UNL     1       8.659  -5.900  23.662  0.00  0.00    +0.210 HD
ENDBRANCH  35  50
ENDBRANCH  33  37
ENDBRANCH  32  33
ENDBRANCH  29  32
ENDBRANCH  28  29
ENDBRANCH   1  28
TORSDOF 16
ENDMDL
MODEL 3
REMARK VINA RESULT:      -7.7      2.416      3.558
REMARK  Name = 
REMARK  17 active torsions:
REMARK  status: ('A' for Active; 'I' for Inactive)
REMARK    1  A    between atoms: C_1  and  C_2
REMARK    2  A    between atoms: C_2  and  C_4
REMARK    3  A    between atoms: N_6  and  C_10
REMARK    4  A    between atoms: C_13  and  C_15
REMARK    5  A    between atoms: C_15  and  O_16
REMARK    6  A    between atoms: O_16  and  P_17
REMARK    7  A    between atoms: P_17  and  O_20
REMARK    8  A    between atoms: O_20  and  P_21
REMARK    9  A    between atoms: P_21  and  O_22
REMARK   10  A    between atoms: P_21  and  O_24
REMARK   11  A    between atoms: O_24  and  C_25
REMARK   12  A    between atoms: C_25  and  C_26
REMARK   13  A    between atoms: C_29  and  N_37
REMARK   14  A    between atoms: C_31  and  O_33
REMARK   15  A    between atoms: C_34  and  O_36
REMARK   16  A    between atoms: C_47  and  O_49
REMARK   17  A    between atoms: C_50  and  O_52
REMARK                            x       y       z     vdW  Elec       q    Type
REMARK                         _______ _______ _______ _____ _____    ______ ____
ROOT
ATOM      1  P   UNL     1       6.351  -4.113  22.437  0.00  0.00    +0.480 P 
ATOM      2  O   UNL     1       5.808  -3.430  21.219  0.00  0.00    -0.227 OA
ENDROOT
BRANCH   1   3
ATOM      3  O   UNL     1       5.633  -3.493  23.731  0.00  0.00    -0.302 OA
ATOM      4  H   UNL     1       6.203  -3.567  24.523  0.00  0.00    +0.222 HD
ENDBRANCH   1   3
BRANCH   1   5
ATOM      5  O   UNL     1       5.914  -5.664  22.493  0.00  0.00    -0.284 OA
BRANCH   5   6
ATOM      6  C   UNL     1       4.507  -5.909  22.634  0.00  0.00    +0.206 C 
BRANCH   6   7
ATOM      7  C   UNL     1       4.272  -6.832  23.833  0.00  0.00    +0.178 C 
ATOM      8  C   UNL     1       2.802  -7.128  24.156  0.00  0.00    +0.178 C 
ATOM      9  C   UNL     1       2.743  -7.155  25.690  0.00  0.00    +0.195 C 
ATOM     10  C   UNL     1       4.168  -6.815  26.116  0.00  0.00    +0.253 C 
ATOM     11  O   UNL     1       4.792  -6.174  25.006  0.00  0.00    -0.346 OA
BRANCH  10  12
ATOM     12  N   UNL     1       4.242  -5.970  27.281  0.00  0.00    -0.286 N 
ATOM     13  C   UNL     1       4.042  -4.617  27.276  0.00  0.00    +0.167 A 
ATOM     14  N   UNL     1       3.749  -3.829  26.228  0.00  0.00    -0.216 NA
ATOM     15  C   UNL     1       3.534  -2.556  26.644  0.00  0.00    +0.225 A 
ATOM     16  N   UNL     1       3.641  -2.048  27.890  0.00  0.00    -0.219 NA
ATOM     17  C   UNL     1       4.001  -2.876  28.895  0.00  0.00    +0.147 A 
ATOM     18  N   UNL     1       4.145  -2.341  30.166  0.00  0.00    -0.341 N 
ATOM     19  H   UNL     1       4.076  -3.030  30.907  0.00  0.00    +0.144 HD
ATOM     20  H   UNL     1       3.630  -1.478  30.279  0.00  0.00    +0.144 HD
ATOM     21  C   UNL     1       4.192  -4.234  28.606  0.00  0.00    +0.147 A 
ATOM     22  N   UNL     1       4.504  -5.325  29.389  0.00  0.00    -0.231 NA
ATOM     23  C   UNL     1       4.516  -6.353  28.567  0.00  0.00    +0.203 A 
ENDBRANCH  10  12
BRANCH   9  24
ATOM     24  O   UNL     1       2.332  -8.445  26.176  0.00  0.00    -0.385 OA
ATOM     25  H   UNL     1       2.087  -8.975  25.389  0.00  0.00    +0.210 HD
ENDBRANCH   9  24
BRANCH   8  26
ATOM     26  O   UNL     1       2.371  -8.369  23.602  0.00  0.00    -0.386 OA
ATOM     27  H   UNL     1       1.882  -8.141  22.784  0.00  0.00    +0.210 HD
ENDBRANCH   8  26
ENDBRANCH   6   7
ENDBRANCH   5   6
ENDBRANCH   1   5
BRANCH   1  28
ATOM     28  O   UNL     1       7.954  -3.979  22.768  0.00  0.00    -0.229 OA
BRANCH  28  29
ATOM     29  P   UNL     1       7.878  -4.062  24.494  0.00  0.00    +0.222 P 
ATOM     30  O   UNL     1       7.802  -4.145  26.220  0.00  0.00    -0.437 OA
ATOM     31  O   UNL     1       9.297  -4.659  24.417  0.00  0.00    -0.517 OA
BRANCH  29  32
ATOM     32  O   UNL     1       8.121  -2.394  24.484  0.00  0.00    -0.324 OA
BRANCH  32  33
ATOM     33  C   UNL     1       9.383  -1.862  24.857  0.00  0.00    +0.202 C 
BRANCH  33  37
ATOM     34  C   UNL     1      10.189   1.257  23.109  0.00  0.00    +0.439 C 
ATOM     35  C   UNL     1       8.953   0.809  22.340  0.00  0.00    +0.244 C 
ATOM     36  C   UNL     1       8.880  -0.686  22.663  0.00  0.00    +0.183 C 
ATOM     37  C   UNL     1       9.909  -0.894  23.790  0.00  0.00    +0.182 C 
ATOM     38  O   UNL     1      10.205   0.433  24.281  0.00  0.00    -0.309 OA
BRANCH  34  43
ATOM     39  C   UNL     1      11.206   4.833  23.615  0.00  0.00    +0.081 A 
ATOM     40  C   UNL     1       9.970   5.442  23.823  0.00  0.00    +0.023 A 
ATOM     41  C   UNL     1       8.819   4.662  23.864  0.00  0.00    +0.071 A 
ATOM     42  C   UNL     1       8.922   3.287  23.671  0.00  0.00    +0.311 A 
ATOM     43  N   UNL     1      10.129   2.703  23.445  0.00  0.00    -0.173 N 
ATOM     44  C   UNL     1      11.257   3.455  23.424  0.00  0.00    +0.323 A 
BRANCH  39  46
ATOM     45  C   UNL     1      13.331   5.640  22.394  0.00  0.00    +0.092 C 
ATOM     46  C   UNL     1      12.440   5.660  23.609  0.00  0.00    +0.166 C 
ATOM     47  O   UNL     1      12.708   6.320  24.609  0.00  0.00    -0.292 OA
ENDBRANCH  39  46
ENDBRANCH  34  43
BRANCH  36  48
ATOM     48  O   UNL     1       9.199  -1.430  21.486  0.00  0.00    -0.386 OA
ATOM     49  H   UNL     1       9.643  -0.810  20.868  0.00  0.00    +0.210 HD
ENDBRANCH  36  48
BRANCH  35  50
ATOM     50  O   UNL     1       9.058   1.079  20.941  0.00  0.00    -0.380 OA
ATOM     51  H   UNL     1       9.975   1.419  20.811  0.00  0.00    +0.210 HD
ENDBRANCH  35  50
ENDBRANCH  33  37
ENDBRANCH  32  33
ENDBRANCH  29  32
ENDBRANCH  28  29
ENDBRANCH   1  28
TORSDOF 16
ENDMDL
MODEL 4
REMARK VINA RESULT:      -7.5      2.315      6.426
REMARK  Name = 
REMARK  17 active torsions:
REMARK  status: ('A' for Active; 'I' for Inactive)
REMARK    1  A    between atoms: C_1  and  C_2
REMARK    2  A    between atoms: C_2  and  C_4
REMARK    3  A    between atoms: N_6  and  C_10
REMARK    4  A    between atoms: C_13  and  C_15
REMARK    5  A    between atoms: C_15  and  O_16
REMARK    6  A    between atoms: O_16  and  P_17
REMARK    7  A    between atoms: P_17  and  O_20
REMARK    8  A    between atoms: O_20  and  P_21
REMARK    9  A    between atoms: P_21  and  O_22
REMARK   10  A    between atoms: P_21  and  O_24
REMARK   11  A    between atoms: O_24  and  C_25
REMARK   12  A    between atoms: C_25  and  C_26
REMARK   13  A    between atoms: C_29  and  N_37
REMARK   14  A    between atoms: C_31  and  O_33
REMARK   15  A    between atoms: C_34  and  O_36
REMARK   16  A    between atoms: C_47  and  O_49
REMARK   17  A    between atoms: C_50  and  O_52
REMARK                            x       y       z     vdW  Elec       q    Type
REMARK                         _______ _______ _______ _____ _____    ______ ____
ROOT
ATOM      1  P   UNL     1       5.071  -6.034  23.386  0.00  0.00    +0.480 P 
ATOM      2  O   UNL     1       4.079  -5.140  22.707  0.00  0.00    -0.227 OA
ENDROOT
BRANCH   1   3
ATOM      3  O   UNL     1       5.996  -6.713  22.264  0.00  0.00    -0.302 OA
ATOM      4  H   UNL     1       6.938  -6.703  22.527  0.00  0.00    +0.222 HD
ENDBRANCH   1   3
BRANCH   1   5
ATOM      5  O   UNL     1       6.131  -5.190  24.261  0.00  0.00    -0.284 OA
BRANCH   5   6
ATOM      6  C   UNL     1       7.486  -5.212  23.788  0.00  0.00    +0.206 C 
BRANCH   6   7
ATOM      7  C   UNL     1       8.279  -4.099  24.478  0.00  0.00    +0.178 C 
ATOM      8  C   UNL     1       7.699  -3.608  25.811  0.00  0.00    +0.178 C 
ATOM      9  C   UNL     1       7.948  -2.093  25.803  0.00  0.00    +0.195 C 
ATOM     10  C   UNL     1       8.594  -1.836  24.445  0.00  0.00    +0.253 C 
ATOM     11  O   UNL     1       8.268  -2.947  23.612  0.00  0.00    -0.346 OA
BRANCH  10  12
ATOM     12  N   UNL     1       8.170  -0.608  23.821  0.00  0.00    -0.286 N 
ATOM     13  C   UNL     1       8.915   0.538  23.773  0.00  0.00    +0.167 A 
ATOM     14  N   UNL     1      10.144   0.747  24.275  0.00  0.00    -0.216 NA
ATOM     15  C   UNL     1      10.582   1.986  23.939  0.00  0.00    +0.225 A 
ATOM     16  N   UNL     1       9.930   2.956  23.265  0.00  0.00    -0.219 NA
ATOM     17  C   UNL     1       8.672   2.711  22.838  0.00  0.00    +0.147 A 
ATOM     18  N   UNL     1       7.994   3.724  22.178  0.00  0.00    -0.341 N 
ATOM     19  H   UNL     1       7.229   3.392  21.601  0.00  0.00    +0.144 HD
ATOM     20  H   UNL     1       8.622   4.407  21.775  0.00  0.00    +0.144 HD
ATOM     21  C   UNL     1       8.124   1.441  23.068  0.00  0.00    +0.147 A 
ATOM     22  N   UNL     1       6.920   0.864  22.727  0.00  0.00    -0.231 NA
ATOM     23  C   UNL     1       6.983  -0.369  23.184  0.00  0.00    +0.203 A 
ENDBRANCH  10  12
BRANCH   9  24
ATOM     24  O   UNL     1       8.805  -1.697  26.888  0.00  0.00    -0.385 OA
ATOM     25  H   UNL     1       9.715  -1.659  26.526  0.00  0.00    +0.210 HD
ENDBRANCH   9  24
BRANCH   8  26
ATOM     26  O   UNL     1       8.329  -4.228  26.930  0.00  0.00    -0.386 OA
ATOM     27  H   UNL     1       8.087  -3.683  27.707  0.00  0.00    +0.210 HD
ENDBRANCH   8  26
ENDBRANCH   6   7
ENDBRANCH   5   6
ENDBRANCH   1   5
BRANCH   1  28
ATOM     28  O   UNL     1       4.516  -7.304  24.267  0.00  0.00    -0.229 OA
BRANCH  28  29
ATOM     29  P   UNL     1       2.820  -7.091  24.003  0.00  0.00    +0.222 P 
ATOM     30  O   UNL     1       1.124  -6.879  23.740  0.00  0.00    -0.437 OA
ATOM     31  O   UNL     1       2.687  -8.579  24.381  0.00  0.00    -0.517 OA
BRANCH  29  32
ATOM     32  O   UNL     1       2.795  -6.277  25.479  0.00  0.00    -0.324 OA
BRANCH  32  33
ATOM     33  C   UNL     1       2.463  -6.980  26.667  0.00  0.00    +0.202 C 
BRANCH  33  37
ATOM     34  C   UNL     1       4.108  -4.604  28.921  0.00  0.00    +0.439 C 
ATOM     35  C   UNL     1       5.314  -5.210  28.214  0.00  0.00    +0.244 C 
ATOM     36  C   UNL     1       4.754  -6.524  27.663  0.00  0.00    +0.183 C 
ATOM     37  C   UNL     1       3.232  -6.420  27.871  0.00  0.00    +0.182 C 
ATOM     38  O   UNL     1       2.983  -5.021  28.139  0.00  0.00    -0.309 OA
BRANCH  34  43
ATOM     39  C   UNL     1       4.578  -1.014  27.938  0.00  0.00    +0.081 A 
ATOM     40  C   UNL     1       4.156  -0.357  29.092  0.00  0.00    +0.023 A 
ATOM     41  C   UNL     1       3.786  -1.099  30.208  0.00  0.00    +0.071 A 
ATOM     42  C   UNL     1       3.820  -2.490  30.142  0.00  0.00    +0.311 A 
ATOM     43  N   UNL     1       4.211  -3.124  29.005  0.00  0.00    -0.173 N 
ATOM     44  C   UNL     1       4.592  -2.405  27.919  0.00  0.00    +0.323 A 
BRANCH  39  46
ATOM     45  C   UNL     1       5.953   0.937  26.957  0.00  0.00    +0.092 C 
ATOM     46  C   UNL     1       5.009  -0.221  26.758  0.00  0.00    +0.166 C 
ATOM     47  O   UNL     1       4.564  -0.523  25.655  0.00  0.00    -0.292 OA
ENDBRANCH  39  46
ENDBRANCH  34  43
BRANCH  36  48
ATOM     48  O   UNL     1       5.332  -7.612  28.385  0.00  0.00    -0.386 OA
ATOM     49  H   UNL     1       5.424  -8.358  27.754  0.00  0.00    +0.210 HD
ENDBRANCH  36  48
BRANCH  35  50
ATOM     50  O   UNL     1       6.423  -5.395  29.096  0.00  0.00    -0.380 OA
ATOM     51  H   UNL     1       6.587  -4.508  29.496  0.00  0.00    +0.210 HD
ENDBRANCH  35  50
ENDBRANCH  33  37
ENDBRANCH  32  33
ENDBRANCH  29  32
ENDBRANCH  28  29
ENDBRANCH   1  28
TORSDOF 16
ENDMDL
MODEL 5
REMARK VINA RESULT:      -7.5      3.061      8.949
REMARK  Name = 
REMARK  17 active torsions:
REMARK  status: ('A' for Active; 'I' for Inactive)
REMARK    1  A    between atoms: C_1  and  C_2
REMARK    2  A    between atoms: C_2  and  C_4
REMARK    3  A    between atoms: N_6  and  C_10
REMARK    4  A    between atoms: C_13  and  C_15
REMARK    5  A    between atoms: C_15  and  O_16
REMARK    6  A    between atoms: O_16  and  P_17
REMARK    7  A    between atoms: P_17  and  O_20
REMARK    8  A    between atoms: O_20  and  P_21
REMARK    9  A    between atoms: P_21  and  O_22
REMARK   10  A    between atoms: P_21  and  O_24
REMARK   11  A    between atoms: O_24  and  C_25
REMARK   12  A    between atoms: C_25  and  C_26
REMARK   13  A    between atoms: C_29  and  N_37
REMARK   14  A    between atoms: C_31  and  O_33
REMARK   15  A    between atoms: C_34  and  O_36
REMARK   16  A    between atoms: C_47  and  O_49
REMARK   17  A    between atoms: C_50  and  O_52
REMARK                            x       y       z     vdW  Elec       q    Type
REMARK                         _______ _______ _______ _____ _____    ______ ____
ROOT
ATOM      1  P   UNL     1       7.910   0.238  26.045  0.00  0.00    +0.480 P 
ATOM      2  O   UNL     1       8.116  -0.519  27.323  0.00  0.00    -0.227 OA
ENDROOT
BRANCH   1   3
ATOM      3  O   UNL     1       6.826  -0.546  25.158  0.00  0.00    -0.302 OA
ATOM      4  H   UNL     1       6.861  -0.262  24.224  0.00  0.00    +0.222 HD
ENDBRANCH   1   3
BRANCH   1   5
ATOM      5  O   UNL     1       7.198   1.660  26.306  0.00  0.00    -0.284 OA
BRANCH   5   6
ATOM      6  C   UNL     1       5.839   1.767  25.858  0.00  0.00    +0.206 C 
BRANCH   6   7
ATOM      7  C   UNL     1       5.697   3.001  24.963  0.00  0.00    +0.178 C 
ATOM      8  C   UNL     1       5.828   2.739  23.457  0.00  0.00    +0.178 C 
ATOM      9  C   UNL     1       6.591   3.959  22.920  0.00  0.00    +0.195 C 
ATOM     10  C   UNL     1       6.882   4.786  24.168  0.00  0.00    +0.253 C 
ATOM     11  O   UNL     1       6.771   3.906  25.285  0.00  0.00    -0.346 OA
BRANCH  10  12
ATOM     12  N   UNL     1       8.180   5.415  24.160  0.00  0.00    -0.286 N 
ATOM     13  C   UNL     1       9.358   4.767  23.911  0.00  0.00    +0.167 A 
ATOM     14  N   UNL     1       9.542   3.465  23.635  0.00  0.00    -0.216 NA
ATOM     15  C   UNL     1      10.848   3.226  23.355  0.00  0.00    +0.225 A 
ATOM     16  N   UNL     1      11.888   4.086  23.389  0.00  0.00    -0.219 NA
ATOM     17  C   UNL     1      11.651   5.370  23.735  0.00  0.00    +0.147 A 
ATOM     18  N   UNL     1      12.728   6.240  23.804  0.00  0.00    -0.341 N 
ATOM     19  H   UNL     1      12.467   7.218  23.729  0.00  0.00    +0.144 HD
ATOM     20  H   UNL     1      13.514   5.922  23.253  0.00  0.00    +0.144 HD
ATOM     21  C   UNL     1      10.329   5.761  23.989  0.00  0.00    +0.147 A 
ATOM     22  N   UNL     1       9.754   6.973  24.307  0.00  0.00    -0.231 NA
ATOM     23  C   UNL     1       8.462   6.734  24.393  0.00  0.00    +0.203 A 
ENDBRANCH  10  12
BRANCH   9  24
ATOM     24  O   UNL     1       5.802   4.691  21.964  0.00  0.00    -0.385 OA
ATOM     25  H   UNL     1       6.358   5.438  21.658  0.00  0.00    +0.210 HD
ENDBRANCH   9  24
BRANCH   8  26
ATOM     26  O   UNL     1       4.557   2.605  22.824  0.00  0.00    -0.386 OA
ATOM     27  H   UNL     1       4.566   1.726  22.392  0.00  0.00    +0.210 HD
ENDBRANCH   8  26
ENDBRANCH   6   7
ENDBRANCH   5   6
ENDBRANCH   1   5
BRANCH   1  28
ATOM     28  O   UNL     1       9.186   0.436  25.031  0.00  0.00    -0.229 OA
BRANCH  28  29
ATOM     29  P   UNL     1       8.653  -0.571  23.730  0.00  0.00    +0.222 P 
ATOM     30  O   UNL     1       8.119  -1.579  22.429  0.00  0.00    -0.437 OA
ATOM     31  O   UNL     1       9.935  -0.122  23.003  0.00  0.00    -0.517 OA
BRANCH  29  32
ATOM     32  O   UNL     1       9.139  -1.879  24.676  0.00  0.00    -0.324 OA
BRANCH  32  33
ATOM     33  C   UNL     1       9.612  -3.064  24.053  0.00  0.00    +0.202 C 
BRANCH  33  37
ATOM     34  C   UNL     1       7.007  -5.325  25.291  0.00  0.00    +0.439 C 
ATOM     35  C   UNL     1       7.573  -4.796  26.602  0.00  0.00    +0.244 C 
ATOM     36  C   UNL     1       8.951  -4.274  26.186  0.00  0.00    +0.183 C 
ATOM     37  C   UNL     1       8.933  -4.306  24.647  0.00  0.00    +0.182 C 
ATOM     38  O   UNL     1       7.541  -4.453  24.288  0.00  0.00    -0.309 OA
BRANCH  34  43
ATOM     39  C   UNL     1       3.449  -6.434  24.848  0.00  0.00    +0.081 A 
ATOM     40  C   UNL     1       2.764  -5.435  25.538  0.00  0.00    +0.023 A 
ATOM     41  C   UNL     1       3.471  -4.369  26.084  0.00  0.00    +0.071 A 
ATOM     42  C   UNL     1       4.857  -4.333  25.952  0.00  0.00    +0.311 A 
ATOM     43  N   UNL     1       5.521  -5.322  25.298  0.00  0.00    -0.173 N 
ATOM     44  C   UNL     1       4.835  -6.354  24.746  0.00  0.00    +0.323 A 
BRANCH  39  46
ATOM     45  C   UNL     1       1.778  -7.268  23.068  0.00  0.00    +0.092 C 
ATOM     46  C   UNL     1       2.692  -7.552  24.232  0.00  0.00    +0.166 C 
ATOM     47  O   UNL     1       2.818  -8.677  24.707  0.00  0.00    -0.292 OA
ENDBRANCH  39  46
ENDBRANCH  34  43
BRANCH  36  48
ATOM     48  O   UNL     1       9.955  -5.125  26.740  0.00  0.00    -0.386 OA
ATOM     49  H   UNL     1      10.016  -4.911  27.696  0.00  0.00    +0.210 HD
ENDBRANCH  36  48
BRANCH  35  50
ATOM     50  O   UNL     1       7.634  -5.804  27.612  0.00  0.00    -0.380 OA
ATOM     51  H   UNL     1       7.573  -6.661  27.127  0.00  0.00    +0.210 HD
ENDBRANCH  35  50
ENDBRANCH  33  37
ENDBRANCH  32  33
ENDBRANCH  29  32
ENDBRANCH  28  29
ENDBRANCH   1  28
TORSDOF 16
ENDMDL
MODEL 6
REMARK VINA RESULT:      -7.4      2.772      7.633
REMARK  Name = 
REMARK  17 active torsions:
REMARK  status: ('A' for Active; 'I' for Inactive)
REMARK    1  A    between atoms: C_1  and  C_2
REMARK    2  A    between atoms: C_2  and  C_4
REMARK    3  A    between atoms: N_6  and  C_10
REMARK    4  A    between atoms: C_13  and  C_15
REMARK    5  A    between atoms: C_15  and  O_16
REMARK    6  A    between atoms: O_16  and  P_17
REMARK    7  A    between atoms: P_17  and  O_20
REMARK    8  A    between atoms: O_20  and  P_21
REMARK    9  A    between atoms: P_21  and  O_22
REMARK   10  A    between atoms: P_21  and  O_24
REMARK   11  A    between atoms: O_24  and  C_25
REMARK   12  A    between atoms: C_25  and  C_26
REMARK   13  A    between atoms: C_29  and  N_37
REMARK   14  A    between atoms: C_31  and  O_33
REMARK   15  A    between atoms: C_34  and  O_36
REMARK   16  A    between atoms: C_47  and  O_49
REMARK   17  A    between atoms: C_50  and  O_52
REMARK                            x       y       z     vdW  Elec       q    Type
REMARK                         _______ _______ _______ _____ _____    ______ ____
ROOT
ATOM      1  P   UNL     1       4.993  -1.714  25.944  0.00  0.00    +0.480 P 
ATOM      2  O   UNL     1       6.302  -2.378  26.244  0.00  0.00    -0.227 OA
ENDROOT
BRANCH   1   3
ATOM      3  O   UNL     1       4.275  -1.353  27.334  0.00  0.00    -0.302 OA
ATOM      4  H   UNL     1       4.817  -1.635  28.097  0.00  0.00    +0.222 HD
ENDBRANCH   1   3
BRANCH   1   5
ATOM      5  O   UNL     1       5.202  -0.268  25.263  0.00  0.00    -0.284 OA
BRANCH   5   6
ATOM      6  C   UNL     1       6.017   0.655  25.999  0.00  0.00    +0.206 C 
BRANCH   6   7
ATOM      7  C   UNL     1       6.106   1.975  25.229  0.00  0.00    +0.178 C 
ATOM      8  C   UNL     1       5.730   1.896  23.744  0.00  0.00    +0.178 C 
ATOM      9  C   UNL     1       6.716   2.846  23.048  0.00  0.00    +0.195 C 
ATOM     10  C   UNL     1       7.607   3.343  24.182  0.00  0.00    +0.253 C 
ATOM     11  O   UNL     1       7.481   2.408  25.251  0.00  0.00    -0.346 OA
BRANCH  10  12
ATOM     12  N   UNL     1       8.993   3.489  23.812  0.00  0.00    -0.286 N 
ATOM     13  C   UNL     1       9.746   4.607  24.043  0.00  0.00    +0.167 A 
ATOM     14  N   UNL     1       9.367   5.751  24.636  0.00  0.00    -0.216 NA
ATOM     15  C   UNL     1      10.428   6.587  24.762  0.00  0.00    +0.225 A 
ATOM     16  N   UNL     1      11.694   6.412  24.329  0.00  0.00    -0.219 NA
ATOM     17  C   UNL     1      12.002   5.266  23.683  0.00  0.00    +0.147 A 
ATOM     18  N   UNL     1      13.295   5.108  23.209  0.00  0.00    -0.341 N 
ATOM     19  H   UNL     1      13.555   4.140  23.051  0.00  0.00    +0.144 HD
ATOM     20  H   UNL     1      13.958   5.697  23.696  0.00  0.00    +0.144 HD
ATOM     21  C   UNL     1      11.006   4.290  23.542  0.00  0.00    +0.147 A 
ATOM     22  N   UNL     1      11.004   3.025  22.996  0.00  0.00    -0.231 NA
ATOM     23  C   UNL     1       9.784   2.566  23.183  0.00  0.00    +0.203 A 
ENDBRANCH  10  12
BRANCH   9  24
ATOM     24  O   UNL     1       6.028   3.927  22.394  0.00  0.00    -0.385 OA
ATOM     25  H   UNL     1       5.091   3.874  22.677  0.00  0.00    +0.210 HD
ENDBRANCH   9  24
BRANCH   8  26
ATOM     26  O   UNL     1       4.380   2.291  23.510  0.00  0.00    -0.386 OA
ATOM     27  H   UNL     1       3.867   1.459  23.445  0.00  0.00    +0.210 HD
ENDBRANCH   8  26
ENDBRANCH   6   7
ENDBRANCH   5   6
ENDBRANCH   1   5
BRANCH   1  28
ATOM     28  O   UNL     1       3.853  -2.556  25.115  0.00  0.00    -0.229 OA
BRANCH  28  29
ATOM     29  P   UNL     1       2.860  -3.044  26.445  0.00  0.00    +0.222 P 
ATOM     30  O   UNL     1       1.867  -3.531  27.774  0.00  0.00    -0.437 OA
ATOM     31  O   UNL     1       1.869  -1.970  25.955  0.00  0.00    -0.517 OA
BRANCH  29  32
ATOM     32  O   UNL     1       2.485  -4.411  25.533  0.00  0.00    -0.324 OA
BRANCH  32  33
ATOM     33  C   UNL     1       3.065  -5.663  25.866  0.00  0.00    +0.202 C 
BRANCH  33  37
ATOM     34  C   UNL     1       6.170  -5.537  23.924  0.00  0.00    +0.439 C 
ATOM     35  C   UNL     1       5.167  -5.035  22.893  0.00  0.00    +0.244 C 
ATOM     36  C   UNL     1       3.834  -5.542  23.449  0.00  0.00    +0.183 C 
ATOM     37  C   UNL     1       4.165  -6.044  24.866  0.00  0.00    +0.182 C 
ATOM     38  O   UNL     1       5.464  -5.487  25.170  0.00  0.00    -0.309 OA
BRANCH  34  43
ATOM     39  C   UNL     1       8.521  -2.665  23.370  0.00  0.00    +0.081 A 
ATOM     40  C   UNL     1       9.587  -3.022  24.194  0.00  0.00    +0.023 A 
ATOM     41  C   UNL     1       9.555  -4.236  24.872  0.00  0.00    +0.071 A 
ATOM     42  C   UNL     1       8.442  -5.062  24.733  0.00  0.00    +0.311 A 
ATOM     43  N   UNL     1       7.397  -4.698  23.945  0.00  0.00    -0.173 N 
ATOM     44  C   UNL     1       7.431  -3.524  23.266  0.00  0.00    +0.323 A 
BRANCH  39  46
ATOM     45  C   UNL     1       9.822  -1.033  21.852  0.00  0.00    +0.092 C 
ATOM     46  C   UNL     1       8.572  -1.387  22.616  0.00  0.00    +0.166 C 
ATOM     47  O   UNL     1       7.596  -0.644  22.656  0.00  0.00    -0.292 OA
ENDBRANCH  39  46
ENDBRANCH  34  43
BRANCH  36  48
ATOM     48  O   UNL     1       3.344  -6.582  22.601  0.00  0.00    -0.386 OA
ATOM     49  H   UNL     1       4.042  -7.270  22.560  0.00  0.00    +0.210 HD
ENDBRANCH  36  48
BRANCH  35  50
ATOM     50  O   UNL     1       5.452  -5.521  21.580  0.00  0.00    -0.380 OA
ATOM     51  H   UNL     1       4.977  -4.909  20.969  0.00  0.00    +0.210 HD
ENDBRANCH  35  50
ENDBRANCH  33  37
ENDBRANCH  32  33
ENDBRANCH  29  32
ENDBRANCH  28  29
ENDBRANCH   1  28
TORSDOF 16
ENDMDL
MODEL 7
REMARK VINA RESULT:      -7.4      2.618      7.219
REMARK  Name = 
REMARK  17 active torsions:
REMARK  status: ('A' for Active; 'I' for Inactive)
REMARK    1  A    between atoms: C_1  and  C_2
REMARK    2  A    between atoms: C_2  and  C_4
REMARK    3  A    between atoms: N_6  and  C_10
REMARK    4  A    between atoms: C_13  and  C_15
REMARK    5  A    between atoms: C_15  and  O_16
REMARK    6  A    between atoms: O_16  and  P_17
REMARK    7  A    between atoms: P_17  and  O_20
REMARK    8  A    between atoms: O_20  and  P_21
REMARK    9  A    between atoms: P_21  and  O_22
REMARK   10  A    between atoms: P_21  and  O_24
REMARK   11  A    between atoms: O_24  and  C_25
REMARK   12  A    between atoms: C_25  and  C_26
REMARK   13  A    between atoms: C_29  and  N_37
REMARK   14  A    between atoms: C_31  and  O_33
REMARK   15  A    between atoms: C_34  and  O_36
REMARK   16  A    between atoms: C_47  and  O_49
REMARK   17  A    between atoms: C_50  and  O_52
REMARK                            x       y       z     vdW  Elec       q    Type
REMARK                         _______ _______ _______ _____ _____    ______ ____
ROOT
ATOM      1  P   UNL     1       4.521  -2.844  27.141  0.00  0.00    +0.480 P 
ATOM      2  O   UNL     1       3.844  -3.149  25.839  0.00  0.00    -0.227 OA
ENDROOT
BRANCH   1   3
ATOM      3  O   UNL     1       5.929  -3.614  27.176  0.00  0.00    -0.302 OA
ATOM      4  H   UNL     1       5.973  -4.304  26.485  0.00  0.00    +0.222 HD
ENDBRANCH   1   3
BRANCH   1   5
ATOM      5  O   UNL     1       4.957  -1.295  27.236  0.00  0.00    -0.284 OA
BRANCH   5   6
ATOM      6  C   UNL     1       4.921  -0.562  26.003  0.00  0.00    +0.206 C 
BRANCH   6   7
ATOM      7  C   UNL     1       6.346  -0.406  25.467  0.00  0.00    +0.178 C 
ATOM      8  C   UNL     1       7.457  -0.475  26.524  0.00  0.00    +0.178 C 
ATOM      9  C   UNL     1       8.488   0.567  26.065  0.00  0.00    +0.195 C 
ATOM     10  C   UNL     1       7.856   1.183  24.821  0.00  0.00    +0.253 C 
ATOM     11  O   UNL     1       6.458   0.907  24.884  0.00  0.00    -0.346 OA
BRANCH  10  12
ATOM     12  N   UNL     1       8.076   2.602  24.698  0.00  0.00    -0.286 N 
ATOM     13  C   UNL     1       9.239   3.175  24.265  0.00  0.00    +0.167 A 
ATOM     14  N   UNL     1      10.370   2.560  23.879  0.00  0.00    -0.216 NA
ATOM     15  C   UNL     1      11.268   3.471  23.427  0.00  0.00    +0.225 A 
ATOM     16  N   UNL     1      11.160   4.816  23.394  0.00  0.00    -0.219 NA
ATOM     17  C   UNL     1      10.022   5.382  23.853  0.00  0.00    +0.147 A 
ATOM     18  N   UNL     1       9.932   6.766  23.850  0.00  0.00    -0.341 N 
ATOM     19  H   UNL     1       8.978   7.111  23.874  0.00  0.00    +0.144 HD
ATOM     20  H   UNL     1      10.566   7.190  23.187  0.00  0.00    +0.144 HD
ATOM     21  C   UNL     1       8.988   4.544  24.291  0.00  0.00    +0.147 A 
ATOM     22  N   UNL     1       7.715   4.792  24.759  0.00  0.00    -0.231 NA
ATOM     23  C   UNL     1       7.190   3.606  24.985  0.00  0.00    +0.203 A 
ENDBRANCH  10  12
BRANCH   9  24
ATOM     24  O   UNL     1       9.757  -0.045  25.775  0.00  0.00    -0.385 OA
ATOM     25  H   UNL     1      10.396   0.687  25.642  0.00  0.00    +0.210 HD
ENDBRANCH   9  24
BRANCH   8  26
ATOM     26  O   UNL     1       8.038  -1.774  26.607  0.00  0.00    -0.386 OA
ATOM     27  H   UNL     1       7.576  -2.226  27.343  0.00  0.00    +0.210 HD
ENDBRANCH   8  26
ENDBRANCH   6   7
ENDBRANCH   5   6
ENDBRANCH   1   5
BRANCH   1  28
ATOM     28  O   UNL     1       3.785  -3.298  28.538  0.00  0.00    -0.229 OA
BRANCH  28  29
ATOM     29  P   UNL     1       4.929  -4.480  29.071  0.00  0.00    +0.222 P 
ATOM     30  O   UNL     1       6.073  -5.663  29.605  0.00  0.00    -0.437 OA
ATOM     31  O   UNL     1       4.176  -4.440  30.415  0.00  0.00    -0.517 OA
BRANCH  29  32
ATOM     32  O   UNL     1       4.067  -5.589  28.138  0.00  0.00    -0.324 OA
BRANCH  32  33
ATOM     33  C   UNL     1       4.628  -6.863  27.858  0.00  0.00    +0.202 C 
BRANCH  33  37
ATOM     34  C   UNL     1       5.527  -6.003  24.411  0.00  0.00    +0.439 C 
ATOM     35  C   UNL     1       4.016  -6.154  24.284  0.00  0.00    +0.244 C 
ATOM     36  C   UNL     1       3.658  -6.991  25.514  0.00  0.00    +0.183 C 
ATOM     37  C   UNL     1       4.942  -7.009  26.364  0.00  0.00    +0.182 C 
ATOM     38  O   UNL     1       5.768  -5.953  25.822  0.00  0.00    -0.309 OA
BRANCH  34  43
ATOM     39  C   UNL     1       7.798  -3.277  23.191  0.00  0.00    +0.081 A 
ATOM     40  C   UNL     1       6.994  -2.658  22.236  0.00  0.00    +0.023 A 
ATOM     41  C   UNL     1       5.688  -3.098  22.049  0.00  0.00    +0.071 A 
ATOM     42  C   UNL     1       5.216  -4.169  22.805  0.00  0.00    +0.311 A 
ATOM     43  N   UNL     1       6.014  -4.782  23.719  0.00  0.00    -0.173 N 
ATOM     44  C   UNL     1       7.282  -4.345  23.920  0.00  0.00    +0.323 A 
BRANCH  39  46
ATOM     45  C   UNL     1       9.644  -1.542  22.701  0.00  0.00    +0.092 C 
ATOM     46  C   UNL     1       9.180  -2.783  23.418  0.00  0.00    +0.166 C 
ATOM     47  O   UNL     1       9.913  -3.419  24.171  0.00  0.00    -0.292 OA
ENDBRANCH  39  46
ENDBRANCH  34  43
BRANCH  36  48
ATOM     48  O   UNL     1       3.265  -8.296  25.088  0.00  0.00    -0.386 OA
ATOM     49  H   UNL     1       3.990  -8.644  24.526  0.00  0.00    +0.210 HD
ENDBRANCH  36  48
BRANCH  35  50
ATOM     50  O   UNL     1       3.635  -6.770  23.052  0.00  0.00    -0.380 OA
ATOM     51  H   UNL     1       3.675  -7.741  23.225  0.00  0.00    +0.210 HD
ENDBRANCH  35  50
ENDBRANCH  33  37
ENDBRANCH  32  33
ENDBRANCH  29  32
ENDBRANCH  28  29
ENDBRANCH   1  28
TORSDOF 16
ENDMDL
MODEL 8
REMARK VINA RESULT:      -7.4      3.456      5.167
REMARK  Name = 
REMARK  17 active torsions:
REMARK  status: ('A' for Active; 'I' for Inactive)
REMARK    1  A    between atoms: C_1  and  C_2
REMARK    2  A    between atoms: C_2  and  C_4
REMARK    3  A    between atoms: N_6  and  C_10
REMARK    4  A    between atoms: C_13  and  C_15
REMARK    5  A    between atoms: C_15  and  O_16
REMARK    6  A    between atoms: O_16  and  P_17
REMARK    7  A    between atoms: P_17  and  O_20
REMARK    8  A    between atoms: O_20  and  P_21
REMARK    9  A    between atoms: P_21  and  O_22
REMARK   10  A    between atoms: P_21  and  O_24
REMARK   11  A    between atoms: O_24  and  C_25
REMARK   12  A    between atoms: C_25  and  C_26
REMARK   13  A    between atoms: C_29  and  N_37
REMARK   14  A    between atoms: C_31  and  O_33
REMARK   15  A    between atoms: C_34  and  O_36
REMARK   16  A    between atoms: C_47  and  O_49
REMARK   17  A    between atoms: C_50  and  O_52
REMARK                            x       y       z     vdW  Elec       q    Type
REMARK                         _______ _______ _______ _____ _____    ______ ____
ROOT
ATOM      1  P   UNL     1       6.517  -4.888  26.446  0.00  0.00    +0.480 P 
ATOM      2  O   UNL     1       7.696  -4.891  27.371  0.00  0.00    -0.227 OA
ENDROOT
BRANCH   1   3
ATOM      3  O   UNL     1       5.935  -6.381  26.357  0.00  0.00    -0.302 OA
ATOM      4  H   UNL     1       6.123  -6.884  27.174  0.00  0.00    +0.222 HD
ENDBRANCH   1   3
BRANCH   1   5
ATOM      5  O   UNL     1       5.280  -4.057  27.062  0.00  0.00    -0.284 OA
BRANCH   5   6
ATOM      6  C   UNL     1       4.843  -4.467  28.366  0.00  0.00    +0.206 C 
BRANCH   6   7
ATOM      7  C   UNL     1       3.418  -5.019  28.270  0.00  0.00    +0.178 C 
ATOM      8  C   UNL     1       3.162  -6.314  29.051  0.00  0.00    +0.178 C 
ATOM      9  C   UNL     1       2.218  -7.125  28.150  0.00  0.00    +0.195 C 
ATOM     10  C   UNL     1       2.060  -6.253  26.909  0.00  0.00    +0.253 C 
ATOM     11  O   UNL     1       3.164  -5.350  26.891  0.00  0.00    -0.346 OA
BRANCH  10  12
ATOM     12  N   UNL     1       2.011  -6.999  25.676  0.00  0.00    -0.286 N 
ATOM     13  C   UNL     1       1.427  -6.557  24.521  0.00  0.00    +0.167 A 
ATOM     14  N   UNL     1       0.805  -5.385  24.306  0.00  0.00    -0.216 NA
ATOM     15  C   UNL     1       0.443  -5.280  23.003  0.00  0.00    +0.225 A 
ATOM     16  N   UNL     1       0.582  -6.188  22.014  0.00  0.00    -0.219 NA
ATOM     17  C   UNL     1       1.159  -7.374  22.305  0.00  0.00    +0.147 A 
ATOM     18  N   UNL     1       1.266  -8.317  21.293  0.00  0.00    -0.341 N 
ATOM     19  H   UNL     1       1.982  -9.015  21.463  0.00  0.00    +0.144 HD
ATOM     20  H   UNL     1       1.228  -7.898  20.374  0.00  0.00    +0.144 HD
ATOM     21  C   UNL     1       1.635  -7.585  23.606  0.00  0.00    +0.147 A 
ATOM     22  N   UNL     1       2.301  -8.634  24.203  0.00  0.00    -0.231 NA
ATOM     23  C   UNL     1       2.521  -8.248  25.442  0.00  0.00    +0.203 A 
ENDBRANCH  10  12
BRANCH   9  24
ATOM     24  O   UNL     1       0.957  -7.368  28.798  0.00  0.00    -0.385 OA
ATOM     25  H   UNL     1       0.308  -7.552  28.086  0.00  0.00    +0.210 HD
ENDBRANCH   9  24
BRANCH   8  26
ATOM     26  O   UNL     1       2.572  -6.065  30.325  0.00  0.00    -0.386 OA
ATOM     27  H   UNL     1       2.895  -6.780  30.912  0.00  0.00    +0.210 HD
ENDBRANCH   8  26
ENDBRANCH   6   7
ENDBRANCH   5   6
ENDBRANCH   1   5
BRANCH   1  28
ATOM     28  O   UNL     1       6.746  -4.456  24.878  0.00  0.00    -0.229 OA
BRANCH  28  29
ATOM     29  P   UNL     1       8.475  -4.505  24.837  0.00  0.00    +0.222 P 
ATOM     30  O   UNL     1      10.203  -4.554  24.796  0.00  0.00    -0.437 OA
ATOM     31  O   UNL     1       8.310  -5.344  23.555  0.00  0.00    -0.517 OA
BRANCH  29  32
ATOM     32  O   UNL     1       8.407  -2.906  24.307  0.00  0.00    -0.324 OA
BRANCH  32  33
ATOM     33  C   UNL     1       9.247  -1.929  24.902  0.00  0.00    +0.202 C 
BRANCH  33  37
ATOM     34  C   UNL     1      10.106   1.171  23.146  0.00  0.00    +0.439 C 
ATOM     35  C   UNL     1       8.909   0.701  22.329  0.00  0.00    +0.244 C 
ATOM     36  C   UNL     1       8.834  -0.789  22.671  0.00  0.00    +0.183 C 
ATOM     37  C   UNL     1       9.813  -0.972  23.845  0.00  0.00    +0.182 C 
ATOM     38  O   UNL     1      10.076   0.364  24.330  0.00  0.00    -0.309 OA
BRANCH  34  43
ATOM     39  C   UNL     1      11.076   4.758  23.663  0.00  0.00    +0.081 A 
ATOM     40  C   UNL     1       9.827   5.364  23.787  0.00  0.00    +0.023 A 
ATOM     41  C   UNL     1       8.679   4.580  23.769  0.00  0.00    +0.071 A 
ATOM     42  C   UNL     1       8.799   3.202  23.601  0.00  0.00    +0.311 A 
ATOM     43  N   UNL     1      10.019   2.621  23.458  0.00  0.00    -0.173 N 
ATOM     44  C   UNL     1      11.144   3.378  23.495  0.00  0.00    +0.323 A 
BRANCH  39  46
ATOM     45  C   UNL     1      12.415   6.665  24.772  0.00  0.00    +0.092 C 
ATOM     46  C   UNL     1      12.305   5.591  23.721  0.00  0.00    +0.166 C 
ATOM     47  O   UNL     1      13.188   5.391  22.892  0.00  0.00    -0.292 OA
ENDBRANCH  39  46
ENDBRANCH  34  43
BRANCH  36  48
ATOM     48  O   UNL     1       9.210  -1.547  21.520  0.00  0.00    -0.386 OA
ATOM     49  H   UNL     1       9.989  -1.099  21.125  0.00  0.00    +0.210 HD
ENDBRANCH  36  48
BRANCH  35  50
ATOM     50  O   UNL     1       9.075   0.952  20.932  0.00  0.00    -0.380 OA
ATOM     51  H   UNL     1      10.045   0.881  20.769  0.00  0.00    +0.210 HD
ENDBRANCH  35  50
ENDBRANCH  33  37
ENDBRANCH  32  33
ENDBRANCH  29  32
ENDBRANCH  28  29
ENDBRANCH   1  28
TORSDOF 16
ENDMDL
MODEL 9
REMARK VINA RESULT:      -7.3      3.201      7.021
REMARK  Name = 
REMARK  17 active torsions:
REMARK  status: ('A' for Active; 'I' for Inactive)
REMARK    1  A    between atoms: C_1  and  C_2
REMARK    2  A    between atoms: C_2  and  C_4
REMARK    3  A    between atoms: N_6  and  C_10
REMARK    4  A    between atoms: C_13  and  C_15
REMARK    5  A    between atoms: C_15  and  O_16
REMARK    6  A    between atoms: O_16  and  P_17
REMARK    7  A    between atoms: P_17  and  O_20
REMARK    8  A    between atoms: O_20  and  P_21
REMARK    9  A    between atoms: P_21  and  O_22
REMARK   10  A    between atoms: P_21  and  O_24
REMARK   11  A    between atoms: O_24  and  C_25
REMARK   12  A    between atoms: C_25  and  C_26
REMARK   13  A    between atoms: C_29  and  N_37
REMARK   14  A    between atoms: C_31  and  O_33
REMARK   15  A    between atoms: C_34  and  O_36
REMARK   16  A    between atoms: C_47  and  O_49
REMARK   17  A    between atoms: C_50  and  O_52
REMARK                            x       y       z     vdW  Elec       q    Type
REMARK                         _______ _______ _______ _____ _____    ______ ____
ROOT
ATOM      1  P   UNL     1       9.058  -1.098  22.456  0.00  0.00    +0.480 P 
ATOM      2  O   UNL     1       9.941  -1.149  23.666  0.00  0.00    -0.227 OA
ENDROOT
BRANCH   1   3
ATOM      3  O   UNL     1       9.987  -0.982  21.152  0.00  0.00    -0.302 OA
ATOM      4  H   UNL     1      10.649  -0.269  21.252  0.00  0.00    +0.222 HD
ENDBRANCH   1   3
BRANCH   1   5
ATOM      5  O   UNL     1       8.288  -2.496  22.223  0.00  0.00    -0.284 OA
BRANCH   5   6
ATOM      6  C   UNL     1       7.118  -2.703  23.027  0.00  0.00    +0.206 C 
BRANCH   6   7
ATOM      7  C   UNL     1       7.538  -3.212  24.409  0.00  0.00    +0.178 C 
ATOM      8  C   UNL     1       8.474  -4.428  24.404  0.00  0.00    +0.178 C 
ATOM      9  C   UNL     1       8.003  -5.279  25.593  0.00  0.00    +0.195 C 
ATOM     10  C   UNL     1       6.806  -4.510  26.141  0.00  0.00    +0.253 C 
ATOM     11  O   UNL     1       6.351  -3.650  25.098  0.00  0.00    -0.346 OA
BRANCH  10  12
ATOM     12  N   UNL     1       5.728  -5.355  26.592  0.00  0.00    -0.286 N 
ATOM     13  C   UNL     1       5.547  -5.762  27.885  0.00  0.00    +0.167 A 
ATOM     14  N   UNL     1       6.304  -5.471  28.956  0.00  0.00    -0.216 NA
ATOM     15  C   UNL     1       5.742  -5.985  30.079  0.00  0.00    +0.225 A 
ATOM     16  N   UNL     1       4.632  -6.744  30.195  0.00  0.00    -0.219 NA
ATOM     17  C   UNL     1       3.946  -7.057  29.074  0.00  0.00    +0.147 A 
ATOM     18  N   UNL     1       2.827  -7.867  29.194  0.00  0.00    -0.341 N 
ATOM     19  H   UNL     1       2.182  -7.787  28.415  0.00  0.00    +0.144 HD
ATOM     20  H   UNL     1       2.438  -7.847  30.128  0.00  0.00    +0.144 HD
ATOM     21  C   UNL     1       4.388  -6.533  27.851  0.00  0.00    +0.147 A 
ATOM     22  N   UNL     1       3.901  -6.614  26.565  0.00  0.00    -0.231 NA
ATOM     23  C   UNL     1       4.721  -5.888  25.834  0.00  0.00    +0.203 A 
ENDBRANCH  10  12
BRANCH   9  24
ATOM     24  O   UNL     1       9.043  -5.424  26.576  0.00  0.00    -0.385 OA
ATOM     25  H   UNL     1       9.572  -4.598  26.548  0.00  0.00    +0.210 HD
ENDBRANCH   9  24
BRANCH   8  26
ATOM     26  O   UNL     1       9.842  -4.053  24.547  0.00  0.00    -0.386 OA
ATOM     27  H   UNL     1      10.354  -4.886  24.487  0.00  0.00    +0.210 HD
ENDBRANCH   8  26
ENDBRANCH   6   7
ENDBRANCH   5   6
ENDBRANCH   1   5
BRANCH   1  28
ATOM     28  O   UNL     1       8.000   0.148  22.303  0.00  0.00    -0.229 OA
BRANCH  28  29
ATOM     29  P   UNL     1       8.685   1.226  23.469  0.00  0.00    +0.222 P 
ATOM     30  O   UNL     1       9.371   2.304  24.635  0.00  0.00    -0.437 OA
ATOM     31  O   UNL     1       9.486   1.814  22.291  0.00  0.00    -0.517 OA
BRANCH  29  32
ATOM     32  O   UNL     1       7.212   2.045  23.429  0.00  0.00    -0.324 OA
BRANCH  32  33
ATOM     33  C   UNL     1       6.028   1.390  23.862  0.00  0.00    +0.202 C 
BRANCH  33  37
ATOM     34  C   UNL     1       5.453  -0.803  26.740  0.00  0.00    +0.439 C 
ATOM     35  C   UNL     1       5.415   0.564  27.410  0.00  0.00    +0.244 C 
ATOM     36  C   UNL     1       6.141   1.454  26.398  0.00  0.00    +0.183 C 
ATOM     37  C   UNL     1       6.284   0.580  25.139  0.00  0.00    +0.182 C 
ATOM     38  O   UNL     1       5.369  -0.522  25.338  0.00  0.00    -0.309 OA
BRANCH  34  43
ATOM     39  C   UNL     1       2.366  -2.936  26.719  0.00  0.00    +0.081 A 
ATOM     40  C   UNL     1       2.405  -3.485  28.000  0.00  0.00    +0.023 A 
ATOM     41  C   UNL     1       3.406  -3.096  28.884  0.00  0.00    +0.071 A 
ATOM     42  C   UNL     1       4.368  -2.183  28.461  0.00  0.00    +0.311 A 
ATOM     43  N   UNL     1       4.338  -1.670  27.203  0.00  0.00    -0.173 N 
ATOM     44  C   UNL     1       3.353  -2.029  26.343  0.00  0.00    +0.323 A 
BRANCH  39  46
ATOM     45  C   UNL     1       0.923  -4.778  25.632  0.00  0.00    +0.092 C 
ATOM     46  C   UNL     1       1.276  -3.322  25.788  0.00  0.00    +0.166 C 
ATOM     47  O   UNL     1       0.707  -2.437  25.154  0.00  0.00    -0.292 OA
ENDBRANCH  39  46
ENDBRANCH  34  43
BRANCH  36  48
ATOM     48  O   UNL     1       7.403   1.840  26.942  0.00  0.00    -0.386 OA
ATOM     49  H   UNL     1       7.625   2.716  26.557  0.00  0.00    +0.210 HD
ENDBRANCH  36  48
BRANCH  35  50
ATOM     50  O   UNL     1       6.035   0.554  28.698  0.00  0.00    -0.380 OA
ATOM     51  H   UNL     1       6.747   1.235  28.649  0.00  0.00    +0.210 HD
ENDBRANCH  35  50
ENDBRANCH  33  37
ENDBRANCH  32  33
ENDBRANCH  29  32
ENDBRANCH  28  29
ENDBRANCH   1  28
TORSDOF 16
ENDMDL
