MODEL 1
REMARK VINA RESULT:      -5.1      0.000      0.000
REMARK  Name = 
REMARK  6 active torsions:
REMARK  status: ('A' for Active; 'I' for Inactive)
REMARK    1  A    between atoms: C_2  and  C_3
REMARK    2  A    between atoms: C_2  and  N_4
REMARK    3  A    between atoms: C_2  and  C_7
REMARK    4  A    between atoms: N_4  and  C_5
REMARK    5  A    between atoms: N_4  and  C_6
REMARK    6  A    between atoms: C_9  and  O_10
REMARK                            x       y       z     vdW  Elec       q    Type
REMARK                         _______ _______ _______ _____ _____    ______ ____
ROOT
ATOM      1  C   UNL     1      10.512   3.635  23.598  0.00  0.00    -0.027 A 
ATOM      2  C   UNL     1       9.845   4.823  23.947  0.00  0.00    +0.005 A 
ATOM      3  C   UNL     1      10.536   6.034  24.018  0.00  0.00    +0.004 A 
ATOM      4  C   UNL     1      11.902   6.074  23.752  0.00  0.00    +0.045 A 
ATOM      5  C   UNL     1      12.569   4.904  23.410  0.00  0.00    +0.117 A 
ATOM      6  C   UNL     1      11.890   3.691  23.327  0.00  0.00    +0.050 A 
ENDROOT
BRANCH   1   7
ATOM      7  C   UNL     1       9.728   2.327  23.484  0.00  0.00    +0.083 C 
ATOM      8  C   UNL     1      10.528   1.220  24.200  0.00  0.00    +0.029 C 
BRANCH   7   9
ATOM      9  N   UNL     1       9.412   1.968  22.074  0.00  0.00    -0.302 NA
ATOM     10  C   UNL     1       7.984   2.152  21.771  0.00  0.00    +0.105 C 
ATOM     11  C   UNL     1       9.762   0.571  21.781  0.00  0.00    +0.105 C 
ENDBRANCH   7   9
ENDBRANCH   1   7
BRANCH   5  12
ATOM     12  O   UNL     1      13.907   4.986  23.156  0.00  0.00    -0.507 OA
ATOM     13  H   UNL     1      14.031   5.004  22.192  0.00  0.00    +0.292 HD
ENDBRANCH   5  12
TORSDOF 3
ENDMDL
MODEL 2
REMARK VINA RESULT:      -4.8      3.552      5.181
REMARK  Name = 
REMARK  6 active torsions:
REMARK  status: ('A' for Active; 'I' for Inactive)
REMARK    1  A    between atoms: C_2  and  C_3
REMARK    2  A    between atoms: C_2  and  N_4
REMARK    3  A    between atoms: C_2  and  C_7
REMARK    4  A    between atoms: N_4  and  C_5
REMARK    5  A    between atoms: N_4  and  C_6
REMARK    6  A    between atoms: C_9  and  O_10
REMARK                            x       y       z     vdW  Elec       q    Type
REMARK                         _______ _______ _______ _____ _____    ______ ____
ROOT
ATOM      1  C   UNL     1       9.630  -0.911  23.393  0.00  0.00    -0.027 A 
ATOM      2  C   UNL     1      10.129  -0.418  24.612  0.00  0.00    +0.005 A 
ATOM      3  C   UNL     1      10.542   0.910  24.728  0.00  0.00    +0.004 A 
ATOM      4  C   UNL     1      10.470   1.761  23.629  0.00  0.00    +0.045 A 
ATOM      5  C   UNL     1       9.982   1.281  22.419  0.00  0.00    +0.117 A 
ATOM      6  C   UNL     1       9.559  -0.039  22.292  0.00  0.00    +0.050 A 
ENDROOT
BRANCH   1   7
ATOM      7  C   UNL     1       9.143  -2.358  23.298  0.00  0.00    +0.083 C 
ATOM      8  C   UNL     1       7.993  -2.416  22.274  0.00  0.00    +0.029 C 
BRANCH   7   9
ATOM      9  N   UNL     1       8.747  -2.918  24.620  0.00  0.00    -0.302 NA
ATOM     10  C   UNL     1       9.398  -4.211  24.883  0.00  0.00    +0.105 C 
ATOM     11  C   UNL     1       7.294  -3.115  24.707  0.00  0.00    +0.105 C 
ENDBRANCH   7   9
ENDBRANCH   1   7
BRANCH   5  12
ATOM     12  O   UNL     1       9.928   2.147  21.367  0.00  0.00    -0.507 OA
ATOM     13  H   UNL     1       9.100   1.986  20.885  0.00  0.00    +0.292 HD
ENDBRANCH   5  12
TORSDOF 3
ENDMDL
MODEL 3
REMARK VINA RESULT:      -4.6      4.407      6.531
REMARK  Name = 
REMARK  6 active torsions:
REMARK  status: ('A' for Active; 'I' for Inactive)
REMARK    1  A    between atoms: C_2  and  C_3
REMARK    2  A    between atoms: C_2  and  N_4
REMARK    3  A    between atoms: C_2  and  C_7
REMARK    4  A    between atoms: N_4  and  C_5
REMARK    5  A    between atoms: N_4  and  C_6
REMARK    6  A    between atoms: C_9  and  O_10
REMARK                            x       y       z     vdW  Elec       q    Type
REMARK                         _______ _______ _______ _____ _____    ______ ____
ROOT
ATOM      1  C   UNL     1       9.717  -1.303  24.325  0.00  0.00    -0.027 A 
ATOM      2  C   UNL     1       8.957  -0.965  25.459  0.00  0.00    +0.005 A 
ATOM      3  C   UNL     1       8.348  -1.958  26.230  0.00  0.00    +0.004 A 
ATOM      4  C   UNL     1       8.482  -3.297  25.875  0.00  0.00    +0.045 A 
ATOM      5  C   UNL     1       9.228  -3.639  24.753  0.00  0.00    +0.117 A 
ATOM      6  C   UNL     1       9.848  -2.660  23.981  0.00  0.00    +0.050 A 
ENDROOT
BRANCH   1   7
ATOM      7  C   UNL     1      10.411  -0.204  23.519  0.00  0.00    +0.083 C 
ATOM      8  C   UNL     1      11.053   0.790  24.507  0.00  0.00    +0.029 C 
BRANCH   7   9
ATOM      9  N   UNL     1       9.493   0.471  22.560  0.00  0.00    -0.302 NA
ATOM     10  C   UNL     1       9.337  -0.301  21.317  0.00  0.00    +0.105 C 
ATOM     11  C   UNL     1       9.977   1.811  22.203  0.00  0.00    +0.105 C 
ENDBRANCH   7   9
ENDBRANCH   1   7
BRANCH   5  12
ATOM     12  O   UNL     1       9.335  -4.962  24.440  0.00  0.00    -0.507 OA
ATOM     13  H   UNL     1      10.148  -5.304  24.848  0.00  0.00    +0.292 HD
ENDBRANCH   5  12
TORSDOF 3
ENDMDL
MODEL 4
REMARK VINA RESULT:      -4.5      4.593      6.223
REMARK  Name = 
REMARK  6 active torsions:
REMARK  status: ('A' for Active; 'I' for Inactive)
REMARK    1  A    between atoms: C_2  and  C_3
REMARK    2  A    between atoms: C_2  and  N_4
REMARK    3  A    between atoms: C_2  and  C_7
REMARK    4  A    between atoms: N_4  and  C_5
REMARK    5  A    between atoms: N_4  and  C_6
REMARK    6  A    between atoms: C_9  and  O_10
REMARK                            x       y       z     vdW  Elec       q    Type
REMARK                         _______ _______ _______ _____ _____    ______ ____
ROOT
ATOM      1  C   UNL     1       8.604  -2.098  23.385  0.00  0.00    -0.027 A 
ATOM      2  C   UNL     1       9.045  -1.678  22.117  0.00  0.00    +0.005 A 
ATOM      3  C   UNL     1       9.927  -0.603  21.989  0.00  0.00    +0.004 A 
ATOM      4  C   UNL     1      10.372   0.070  23.123  0.00  0.00    +0.045 A 
ATOM      5  C   UNL     1       9.939  -0.336  24.379  0.00  0.00    +0.117 A 
ATOM      6  C   UNL     1       9.066  -1.412  24.521  0.00  0.00    +0.050 A 
ENDROOT
BRANCH   1   7
ATOM      7  C   UNL     1       7.671  -3.305  23.505  0.00  0.00    +0.083 C 
ATOM      8  C   UNL     1       8.452  -4.456  24.169  0.00  0.00    +0.029 C 
BRANCH   7   9
ATOM      9  N   UNL     1       7.081  -3.707  22.198  0.00  0.00    -0.302 NA
ATOM     10  C   UNL     1       5.691  -3.246  22.062  0.00  0.00    +0.105 C 
ATOM     11  C   UNL     1       7.095  -5.166  22.027  0.00  0.00    +0.105 C 
ENDBRANCH   7   9
ENDBRANCH   1   7
BRANCH   5  12
ATOM     12  O   UNL     1      10.400   0.350  25.464  0.00  0.00    -0.507 OA
ATOM     13  H   UNL     1      10.713   1.219  25.161  0.00  0.00    +0.292 HD
ENDBRANCH   5  12
TORSDOF 3
ENDMDL
MODEL 5
REMARK VINA RESULT:      -4.5      8.970      9.339
REMARK  Name = 
REMARK  6 active torsions:
REMARK  status: ('A' for Active; 'I' for Inactive)
REMARK    1  A    between atoms: C_2  and  C_3
REMARK    2  A    between atoms: C_2  and  N_4
REMARK    3  A    between atoms: C_2  and  C_7
REMARK    4  A    between atoms: N_4  and  C_5
REMARK    5  A    between atoms: N_4  and  C_6
REMARK    6  A    between atoms: C_9  and  O_10
REMARK                            x       y       z     vdW  Elec       q    Type
REMARK                         _______ _______ _______ _____ _____    ______ ____
ROOT
ATOM      1  C   UNL     1       7.250  -4.376  24.290  0.00  0.00    -0.027 A 
ATOM      2  C   UNL     1       6.763  -3.810  25.481  0.00  0.00    +0.005 A 
ATOM      3  C   UNL     1       7.519  -3.860  26.655  0.00  0.00    +0.004 A 
ATOM      4  C   UNL     1       8.764  -4.482  26.655  0.00  0.00    +0.045 A 
ATOM      5  C   UNL     1       9.251  -5.047  25.483  0.00  0.00    +0.117 A 
ATOM      6  C   UNL     1       8.512  -4.996  24.304  0.00  0.00    +0.050 A 
ENDROOT
BRANCH   1   7
ATOM      7  C   UNL     1       6.426  -4.274  23.006  0.00  0.00    +0.083 C 
ATOM      8  C   UNL     1       5.270  -3.284  23.250  0.00  0.00    +0.029 C 
BRANCH   7   9
ATOM      9  N   UNL     1       5.939  -5.598  22.529  0.00  0.00    -0.302 NA
ATOM     10  C   UNL     1       6.140  -5.765  21.081  0.00  0.00    +0.105 C 
ATOM     11  C   UNL     1       4.509  -5.781  22.813  0.00  0.00    +0.105 C 
ENDBRANCH   7   9
ENDBRANCH   1   7
BRANCH   5  12
ATOM     12  O   UNL     1      10.476  -5.646  25.526  0.00  0.00    -0.507 OA
ATOM     13  H   UNL     1      10.371  -6.517  25.944  0.00  0.00    +0.292 HD
ENDBRANCH   5  12
TORSDOF 3
ENDMDL
MODEL 6
REMARK VINA RESULT:      -4.5      5.342      7.880
REMARK  Name = 
REMARK  6 active torsions:
REMARK  status: ('A' for Active; 'I' for Inactive)
REMARK    1  A    between atoms: C_2  and  C_3
REMARK    2  A    between atoms: C_2  and  N_4
REMARK    3  A    between atoms: C_2  and  C_7
REMARK    4  A    between atoms: N_4  and  C_5
REMARK    5  A    between atoms: N_4  and  C_6
REMARK    6  A    between atoms: C_9  and  O_10
REMARK                            x       y       z     vdW  Elec       q    Type
REMARK                         _______ _______ _______ _____ _____    ______ ____
ROOT
ATOM      1  C   UNL     1       8.891  -2.669  23.766  0.00  0.00    -0.027 A 
ATOM      2  C   UNL     1       7.758  -3.180  23.109  0.00  0.00    +0.005 A 
ATOM      3  C   UNL     1       7.355  -4.502  23.307  0.00  0.00    +0.004 A 
ATOM      4  C   UNL     1       8.082  -5.332  24.156  0.00  0.00    +0.045 A 
ATOM      5  C   UNL     1       9.205  -4.836  24.807  0.00  0.00    +0.117 A 
ATOM      6  C   UNL     1       9.613  -3.517  24.625  0.00  0.00    +0.050 A 
ENDROOT
BRANCH   1   7
ATOM      7  C   UNL     1       9.291  -1.206  23.568  0.00  0.00    +0.083 C 
ATOM      8  C   UNL     1      10.326  -1.137  22.428  0.00  0.00    +0.029 C 
BRANCH   7   9
ATOM      9  N   UNL     1       9.791  -0.573  24.820  0.00  0.00    -0.302 NA
ATOM     10  C   UNL     1       8.693  -0.022  25.630  0.00  0.00    +0.105 C 
ATOM     11  C   UNL     1      10.735   0.516  24.533  0.00  0.00    +0.105 C 
ENDBRANCH   7   9
ENDBRANCH   1   7
BRANCH   5  12
ATOM     12  O   UNL     1       9.888  -5.681  25.630  0.00  0.00    -0.507 OA
ATOM     13  H   UNL     1      10.714  -5.243  25.895  0.00  0.00    +0.292 HD
ENDBRANCH   5  12
TORSDOF 3
ENDMDL
MODEL 7
REMARK VINA RESULT:      -4.5      4.350      6.250
REMARK  Name = 
REMARK  6 active torsions:
REMARK  status: ('A' for Active; 'I' for Inactive)
REMARK    1  A    between atoms: C_2  and  C_3
REMARK    2  A    between atoms: C_2  and  N_4
REMARK    3  A    between atoms: C_2  and  C_7
REMARK    4  A    between atoms: N_4  and  C_5
REMARK    5  A    between atoms: N_4  and  C_6
REMARK    6  A    between atoms: C_9  and  O_10
REMARK                            x       y       z     vdW  Elec       q    Type
REMARK                         _______ _______ _______ _____ _____    ______ ____
ROOT
ATOM      1  C   UNL     1       9.113  -2.017  23.249  0.00  0.00    -0.027 A 
ATOM      2  C   UNL     1       9.200  -1.422  21.978  0.00  0.00    +0.005 A 
ATOM      3  C   UNL     1       9.764  -0.154  21.821  0.00  0.00    +0.004 A 
ATOM      4  C   UNL     1      10.242   0.537  22.930  0.00  0.00    +0.045 A 
ATOM      5  C   UNL     1      10.157  -0.042  24.191  0.00  0.00    +0.117 A 
ATOM      6  C   UNL     1       9.604  -1.309  24.360  0.00  0.00    +0.050 A 
ENDROOT
BRANCH   1   7
ATOM      7  C   UNL     1       8.530  -3.423  23.394  0.00  0.00    +0.083 C 
ATOM      8  C   UNL     1       7.208  -3.482  22.603  0.00  0.00    +0.029 C 
BRANCH   7   9
ATOM      9  N   UNL     1       8.351  -3.827  24.817  0.00  0.00    -0.302 NA
ATOM     10  C   UNL     1       9.170  -5.000  25.158  0.00  0.00    +0.105 C 
ATOM     11  C   UNL     1       6.949  -4.151  25.113  0.00  0.00    +0.105 C 
ENDBRANCH   7   9
ENDBRANCH   1   7
BRANCH   5  12
ATOM     12  O   UNL     1      10.637   0.669  25.251  0.00  0.00    -0.507 OA
ATOM     13  H   UNL     1      11.603   0.561  25.275  0.00  0.00    +0.292 HD
ENDBRANCH   5  12
TORSDOF 3
ENDMDL
MODEL 8
REMARK VINA RESULT:      -4.4      3.007      4.716
REMARK  Name = 
REMARK  6 active torsions:
REMARK  status: ('A' for Active; 'I' for Inactive)
REMARK    1  A    between atoms: C_2  and  C_3
REMARK    2  A    between atoms: C_2  and  N_4
REMARK    3  A    between atoms: C_2  and  C_7
REMARK    4  A    between atoms: N_4  and  C_5
REMARK    5  A    between atoms: N_4  and  C_6
REMARK    6  A    between atoms: C_9  and  O_10
REMARK                            x       y       z     vdW  Elec       q    Type
REMARK                         _______ _______ _______ _____ _____    ______ ____
ROOT
ATOM      1  C   UNL     1       9.715  -0.264  23.776  0.00  0.00    -0.027 A 
ATOM      2  C   UNL     1       9.267  -0.423  22.453  0.00  0.00    +0.005 A 
ATOM      3  C   UNL     1       9.392   0.616  21.528  0.00  0.00    +0.004 A 
ATOM      4  C   UNL     1       9.958   1.828  21.915  0.00  0.00    +0.045 A 
ATOM      5  C   UNL     1      10.400   1.994  23.222  0.00  0.00    +0.117 A 
ATOM      6  C   UNL     1      10.289   0.963  24.151  0.00  0.00    +0.050 A 
ENDROOT
BRANCH   1   7
ATOM      7  C   UNL     1       9.608  -1.429  24.762  0.00  0.00    +0.083 C 
ATOM      8  C   UNL     1       9.719  -2.746  23.968  0.00  0.00    +0.029 C 
BRANCH   7   9
ATOM      9  N   UNL     1       8.367  -1.372  25.584  0.00  0.00    -0.302 NA
ATOM     10  C   UNL     1       8.622  -0.810  26.919  0.00  0.00    +0.105 C 
ATOM     11  C   UNL     1       7.775  -2.705  25.759  0.00  0.00    +0.105 C 
ENDBRANCH   7   9
ENDBRANCH   1   7
BRANCH   5  12
ATOM     12  O   UNL     1      10.949   3.197  23.559  0.00  0.00    -0.507 OA
ATOM     13  H   UNL     1      11.898   3.164  23.353  0.00  0.00    +0.292 HD
ENDBRANCH   5  12
TORSDOF 3
ENDMDL
MODEL 9
REMARK VINA RESULT:      -4.4      5.158      6.904
REMARK  Name = 
REMARK  6 active torsions:
REMARK  status: ('A' for Active; 'I' for Inactive)
REMARK    1  A    between atoms: C_2  and  C_3
REMARK    2  A    between atoms: C_2  and  N_4
REMARK    3  A    between atoms: C_2  and  C_7
REMARK    4  A    between atoms: N_4  and  C_5
REMARK    5  A    between atoms: N_4  and  C_6
REMARK    6  A    between atoms: C_9  and  O_10
REMARK                            x       y       z     vdW  Elec       q    Type
REMARK                         _______ _______ _______ _____ _____    ______ ____
ROOT
ATOM      1  C   UNL     1       8.450  -2.744  23.502  0.00  0.00    -0.027 A 
ATOM      2  C   UNL     1       9.130  -2.155  24.582  0.00  0.00    +0.005 A 
ATOM      3  C   UNL     1       9.905  -1.008  24.397  0.00  0.00    +0.004 A 
ATOM      4  C   UNL     1      10.017  -0.440  23.131  0.00  0.00    +0.045 A 
ATOM      5  C   UNL     1       9.350  -1.018  22.057  0.00  0.00    +0.117 A 
ATOM      6  C   UNL     1       8.568  -2.157  22.230  0.00  0.00    +0.050 A 
ENDROOT
BRANCH   1   7
ATOM      7  C   UNL     1       7.573  -3.975  23.734  0.00  0.00    +0.083 C 
ATOM      8  C   UNL     1       8.440  -5.071  24.384  0.00  0.00    +0.029 C 
BRANCH   7   9
ATOM      9  N   UNL     1       6.908  -4.450  22.488  0.00  0.00    -0.302 NA
ATOM     10  C   UNL     1       5.445  -4.328  22.569  0.00  0.00    +0.105 C 
ATOM     11  C   UNL     1       7.231  -5.855  22.208  0.00  0.00    +0.105 C 
ENDBRANCH   7   9
ENDBRANCH   1   7
BRANCH   5  12
ATOM     12  O   UNL     1       9.486  -0.430  20.834  0.00  0.00    -0.507 OA
ATOM     13  H   UNL     1       9.736   0.499  20.971  0.00  0.00    +0.292 HD
ENDBRANCH   5  12
TORSDOF 3
ENDMDL
