MODEL 1
REMARK VINA RESULT:      -3.8      0.000      0.000
REMARK  Name = 
REMARK  6 active torsions:
REMARK  status: ('A' for Active; 'I' for Inactive)
REMARK    1  A    between atoms: N_1  and  CA_2
REMARK    2  A    between atoms: CA_2  and  C_4
REMARK    3  A    between atoms: CA_2  and  C_7
REMARK    4  A    between atoms: C_4  and  C_5
REMARK    5  A    between atoms: C_5  and  O_6
REMARK    6  A    between atoms: C_7  and  O_8
REMARK                            x       y       z     vdW  Elec       q    Type
REMARK                         _______ _______ _______ _____ _____    ______ ____
ROOT
ATOM      1  CA  UNL     1      12.226   5.563  24.061  0.00  0.00    +0.163 C 
ENDROOT
BRANCH   1   2
ATOM      2  N   UNL     1      12.777   6.718  24.849  0.00  0.00    -0.318 NA
ATOM      3  H1  UNL     1      13.579   6.384  25.396  0.00  0.00    +0.119 HD
ATOM      4  H2  UNL     1      13.193   7.376  24.183  0.00  0.00    +0.119 HD
ENDBRANCH   1   2
BRANCH   1   5
ATOM      5  C   UNL     1      13.141   5.342  22.837  0.00  0.00    +0.322 C 
ATOM      6  OXT UNL     1      12.786   5.381  21.672  0.00  0.00    -0.249 OA
BRANCH   5   7
ATOM      7  O   UNL     1      14.415   5.062  23.216  0.00  0.00    -0.480 OA
ATOM      8  H   UNL     1      14.362   4.201  23.703  0.00  0.00    +0.295 HD
ENDBRANCH   5   7
ENDBRANCH   1   5
BRANCH   1   9
ATOM      9  C   UNL     1      10.777   5.856  23.677  0.00  0.00    +0.057 C 
BRANCH   9  10
ATOM     10  C   UNL     1       9.843   4.656  23.798  0.00  0.00    +0.158 C 
BRANCH  10  11
ATOM     11  O   UNL     1      10.298   3.623  22.930  0.00  0.00    -0.395 OA
ATOM     12  H   UNL     1       9.523   3.230  22.496  0.00  0.00    +0.209 HD
ENDBRANCH  10  11
ENDBRANCH   9  10
ENDBRANCH   1   9
TORSDOF 6
ENDMDL
MODEL 2
REMARK VINA RESULT:      -3.7      9.827     11.192
REMARK  Name = 
REMARK  6 active torsions:
REMARK  status: ('A' for Active; 'I' for Inactive)
REMARK    1  A    between atoms: N_1  and  CA_2
REMARK    2  A    between atoms: CA_2  and  C_4
REMARK    3  A    between atoms: CA_2  and  C_7
REMARK    4  A    between atoms: C_4  and  C_5
REMARK    5  A    between atoms: C_5  and  O_6
REMARK    6  A    between atoms: C_7  and  O_8
REMARK                            x       y       z     vdW  Elec       q    Type
REMARK                         _______ _______ _______ _____ _____    ______ ____
ROOT
ATOM      1  CA  UNL     1       8.967  -4.607  26.419  0.00  0.00    +0.163 C 
ENDROOT
BRANCH   1   2
ATOM      2  N   UNL     1       9.949  -5.454  25.660  0.00  0.00    -0.318 NA
ATOM      3  H1  UNL     1       9.519  -5.731  24.769  0.00  0.00    +0.119 HD
ATOM      4  H2  UNL     1      10.726  -4.851  25.378  0.00  0.00    +0.119 HD
ENDBRANCH   1   2
BRANCH   1   5
ATOM      5  C   UNL     1       7.676  -5.433  26.612  0.00  0.00    +0.322 C 
ATOM      6  OXT UNL     1       6.768  -5.527  25.805  0.00  0.00    -0.249 OA
BRANCH   5   7
ATOM      7  O   UNL     1       7.652  -6.032  27.831  0.00  0.00    -0.480 OA
ATOM      8  H   UNL     1       8.216  -6.841  27.738  0.00  0.00    +0.295 HD
ENDBRANCH   5   7
ENDBRANCH   1   5
BRANCH   1   9
ATOM      9  C   UNL     1       8.731  -3.302  25.660  0.00  0.00    +0.057 C 
BRANCH   9  10
ATOM     10  C   UNL     1       8.936  -3.410  24.152  0.00  0.00    +0.158 C 
BRANCH  10  11
ATOM     11  O   UNL     1      10.273  -3.032  23.837  0.00  0.00    -0.395 OA
ATOM     12  H   UNL     1      10.258  -2.546  22.995  0.00  0.00    +0.209 HD
ENDBRANCH  10  11
ENDBRANCH   9  10
ENDBRANCH   1   9
TORSDOF 6
ENDMDL
MODEL 3
REMARK VINA RESULT:      -3.7      5.182      6.455
REMARK  Name = 
REMARK  6 active torsions:
REMARK  status: ('A' for Active; 'I' for Inactive)
REMARK    1  A    between atoms: N_1  and  CA_2
REMARK    2  A    between atoms: CA_2  and  C_4
REMARK    3  A    between atoms: CA_2  and  C_7
REMARK    4  A    between atoms: C_4  and  C_5
REMARK    5  A    between atoms: C_5  and  O_6
REMARK    6  A    between atoms: C_7  and  O_8
REMARK                            x       y       z     vdW  Elec       q    Type
REMARK                         _______ _______ _______ _____ _____    ______ ____
ROOT
ATOM      1  CA  UNL     1       9.513  -0.343  23.382  0.00  0.00    +0.163 C 
ENDROOT
BRANCH   1   2
ATOM      2  N   UNL     1      10.667   0.443  23.938  0.00  0.00    -0.318 NA
ATOM      3  H1  UNL     1      10.590   0.454  24.962  0.00  0.00    +0.119 HD
ATOM      4  H2  UNL     1      11.521  -0.095  23.763  0.00  0.00    +0.119 HD
ENDBRANCH   1   2
BRANCH   1   5
ATOM      5  C   UNL     1      10.064  -1.683  22.848  0.00  0.00    +0.322 C 
ATOM      6  OXT UNL     1      10.294  -2.672  23.522  0.00  0.00    -0.249 OA
BRANCH   5   7
ATOM      7  O   UNL     1      10.300  -1.623  21.513  0.00  0.00    -0.480 OA
ATOM      8  H   UNL     1      10.099  -2.529  21.167  0.00  0.00    +0.295 HD
ENDBRANCH   5   7
ENDBRANCH   1   5
BRANCH   1   9
ATOM      9  C   UNL     1       8.809   0.483  22.307  0.00  0.00    +0.057 C 
BRANCH   9  10
ATOM     10  C   UNL     1       9.116   1.976  22.364  0.00  0.00    +0.158 C 
BRANCH  10  11
ATOM     11  O   UNL     1      10.264   2.245  21.566  0.00  0.00    -0.395 OA
ATOM     12  H   UNL     1      10.932   1.565  21.759  0.00  0.00    +0.209 HD
ENDBRANCH  10  11
ENDBRANCH   9  10
ENDBRANCH   1   9
TORSDOF 6
ENDMDL
MODEL 4
REMARK VINA RESULT:      -3.7      9.714     10.799
REMARK  Name = 
REMARK  6 active torsions:
REMARK  status: ('A' for Active; 'I' for Inactive)
REMARK    1  A    between atoms: N_1  and  CA_2
REMARK    2  A    between atoms: CA_2  and  C_4
REMARK    3  A    between atoms: CA_2  and  C_7
REMARK    4  A    between atoms: C_4  and  C_5
REMARK    5  A    between atoms: C_5  and  O_6
REMARK    6  A    between atoms: C_7  and  O_8
REMARK                            x       y       z     vdW  Elec       q    Type
REMARK                         _______ _______ _______ _____ _____    ______ ____
ROOT
ATOM      1  CA  UNL     1       8.542  -5.039  24.534  0.00  0.00    +0.163 C 
ENDROOT
BRANCH   1   2
ATOM      2  N   UNL     1       9.740  -5.640  25.213  0.00  0.00    -0.318 NA
ATOM      3  H1  UNL     1       9.487  -5.859  26.183  0.00  0.00    +0.119 HD
ATOM      4  H2  UNL     1       9.907  -6.558  24.790  0.00  0.00    +0.119 HD
ENDBRANCH   1   2
BRANCH   1   5
ATOM      5  C   UNL     1       8.870  -3.565  24.208  0.00  0.00    +0.322 C 
ATOM      6  OXT UNL     1       8.051  -2.673  24.065  0.00  0.00    -0.249 OA
BRANCH   5   7
ATOM      7  O   UNL     1      10.207  -3.377  24.064  0.00  0.00    -0.480 OA
ATOM      8  H   UNL     1      10.629  -4.205  24.406  0.00  0.00    +0.295 HD
ENDBRANCH   5   7
ENDBRANCH   1   5
BRANCH   1   9
ATOM      9  C   UNL     1       7.319  -5.192  25.435  0.00  0.00    +0.057 C 
BRANCH   9  10
ATOM     10  C   UNL     1       7.567  -4.822  26.894  0.00  0.00    +0.158 C 
BRANCH  10  11
ATOM     11  O   UNL     1       7.840  -6.007  27.635  0.00  0.00    -0.395 OA
ATOM     12  H   UNL     1       8.758  -6.271  27.453  0.00  0.00    +0.209 HD
ENDBRANCH  10  11
ENDBRANCH   9  10
ENDBRANCH   1   9
TORSDOF 6
ENDMDL
MODEL 5
REMARK VINA RESULT:      -3.7      5.993      7.230
REMARK  Name = 
REMARK  6 active torsions:
REMARK  status: ('A' for Active; 'I' for Inactive)
REMARK    1  A    between atoms: N_1  and  CA_2
REMARK    2  A    between atoms: CA_2  and  C_4
REMARK    3  A    between atoms: CA_2  and  C_7
REMARK    4  A    between atoms: C_4  and  C_5
REMARK    5  A    between atoms: C_5  and  O_6
REMARK    6  A    between atoms: C_7  and  O_8
REMARK                            x       y       z     vdW  Elec       q    Type
REMARK                         _______ _______ _______ _____ _____    ______ ____
ROOT
ATOM      1  CA  UNL     1      10.406  -1.149  22.825  0.00  0.00    +0.163 C 
ENDROOT
BRANCH   1   2
ATOM      2  N   UNL     1       9.971  -1.548  21.443  0.00  0.00    -0.318 NA
ATOM      3  H1  UNL     1      10.788  -1.515  20.823  0.00  0.00    +0.119 HD
ATOM      4  H2  UNL     1       9.725  -2.542  21.471  0.00  0.00    +0.119 HD
ENDBRANCH   1   2
BRANCH   1   5
ATOM      5  C   UNL     1       9.595  -1.986  23.839  0.00  0.00    +0.322 C 
ATOM      6  OXT UNL     1       8.618  -1.598  24.456  0.00  0.00    -0.249 OA
BRANCH   5   7
ATOM      7  O   UNL     1      10.127  -3.226  23.993  0.00  0.00    -0.480 OA
ATOM      8  H   UNL     1      10.574  -3.213  24.877  0.00  0.00    +0.295 HD
ENDBRANCH   5   7
ENDBRANCH   1   5
BRANCH   1   9
ATOM      9  C   UNL     1      10.211   0.356  23.003  0.00  0.00    +0.057 C 
BRANCH   9  10
ATOM     10  C   UNL     1       9.585   1.052  21.799  0.00  0.00    +0.158 C 
BRANCH  10  11
ATOM     11  O   UNL     1      10.252   2.291  21.580  0.00  0.00    -0.395 OA
ATOM     12  H   UNL     1       9.766   2.984  22.059  0.00  0.00    +0.209 HD
ENDBRANCH  10  11
ENDBRANCH   9  10
ENDBRANCH   1   9
TORSDOF 6
ENDMDL
MODEL 6
REMARK VINA RESULT:      -3.6      5.768      6.812
REMARK  Name = 
REMARK  6 active torsions:
REMARK  status: ('A' for Active; 'I' for Inactive)
REMARK    1  A    between atoms: N_1  and  CA_2
REMARK    2  A    between atoms: CA_2  and  C_4
REMARK    3  A    between atoms: CA_2  and  C_7
REMARK    4  A    between atoms: C_4  and  C_5
REMARK    5  A    between atoms: C_5  and  O_6
REMARK    6  A    between atoms: C_7  and  O_8
REMARK                            x       y       z     vdW  Elec       q    Type
REMARK                         _______ _______ _______ _____ _____    ______ ____
ROOT
ATOM      1  CA  UNL     1       9.312  -0.451  22.330  0.00  0.00    +0.163 C 
ENDROOT
BRANCH   1   2
ATOM      2  N   UNL     1      10.009  -1.405  21.401  0.00  0.00    -0.318 NA
ATOM      3  H1  UNL     1      11.022  -1.320  21.548  0.00  0.00    +0.119 HD
ATOM      4  H2  UNL     1       9.796  -2.356  21.716  0.00  0.00    +0.119 HD
ENDBRANCH   1   2
BRANCH   1   5
ATOM      5  C   UNL     1       9.558   0.983  21.811  0.00  0.00    +0.322 C 
ATOM      6  OXT UNL     1      10.395   1.757  22.241  0.00  0.00    -0.249 OA
BRANCH   5   7
ATOM      7  O   UNL     1       8.689   1.303  20.818  0.00  0.00    -0.480 OA
ATOM      8  H   UNL     1       8.575   0.473  20.289  0.00  0.00    +0.295 HD
ENDBRANCH   5   7
ENDBRANCH   1   5
BRANCH   1   9
ATOM      9  C   UNL     1       9.824  -0.666  23.753  0.00  0.00    +0.057 C 
BRANCH   9  10
ATOM     10  C   UNL     1       9.370  -1.975  24.391  0.00  0.00    +0.158 C 
BRANCH  10  11
ATOM     11  O   UNL     1      10.181  -3.037  23.897  0.00  0.00    -0.395 OA
ATOM     12  H   UNL     1       9.596  -3.700  23.494  0.00  0.00    +0.209 HD
ENDBRANCH  10  11
ENDBRANCH   9  10
ENDBRANCH   1   9
TORSDOF 6
ENDMDL
MODEL 7
REMARK VINA RESULT:      -3.6      2.043      3.742
REMARK  Name = 
REMARK  6 active torsions:
REMARK  status: ('A' for Active; 'I' for Inactive)
REMARK    1  A    between atoms: N_1  and  CA_2
REMARK    2  A    between atoms: CA_2  and  C_4
REMARK    3  A    between atoms: CA_2  and  C_7
REMARK    4  A    between atoms: C_4  and  C_5
REMARK    5  A    between atoms: C_5  and  O_6
REMARK    6  A    between atoms: C_7  and  O_8
REMARK                            x       y       z     vdW  Elec       q    Type
REMARK                         _______ _______ _______ _____ _____    ______ ____
ROOT
ATOM      1  CA  UNL     1      10.966   5.100  23.931  0.00  0.00    +0.163 C 
ENDROOT
BRANCH   1   2
ATOM      2  N   UNL     1      11.093   3.881  23.061  0.00  0.00    -0.318 NA
ATOM      3  H1  UNL     1      12.088   3.636  22.988  0.00  0.00    +0.119 HD
ATOM      4  H2  UNL     1      10.684   3.093  23.571  0.00  0.00    +0.119 HD
ENDBRANCH   1   2
BRANCH   1   5
ATOM      5  C   UNL     1       9.648   5.814  23.559  0.00  0.00    +0.322 C 
ATOM      6  OXT UNL     1       9.352   6.956  23.864  0.00  0.00    -0.249 OA
BRANCH   5   7
ATOM      7  O   UNL     1       8.821   4.992  22.863  0.00  0.00    -0.480 OA
ATOM      8  H   UNL     1       9.384   4.590  22.154  0.00  0.00    +0.295 HD
ENDBRANCH   5   7
ENDBRANCH   1   5
BRANCH   1   9
ATOM      9  C   UNL     1      12.197   5.985  23.745  0.00  0.00    +0.057 C 
BRANCH   9  10
ATOM     10  C   UNL     1      13.111   5.554  22.602  0.00  0.00    +0.158 C 
BRANCH  10  11
ATOM     11  O   UNL     1      14.286   4.961  23.145  0.00  0.00    -0.395 OA
ATOM     12  H   UNL     1      14.910   4.805  22.416  0.00  0.00    +0.209 HD
ENDBRANCH  10  11
ENDBRANCH   9  10
ENDBRANCH   1   9
TORSDOF 6
ENDMDL
MODEL 8
REMARK VINA RESULT:      -3.6      4.861      5.821
REMARK  Name = 
REMARK  6 active torsions:
REMARK  status: ('A' for Active; 'I' for Inactive)
REMARK    1  A    between atoms: N_1  and  CA_2
REMARK    2  A    between atoms: CA_2  and  C_4
REMARK    3  A    between atoms: CA_2  and  C_7
REMARK    4  A    between atoms: C_4  and  C_5
REMARK    5  A    between atoms: C_5  and  O_6
REMARK    6  A    between atoms: C_7  and  O_8
REMARK                            x       y       z     vdW  Elec       q    Type
REMARK                         _______ _______ _______ _____ _____    ______ ____
ROOT
ATOM      1  CA  UNL     1       9.489   0.787  23.485  0.00  0.00    +0.163 C 
ENDROOT
BRANCH   1   2
ATOM      2  N   UNL     1       8.205   0.391  22.812  0.00  0.00    -0.318 NA
ATOM      3  H1  UNL     1       7.444   0.460  23.498  0.00  0.00    +0.119 HD
ATOM      4  H2  UNL     1       7.980   1.116  22.124  0.00  0.00    +0.119 HD
ENDBRANCH   1   2
BRANCH   1   5
ATOM      5  C   UNL     1      10.092   1.972  22.699  0.00  0.00    +0.322 C 
ATOM      6  OXT UNL     1      10.713   2.900  23.186  0.00  0.00    -0.249 OA
BRANCH   5   7
ATOM      7  O   UNL     1       9.816   1.876  21.373  0.00  0.00    -0.480 OA
ATOM      8  H   UNL     1      10.508   2.421  20.919  0.00  0.00    +0.295 HD
ENDBRANCH   5   7
ENDBRANCH   1   5
BRANCH   1   9
ATOM      9  C   UNL     1      10.420  -0.422  23.548  0.00  0.00    +0.057 C 
BRANCH   9  10
ATOM     10  C   UNL     1       9.952  -1.617  22.724  0.00  0.00    +0.158 C 
BRANCH  10  11
ATOM     11  O   UNL     1      10.148  -1.333  21.342  0.00  0.00    -0.395 OA
ATOM     12  H   UNL     1      11.028  -0.935  21.238  0.00  0.00    +0.209 HD
ENDBRANCH  10  11
ENDBRANCH   9  10
ENDBRANCH   1   9
TORSDOF 6
ENDMDL
MODEL 9
REMARK VINA RESULT:      -3.6      5.450      6.259
REMARK  Name = 
REMARK  6 active torsions:
REMARK  status: ('A' for Active; 'I' for Inactive)
REMARK    1  A    between atoms: N_1  and  CA_2
REMARK    2  A    between atoms: CA_2  and  C_4
REMARK    3  A    between atoms: CA_2  and  C_7
REMARK    4  A    between atoms: C_4  and  C_5
REMARK    5  A    between atoms: C_5  and  O_6
REMARK    6  A    between atoms: C_7  and  O_8
REMARK                            x       y       z     vdW  Elec       q    Type
REMARK                         _______ _______ _______ _____ _____    ______ ____
ROOT
ATOM      1  CA  UNL     1       9.976   0.794  22.066  0.00  0.00    +0.163 C 
ENDROOT
BRANCH   1   2
ATOM      2  N   UNL     1       8.985   1.525  21.205  0.00  0.00    -0.318 NA
ATOM      3  H1  UNL     1       9.427   1.725  20.300  0.00  0.00    +0.119 HD
ATOM      4  H2  UNL     1       8.236   0.867  20.970  0.00  0.00    +0.119 HD
ENDBRANCH   1   2
BRANCH   1   5
ATOM      5  C   UNL     1       9.467  -0.652  22.255  0.00  0.00    +0.322 C 
ATOM      6  OXT UNL     1       8.551  -0.989  22.985  0.00  0.00    -0.249 OA
BRANCH   5   7
ATOM      7  O   UNL     1      10.196  -1.531  21.522  0.00  0.00    -0.480 OA
ATOM      8  H   UNL     1       9.579  -2.277  21.314  0.00  0.00    +0.295 HD
ENDBRANCH   5   7
ENDBRANCH   1   5
BRANCH   1   9
ATOM      9  C   UNL     1      10.148   1.543  23.387  0.00  0.00    +0.057 C 
BRANCH   9  10
ATOM     10  C   UNL     1      10.988   0.800  24.422  0.00  0.00    +0.158 C 
BRANCH  10  11
ATOM     11  O   UNL     1      10.141   0.361  25.479  0.00  0.00    -0.395 OA
ATOM     12  H   UNL     1       9.264   0.175  25.104  0.00  0.00    +0.209 HD
ENDBRANCH  10  11
ENDBRANCH   9  10
ENDBRANCH   1   9
TORSDOF 6
ENDMDL
