MODEL 1
REMARK VINA RESULT:      -3.1      0.000      0.000
REMARK  Name = 
REMARK  4 active torsions:
REMARK  status: ('A' for Active; 'I' for Inactive)
REMARK    1  A    between atoms: C_2  and  C_3
REMARK    2  A    between atoms: C_3  and  C_4
REMARK    3  A    between atoms: C_4  and  C_5
REMARK    4  A    between atoms: C_5  and  C_6
REMARK                            x       y       z     vdW  Elec       q    Type
REMARK                         _______ _______ _______ _____ _____    ______ ____
ROOT
ATOM      1  C   UNL     1       8.985   1.077  22.015  0.00  0.00    +0.014 C 
ENDROOT
BRANCH   1   2
ATOM      2  C   UNL     1      10.203   1.942  22.318  0.00  0.00    +0.071 C 
BRANCH   2   4
ATOM      3  O   UNL     1      11.096   1.011  24.349  0.00  0.00    -0.301 OA
ATOM      4  C   UNL     1      10.495   1.926  23.795  0.00  0.00    +0.223 C 
ENDBRANCH   2   4
ENDBRANCH   1   2
BRANCH   1   5
ATOM      5  C   UNL     1       9.372  -0.180  21.242  0.00  0.00    +0.071 C 
BRANCH   5   6
ATOM      6  C   UNL     1       9.583  -1.369  22.148  0.00  0.00    +0.223 C 
ATOM      7  O   UNL     1      10.679  -1.854  22.411  0.00  0.00    -0.301 OA
ENDBRANCH   5   6
ENDBRANCH   1   5
TORSDOF 4
ENDMDL
MODEL 2
REMARK VINA RESULT:      -3.0      0.104      3.082
REMARK  Name = 
REMARK  4 active torsions:
REMARK  status: ('A' for Active; 'I' for Inactive)
REMARK    1  A    between atoms: C_2  and  C_3
REMARK    2  A    between atoms: C_3  and  C_4
REMARK    3  A    between atoms: C_4  and  C_5
REMARK    4  A    between atoms: C_5  and  C_6
REMARK                            x       y       z     vdW  Elec       q    Type
REMARK                         _______ _______ _______ _____ _____    ______ ____
ROOT
ATOM      1  C   UNL     1       8.985   1.020  22.152  0.00  0.00    +0.014 C 
ENDROOT
BRANCH   1   2
ATOM      2  C   UNL     1       9.388  -0.158  21.273  0.00  0.00    +0.071 C 
BRANCH   2   4
ATOM      3  O   UNL     1      10.676  -1.847  22.404  0.00  0.00    -0.301 OA
ATOM      4  C   UNL     1       9.573  -1.393  22.115  0.00  0.00    +0.223 C 
ENDBRANCH   2   4
ENDBRANCH   1   2
BRANCH   1   5
ATOM      5  C   UNL     1      10.163   1.952  22.410  0.00  0.00    +0.071 C 
BRANCH   5   6
ATOM      6  C   UNL     1      10.601   1.939  23.855  0.00  0.00    +0.223 C 
ATOM      7  O   UNL     1      10.996   0.941  24.450  0.00  0.00    -0.301 OA
ENDBRANCH   5   6
ENDBRANCH   1   5
TORSDOF 4
ENDMDL
MODEL 3
REMARK VINA RESULT:      -2.9      5.770      6.945
REMARK  Name = 
REMARK  4 active torsions:
REMARK  status: ('A' for Active; 'I' for Inactive)
REMARK    1  A    between atoms: C_2  and  C_3
REMARK    2  A    between atoms: C_3  and  C_4
REMARK    3  A    between atoms: C_4  and  C_5
REMARK    4  A    between atoms: C_5  and  C_6
REMARK                            x       y       z     vdW  Elec       q    Type
REMARK                         _______ _______ _______ _____ _____    ______ ____
ROOT
ATOM      1  C   UNL     1       7.523  -4.703  23.027  0.00  0.00    +0.014 C 
ENDROOT
BRANCH   1   2
ATOM      2  C   UNL     1       7.297  -5.936  22.161  0.00  0.00    +0.071 C 
BRANCH   2   4
ATOM      3  O   UNL     1       5.817  -4.565  20.850  0.00  0.00    -0.301 OA
ATOM      4  C   UNL     1       6.173  -5.689  21.189  0.00  0.00    +0.223 C 
ENDBRANCH   2   4
ENDBRANCH   1   2
BRANCH   1   5
ATOM      5  C   UNL     1       7.471  -5.047  24.512  0.00  0.00    +0.071 C 
BRANCH   5   6
ATOM      6  C   UNL     1       8.847  -5.199  25.115  0.00  0.00    +0.223 C 
ATOM      7  O   UNL     1       9.868  -4.705  24.647  0.00  0.00    -0.301 OA
ENDBRANCH   5   6
ENDBRANCH   1   5
TORSDOF 4
ENDMDL
MODEL 4
REMARK VINA RESULT:      -2.9      5.728      6.501
REMARK  Name = 
REMARK  4 active torsions:
REMARK  status: ('A' for Active; 'I' for Inactive)
REMARK    1  A    between atoms: C_2  and  C_3
REMARK    2  A    between atoms: C_3  and  C_4
REMARK    3  A    between atoms: C_4  and  C_5
REMARK    4  A    between atoms: C_5  and  C_6
REMARK                            x       y       z     vdW  Elec       q    Type
REMARK                         _______ _______ _______ _____ _____    ______ ____
ROOT
ATOM      1  C   UNL     1       7.517  -4.623  23.342  0.00  0.00    +0.014 C 
ENDROOT
BRANCH   1   2
ATOM      2  C   UNL     1       7.663  -5.060  24.794  0.00  0.00    +0.071 C 
BRANCH   2   4
ATOM      3  O   UNL     1      10.023  -4.590  24.753  0.00  0.00    -0.301 OA
ATOM      4  C   UNL     1       9.111  -5.328  25.112  0.00  0.00    +0.223 C 
ENDBRANCH   2   4
ENDBRANCH   1   2
BRANCH   1   5
ATOM      5  C   UNL     1       7.431  -5.822  22.404  0.00  0.00    +0.071 C 
BRANCH   5   6
ATOM      6  C   UNL     1       6.118  -5.879  21.663  0.00  0.00    +0.223 C 
ATOM      7  O   UNL     1       5.961  -5.520  20.501  0.00  0.00    -0.301 OA
ENDBRANCH   5   6
ENDBRANCH   1   5
TORSDOF 4
ENDMDL
MODEL 5
REMARK VINA RESULT:      -2.9      1.792      3.366
REMARK  Name = 
REMARK  4 active torsions:
REMARK  status: ('A' for Active; 'I' for Inactive)
REMARK    1  A    between atoms: C_2  and  C_3
REMARK    2  A    between atoms: C_3  and  C_4
REMARK    3  A    between atoms: C_4  and  C_5
REMARK    4  A    between atoms: C_5  and  C_6
REMARK                            x       y       z     vdW  Elec       q    Type
REMARK                         _______ _______ _______ _____ _____    ______ ____
ROOT
ATOM      1  C   UNL     1      10.654   0.303  24.234  0.00  0.00    +0.014 C 
ENDROOT
BRANCH   1   2
ATOM      2  C   UNL     1       9.668  -0.856  24.315  0.00  0.00    +0.071 C 
BRANCH   2   4
ATOM      3  O   UNL     1      10.554  -1.837  22.305  0.00  0.00    -0.301 OA
ATOM      4  C   UNL     1      10.132  -1.994  23.446  0.00  0.00    +0.223 C 
ENDBRANCH   2   4
ENDBRANCH   1   2
BRANCH   1   5
ATOM      5  C   UNL     1       9.987   1.566  23.701  0.00  0.00    +0.071 C 
BRANCH   5   6
ATOM      6  C   UNL     1      10.068   1.668  22.197  0.00  0.00    +0.223 C 
ATOM      7  O   UNL     1       9.290   1.120  21.422  0.00  0.00    -0.301 OA
ENDBRANCH   5   6
ENDBRANCH   1   5
TORSDOF 4
ENDMDL
MODEL 6
REMARK VINA RESULT:      -2.8      1.439      2.026
REMARK  Name = 
REMARK  4 active torsions:
REMARK  status: ('A' for Active; 'I' for Inactive)
REMARK    1  A    between atoms: C_2  and  C_3
REMARK    2  A    between atoms: C_3  and  C_4
REMARK    3  A    between atoms: C_4  and  C_5
REMARK    4  A    between atoms: C_5  and  C_6
REMARK                            x       y       z     vdW  Elec       q    Type
REMARK                         _______ _______ _______ _____ _____    ______ ____
ROOT
ATOM      1  C   UNL     1       9.619  -0.940  21.633  0.00  0.00    +0.014 C 
ENDROOT
BRANCH   1   2
ATOM      2  C   UNL     1       9.169   0.493  21.378  0.00  0.00    +0.071 C 
BRANCH   2   4
ATOM      3  O   UNL     1       9.740   1.966  23.193  0.00  0.00    -0.301 OA
ATOM      4  C   UNL     1      10.056   1.455  22.123  0.00  0.00    +0.223 C 
ENDBRANCH   2   4
ENDBRANCH   1   2
BRANCH   1   5
ATOM      5  C   UNL     1       8.879  -1.554  22.817  0.00  0.00    +0.071 C 
BRANCH   5   6
ATOM      6  C   UNL     1       9.821  -2.088  23.869  0.00  0.00    +0.223 C 
ATOM      7  O   UNL     1      10.169  -3.261  23.957  0.00  0.00    -0.301 OA
ENDBRANCH   5   6
ENDBRANCH   1   5
TORSDOF 4
ENDMDL
MODEL 7
REMARK VINA RESULT:      -2.7      1.857      2.233
REMARK  Name = 
REMARK  4 active torsions:
REMARK  status: ('A' for Active; 'I' for Inactive)
REMARK    1  A    between atoms: C_2  and  C_3
REMARK    2  A    between atoms: C_3  and  C_4
REMARK    3  A    between atoms: C_4  and  C_5
REMARK    4  A    between atoms: C_5  and  C_6
REMARK                            x       y       z     vdW  Elec       q    Type
REMARK                         _______ _______ _______ _____ _____    ______ ____
ROOT
ATOM      1  C   UNL     1       9.261   0.628  24.118  0.00  0.00    +0.014 C 
ENDROOT
BRANCH   1   2
ATOM      2  C   UNL     1      10.113   1.749  23.535  0.00  0.00    +0.071 C 
BRANCH   2   4
ATOM      3  O   UNL     1       9.135   1.155  21.418  0.00  0.00    -0.301 OA
ATOM      4  C   UNL     1      10.018   1.745  22.032  0.00  0.00    +0.223 C 
ENDBRANCH   2   4
ENDBRANCH   1   2
BRANCH   1   5
ATOM      5  C   UNL     1      10.103  -0.601  24.444  0.00  0.00    +0.071 C 
BRANCH   5   6
ATOM      6  C   UNL     1       9.926  -1.705  23.430  0.00  0.00    +0.223 C 
ATOM      7  O   UNL     1      10.617  -1.840  22.424  0.00  0.00    -0.301 OA
ENDBRANCH   5   6
ENDBRANCH   1   5
TORSDOF 4
ENDMDL
MODEL 8
REMARK VINA RESULT:      -2.7      2.267      3.677
REMARK  Name = 
REMARK  4 active torsions:
REMARK  status: ('A' for Active; 'I' for Inactive)
REMARK    1  A    between atoms: C_2  and  C_3
REMARK    2  A    between atoms: C_3  and  C_4
REMARK    3  A    between atoms: C_4  and  C_5
REMARK    4  A    between atoms: C_5  and  C_6
REMARK                            x       y       z     vdW  Elec       q    Type
REMARK                         _______ _______ _______ _____ _____    ______ ____
ROOT
ATOM      1  C   UNL     1       9.858   1.646  21.961  0.00  0.00    +0.014 C 
ENDROOT
BRANCH   1   2
ATOM      2  C   UNL     1      10.153   0.450  22.859  0.00  0.00    +0.071 C 
BRANCH   2   4
ATOM      3  O   UNL     1      10.593  -1.859  22.346  0.00  0.00    -0.301 OA
ATOM      4  C   UNL     1       9.971  -0.833  22.092  0.00  0.00    +0.223 C 
ENDBRANCH   2   4
ENDBRANCH   1   2
BRANCH   1   5
ATOM      5  C   UNL     1       8.396   1.672  21.530  0.00  0.00    +0.071 C 
BRANCH   5   6
ATOM      6  C   UNL     1       7.571   2.630  22.354  0.00  0.00    +0.223 C 
ATOM      7  O   UNL     1       7.331   3.790  22.034  0.00  0.00    -0.301 OA
ENDBRANCH   5   6
ENDBRANCH   1   5
TORSDOF 4
ENDMDL
MODEL 9
REMARK VINA RESULT:      -2.7      5.258      6.525
REMARK  Name = 
REMARK  4 active torsions:
REMARK  status: ('A' for Active; 'I' for Inactive)
REMARK    1  A    between atoms: C_2  and  C_3
REMARK    2  A    between atoms: C_3  and  C_4
REMARK    3  A    between atoms: C_4  and  C_5
REMARK    4  A    between atoms: C_5  and  C_6
REMARK                            x       y       z     vdW  Elec       q    Type
REMARK                         _______ _______ _______ _____ _____    ______ ____
ROOT
ATOM      1  C   UNL     1       6.963  -4.552  24.600  0.00  0.00    +0.014 C 
ENDROOT
BRANCH   1   2
ATOM      2  C   UNL     1       8.483  -4.605  24.512  0.00  0.00    +0.071 C 
BRANCH   2   4
ATOM      3  O   UNL     1      10.222  -3.043  23.938  0.00  0.00    -0.301 OA
ATOM      4  C   UNL     1       9.028  -3.254  24.129  0.00  0.00    +0.223 C 
ENDBRANCH   2   4
ENDBRANCH   1   2
BRANCH   1   5
ATOM      5  C   UNL     1       6.447  -5.326  25.808  0.00  0.00    +0.071 C 
BRANCH   5   6
ATOM      6  C   UNL     1       7.399  -5.267  26.978  0.00  0.00    +0.223 C 
ATOM      7  O   UNL     1       7.314  -5.974  27.977  0.00  0.00    -0.301 OA
ENDBRANCH   5   6
ENDBRANCH   1   5
TORSDOF 4
ENDMDL
