MODEL 1
REMARK VINA RESULT:      -4.5      0.000      0.000
REMARK  Name = 
REMARK  3 active torsions:
REMARK  status: ('A' for Active; 'I' for Inactive)
REMARK    1  A    between atoms: O_1  and  C_2
REMARK    2  A    between atoms: C_2  and  C_3
REMARK    3  A    between atoms: C_3  and  C_4
REMARK                            x       y       z     vdW  Elec       q    Type
REMARK                         _______ _______ _______ _____ _____    ______ ____
ROOT
ATOM      1  C   UNL     1      10.172  -0.449  22.953  0.00  0.00    -0.045 A 
ATOM      2  C   UNL     1       9.823   0.361  21.861  0.00  0.00    +0.006 A 
ATOM      3  C   UNL     1       9.878   1.751  21.969  0.00  0.00    +0.038 A 
ATOM      4  C   UNL     1      10.278   2.331  23.167  0.00  0.00    +0.123 A 
ATOM      5  F   UNL     1      10.332   3.666  23.269  0.00  0.00    -0.205 F 
ATOM      6  C   UNL     1      10.622   1.547  24.261  0.00  0.00    +0.038 A 
ATOM      7  C   UNL     1      10.568   0.156  24.156  0.00  0.00    +0.006 A 
ENDROOT
BRANCH   1   8
ATOM      8  C   UNL     1      10.105  -1.951  22.842  0.00  0.00    +0.063 C 
BRANCH   8   9
ATOM      9  C   UNL     1       9.398  -2.589  24.033  0.00  0.00    +0.160 C 
BRANCH   9  10
ATOM     10  O   UNL     1      10.029  -3.827  24.345  0.00  0.00    -0.395 OA
ATOM     11  H   UNL     1       9.516  -4.234  25.064  0.00  0.00    +0.209 HD
ENDBRANCH   9  10
ENDBRANCH   8   9
ENDBRANCH   1   8
TORSDOF 3
ENDMDL
MODEL 2
REMARK VINA RESULT:      -4.5      3.631      5.042
REMARK  Name = 
REMARK  3 active torsions:
REMARK  status: ('A' for Active; 'I' for Inactive)
REMARK    1  A    between atoms: O_1  and  C_2
REMARK    2  A    between atoms: C_2  and  C_3
REMARK    3  A    between atoms: C_3  and  C_4
REMARK                            x       y       z     vdW  Elec       q    Type
REMARK                         _______ _______ _______ _____ _____    ______ ____
ROOT
ATOM      1  C   UNL     1      10.292   2.166  23.290  0.00  0.00    -0.045 A 
ATOM      2  C   UNL     1      10.590   1.222  24.283  0.00  0.00    +0.006 A 
ATOM      3  C   UNL     1      10.499  -0.143  24.008  0.00  0.00    +0.038 A 
ATOM      4  C   UNL     1      10.105  -0.563  22.743  0.00  0.00    +0.123 A 
ATOM      5  F   UNL     1      10.019  -1.874  22.480  0.00  0.00    -0.205 F 
ATOM      6  C   UNL     1       9.799   0.357  21.748  0.00  0.00    +0.038 A 
ATOM      7  C   UNL     1       9.890   1.722  22.020  0.00  0.00    +0.006 A 
ENDROOT
BRANCH   1   8
ATOM      8  C   UNL     1      10.381   3.642  23.587  0.00  0.00    +0.063 C 
BRANCH   8   9
ATOM      9  C   UNL     1      11.771   4.206  23.311  0.00  0.00    +0.160 C 
BRANCH   9  10
ATOM     10  O   UNL     1      11.645   5.469  22.666  0.00  0.00    -0.395 OA
ATOM     11  H   UNL     1      10.991   5.361  21.955  0.00  0.00    +0.209 HD
ENDBRANCH   9  10
ENDBRANCH   8   9
ENDBRANCH   1   8
TORSDOF 3
ENDMDL
MODEL 3
REMARK VINA RESULT:      -4.4      4.323      5.879
REMARK  Name = 
REMARK  3 active torsions:
REMARK  status: ('A' for Active; 'I' for Inactive)
REMARK    1  A    between atoms: O_1  and  C_2
REMARK    2  A    between atoms: C_2  and  C_3
REMARK    3  A    between atoms: C_3  and  C_4
REMARK                            x       y       z     vdW  Elec       q    Type
REMARK                         _______ _______ _______ _____ _____    ______ ____
ROOT
ATOM      1  C   UNL     1      11.031   4.865  23.745  0.00  0.00    -0.045 A 
ATOM      2  C   UNL     1       9.786   5.265  24.252  0.00  0.00    +0.006 A 
ATOM      3  C   UNL     1       8.758   4.335  24.413  0.00  0.00    +0.038 A 
ATOM      4  C   UNL     1       8.974   3.007  24.064  0.00  0.00    +0.123 A 
ATOM      5  F   UNL     1       7.988   2.115  24.220  0.00  0.00    -0.205 F 
ATOM      6  C   UNL     1      10.198   2.592  23.554  0.00  0.00    +0.038 A 
ATOM      7  C   UNL     1      11.227   3.521  23.393  0.00  0.00    +0.006 A 
ENDROOT
BRANCH   1   8
ATOM      8  C   UNL     1      12.140   5.870  23.562  0.00  0.00    +0.063 C 
BRANCH   8   9
ATOM      9  C   UNL     1      13.146   5.436  22.501  0.00  0.00    +0.160 C 
BRANCH   9  10
ATOM     10  O   UNL     1      14.375   5.090  23.133  0.00  0.00    -0.395 OA
ATOM     11  H   UNL     1      14.233   4.240  23.584  0.00  0.00    +0.209 HD
ENDBRANCH   9  10
ENDBRANCH   8   9
ENDBRANCH   1   8
TORSDOF 3
ENDMDL
MODEL 4
REMARK VINA RESULT:      -4.3      6.695      7.416
REMARK  Name = 
REMARK  3 active torsions:
REMARK  status: ('A' for Active; 'I' for Inactive)
REMARK    1  A    between atoms: O_1  and  C_2
REMARK    2  A    between atoms: C_2  and  C_3
REMARK    3  A    between atoms: C_3  and  C_4
REMARK                            x       y       z     vdW  Elec       q    Type
REMARK                         _______ _______ _______ _____ _____    ______ ____
ROOT
ATOM      1  C   UNL     1       6.485  -5.111  24.372  0.00  0.00    -0.045 A 
ATOM      2  C   UNL     1       7.585  -5.168  23.503  0.00  0.00    +0.006 A 
ATOM      3  C   UNL     1       7.403  -5.479  22.156  0.00  0.00    +0.038 A 
ATOM      4  C   UNL     1       6.124  -5.738  21.677  0.00  0.00    +0.123 A 
ATOM      5  F   UNL     1       5.951  -6.036  20.383  0.00  0.00    -0.205 F 
ATOM      6  C   UNL     1       5.022  -5.694  22.523  0.00  0.00    +0.038 A 
ATOM      7  C   UNL     1       5.202  -5.382  23.871  0.00  0.00    +0.006 A 
ENDROOT
BRANCH   1   8
ATOM      8  C   UNL     1       6.679  -4.784  25.831  0.00  0.00    +0.063 C 
BRANCH   8   9
ATOM      9  C   UNL     1       8.017  -5.283  26.364  0.00  0.00    +0.160 C 
BRANCH   9  10
ATOM     10  O   UNL     1       7.810  -5.944  27.608  0.00  0.00    -0.395 OA
ATOM     11  H   UNL     1       8.301  -5.443  28.282  0.00  0.00    +0.209 HD
ENDBRANCH   9  10
ENDBRANCH   8   9
ENDBRANCH   1   8
TORSDOF 3
ENDMDL
MODEL 5
REMARK VINA RESULT:      -4.2      1.212      1.633
REMARK  Name = 
REMARK  3 active torsions:
REMARK  status: ('A' for Active; 'I' for Inactive)
REMARK    1  A    between atoms: O_1  and  C_2
REMARK    2  A    between atoms: C_2  and  C_3
REMARK    3  A    between atoms: C_3  and  C_4
REMARK                            x       y       z     vdW  Elec       q    Type
REMARK                         _______ _______ _______ _____ _____    ______ ____
ROOT
ATOM      1  C   UNL     1       9.399  -1.185  24.116  0.00  0.00    -0.045 A 
ATOM      2  C   UNL     1       9.130  -1.219  22.740  0.00  0.00    +0.006 A 
ATOM      3  C   UNL     1       9.490  -0.145  21.925  0.00  0.00    +0.038 A 
ATOM      4  C   UNL     1      10.115   0.963  22.486  0.00  0.00    +0.123 A 
ATOM      5  F   UNL     1      10.462   1.993  21.703  0.00  0.00    -0.205 F 
ATOM      6  C   UNL     1      10.384   1.018  23.848  0.00  0.00    +0.038 A 
ATOM      7  C   UNL     1      10.025  -0.055  24.665  0.00  0.00    +0.006 A 
ENDROOT
BRANCH   1   8
ATOM      8  C   UNL     1       9.002  -2.340  25.000  0.00  0.00    +0.063 C 
BRANCH   8   9
ATOM      9  C   UNL     1       8.950  -3.661  24.241  0.00  0.00    +0.160 C 
BRANCH   9  10
ATOM     10  O   UNL     1      10.033  -4.486  24.660  0.00  0.00    -0.395 OA
ATOM     11  H   UNL     1       9.721  -5.406  24.621  0.00  0.00    +0.209 HD
ENDBRANCH   9  10
ENDBRANCH   8   9
ENDBRANCH   1   8
TORSDOF 3
ENDMDL
MODEL 6
REMARK VINA RESULT:      -4.1      6.353      7.317
REMARK  Name = 
REMARK  3 active torsions:
REMARK  status: ('A' for Active; 'I' for Inactive)
REMARK    1  A    between atoms: O_1  and  C_2
REMARK    2  A    between atoms: C_2  and  C_3
REMARK    3  A    between atoms: C_3  and  C_4
REMARK                            x       y       z     vdW  Elec       q    Type
REMARK                         _______ _______ _______ _____ _____    ______ ____
ROOT
ATOM      1  C   UNL     1       6.707  -4.880  24.531  0.00  0.00    -0.045 A 
ATOM      2  C   UNL     1       5.536  -5.611  24.278  0.00  0.00    +0.006 A 
ATOM      3  C   UNL     1       5.236  -6.036  22.984  0.00  0.00    +0.038 A 
ATOM      4  C   UNL     1       6.103  -5.727  21.942  0.00  0.00    +0.123 A 
ATOM      5  F   UNL     1       5.815  -6.137  20.700  0.00  0.00    -0.205 F 
ATOM      6  C   UNL     1       7.264  -4.999  22.171  0.00  0.00    +0.038 A 
ATOM      7  C   UNL     1       7.566  -4.573  23.465  0.00  0.00    +0.006 A 
ENDROOT
BRANCH   1   8
ATOM      8  C   UNL     1       7.029  -4.411  25.927  0.00  0.00    +0.063 C 
BRANCH   8   9
ATOM      9  C   UNL     1       8.165  -5.208  26.559  0.00  0.00    +0.160 C 
BRANCH   9  10
ATOM     10  O   UNL     1       7.665  -5.931  27.680  0.00  0.00    -0.395 OA
ATOM     11  H   UNL     1       7.538  -6.851  27.392  0.00  0.00    +0.209 HD
ENDBRANCH   9  10
ENDBRANCH   8   9
ENDBRANCH   1   8
TORSDOF 3
ENDMDL
MODEL 7
REMARK VINA RESULT:      -4.1      4.258      5.593
REMARK  Name = 
REMARK  3 active torsions:
REMARK  status: ('A' for Active; 'I' for Inactive)
REMARK    1  A    between atoms: O_1  and  C_2
REMARK    2  A    between atoms: C_2  and  C_3
REMARK    3  A    between atoms: C_3  and  C_4
REMARK                            x       y       z     vdW  Elec       q    Type
REMARK                         _______ _______ _______ _____ _____    ______ ____
ROOT
ATOM      1  C   UNL     1       8.166   3.556  22.833  0.00  0.00    -0.045 A 
ATOM      2  C   UNL     1       7.568   2.689  21.907  0.00  0.00    +0.006 A 
ATOM      3  C   UNL     1       8.245   1.552  21.465  0.00  0.00    +0.038 A 
ATOM      4  C   UNL     1       9.522   1.284  21.946  0.00  0.00    +0.123 A 
ATOM      5  F   UNL     1      10.171   0.192  21.523  0.00  0.00    -0.205 F 
ATOM      6  C   UNL     1      10.135   2.133  22.859  0.00  0.00    +0.038 A 
ATOM      7  C   UNL     1       9.458   3.271  23.302  0.00  0.00    +0.006 A 
ENDROOT
BRANCH   1   8
ATOM      8  C   UNL     1       7.440   4.789  23.305  0.00  0.00    +0.063 C 
BRANCH   8   9
ATOM      9  C   UNL     1       7.992   6.064  22.676  0.00  0.00    +0.160 C 
BRANCH   9  10
ATOM     10  O   UNL     1       7.513   6.172  21.339  0.00  0.00    -0.395 OA
ATOM     11  H   UNL     1       8.194   5.787  20.761  0.00  0.00    +0.209 HD
ENDBRANCH   9  10
ENDBRANCH   8   9
ENDBRANCH   1   8
TORSDOF 3
ENDMDL
MODEL 8
REMARK VINA RESULT:      -4.0      3.447      4.447
REMARK  Name = 
REMARK  3 active torsions:
REMARK  status: ('A' for Active; 'I' for Inactive)
REMARK    1  A    between atoms: O_1  and  C_2
REMARK    2  A    between atoms: C_2  and  C_3
REMARK    3  A    between atoms: C_3  and  C_4
REMARK                            x       y       z     vdW  Elec       q    Type
REMARK                         _______ _______ _______ _____ _____    ______ ____
ROOT
ATOM      1  C   UNL     1       9.318   0.819  22.545  0.00  0.00    -0.045 A 
ATOM      2  C   UNL     1       9.510  -0.223  21.625  0.00  0.00    +0.006 A 
ATOM      3  C   UNL     1       9.879  -1.493  22.066  0.00  0.00    +0.038 A 
ATOM      4  C   UNL     1      10.061  -1.722  23.425  0.00  0.00    +0.123 A 
ATOM      5  F   UNL     1      10.414  -2.943  23.848  0.00  0.00    -0.205 F 
ATOM      6  C   UNL     1       9.882  -0.702  24.352  0.00  0.00    +0.038 A 
ATOM      7  C   UNL     1       9.512   0.570  23.912  0.00  0.00    +0.006 A 
ENDROOT
BRANCH   1   8
ATOM      8  C   UNL     1       8.927   2.196  22.070  0.00  0.00    +0.063 C 
BRANCH   8   9
ATOM      9  C   UNL     1       8.859   3.205  23.211  0.00  0.00    +0.160 C 
BRANCH   9  10
ATOM     10  O   UNL     1      10.022   4.026  23.181  0.00  0.00    -0.395 OA
ATOM     11  H   UNL     1       9.848   4.786  23.763  0.00  0.00    +0.209 HD
ENDBRANCH   9  10
ENDBRANCH   8   9
ENDBRANCH   1   8
TORSDOF 3
ENDMDL
MODEL 9
REMARK VINA RESULT:      -4.0      3.863      5.328
REMARK  Name = 
REMARK  3 active torsions:
REMARK  status: ('A' for Active; 'I' for Inactive)
REMARK    1  A    between atoms: O_1  and  C_2
REMARK    2  A    between atoms: C_2  and  C_3
REMARK    3  A    between atoms: C_3  and  C_4
REMARK                            x       y       z     vdW  Elec       q    Type
REMARK                         _______ _______ _______ _____ _____    ______ ____
ROOT
ATOM      1  C   UNL     1       9.228  -1.801  22.510  0.00  0.00    -0.045 A 
ATOM      2  C   UNL     1       9.962  -2.257  23.616  0.00  0.00    +0.006 A 
ATOM      3  C   UNL     1       9.495  -3.326  24.380  0.00  0.00    +0.038 A 
ATOM      4  C   UNL     1       8.292  -3.937  24.043  0.00  0.00    +0.123 A 
ATOM      5  F   UNL     1       7.845  -4.964  24.777  0.00  0.00    -0.205 F 
ATOM      6  C   UNL     1       7.547  -3.496  22.956  0.00  0.00    +0.038 A 
ATOM      7  C   UNL     1       8.013  -2.427  22.190  0.00  0.00    +0.006 A 
ENDROOT
BRANCH   1   8
ATOM      8  C   UNL     1       9.726  -0.640  21.688  0.00  0.00    +0.063 C 
BRANCH   8   9
ATOM      9  C   UNL     1       9.073   0.678  22.090  0.00  0.00    +0.160 C 
BRANCH   9  10
ATOM     10  O   UNL     1       8.779   1.433  20.919  0.00  0.00    -0.395 OA
ATOM     11  H   UNL     1       8.990   2.361  21.118  0.00  0.00    +0.209 HD
ENDBRANCH   9  10
ENDBRANCH   8   9
ENDBRANCH   1   8
TORSDOF 3
ENDMDL
