MODEL 1
REMARK VINA RESULT:      -5.1      0.000      0.000
REMARK  Name = 
REMARK  3 active torsions:
REMARK  status: ('A' for Active; 'I' for Inactive)
REMARK    1  A    between atoms: N_4  and  C_5
REMARK    2  A    between atoms: C_8  and  C_9
REMARK    3  A    between atoms: C_9  and  O_10
REMARK                            x       y       z     vdW  Elec       q    Type
REMARK                         _______ _______ _______ _____ _____    ______ ____
ROOT
ATOM      1  C   UNL     1       8.783  -2.663  24.350  0.00  0.00    +0.100 A 
ATOM      2  C   UNL     1       8.652  -2.688  22.959  0.00  0.00    +0.042 A 
ATOM      3  C   UNL     1       9.027  -1.593  22.170  0.00  0.00    +0.009 A 
ATOM      4  C   UNL     1       9.585  -0.451  22.753  0.00  0.00    -0.022 A 
ATOM      5  C   UNL     1       9.758  -0.432  24.142  0.00  0.00    +0.009 A 
ATOM      6  C   UNL     1       9.375  -1.529  24.925  0.00  0.00    +0.042 A 
ENDROOT
BRANCH   1  11
ATOM      7  N   UNL     1       8.438  -5.690  26.293  0.00  0.00    -0.289 N 
ATOM      8  H   UNL     1       7.917  -5.202  27.014  0.00  0.00    +0.255 HD
ATOM      9  H   UNL     1       9.011  -6.416  26.706  0.00  0.00    +0.255 HD
ATOM     10  C   UNL     1       9.113  -4.858  25.464  0.00  0.00    +0.381 C 
ATOM     11  N   UNL     1       8.391  -3.735  25.181  0.00  0.00    -0.244 N 
ATOM     12  H   UNL     1       7.393  -3.885  25.189  0.00  0.00    +0.265 HD
ATOM     13  N   UNL     1      10.282  -5.172  25.035  0.00  0.00    -0.129 NA
ATOM     14  H   UNL     1      10.555  -6.091  25.378  0.00  0.00    +0.306 HD
ENDBRANCH   1  11
BRANCH   4  15
ATOM     15  C   UNL     1       9.909   0.769  21.930  0.00  0.00    +0.191 C 
BRANCH  15  16
ATOM     16  O   UNL     1       8.880   1.079  20.999  0.00  0.00    -0.390 OA
ATOM     17  H   UNL     1       8.706   0.267  20.492  0.00  0.00    +0.210 HD
ENDBRANCH  15  16
ENDBRANCH   4  15
TORSDOF 3
ENDMDL
MODEL 2
REMARK VINA RESULT:      -5.1      5.069      6.663
REMARK  Name = 
REMARK  3 active torsions:
REMARK  status: ('A' for Active; 'I' for Inactive)
REMARK    1  A    between atoms: N_4  and  C_5
REMARK    2  A    between atoms: C_8  and  C_9
REMARK    3  A    between atoms: C_9  and  O_10
REMARK                            x       y       z     vdW  Elec       q    Type
REMARK                         _______ _______ _______ _____ _____    ______ ____
ROOT
ATOM      1  C   UNL     1      10.111   2.426  23.194  0.00  0.00    +0.100 A 
ATOM      2  C   UNL     1      10.533   1.616  24.251  0.00  0.00    +0.042 A 
ATOM      3  C   UNL     1      10.578   0.222  24.132  0.00  0.00    +0.009 A 
ATOM      4  C   UNL     1      10.237  -0.403  22.927  0.00  0.00    -0.022 A 
ATOM      5  C   UNL     1       9.851   0.402  21.849  0.00  0.00    +0.009 A 
ATOM      6  C   UNL     1       9.803   1.797  21.978  0.00  0.00    +0.042 A 
ENDROOT
BRANCH   1  11
ATOM      7  N   UNL     1      10.633   5.994  23.427  0.00  0.00    -0.289 N 
ATOM      8  H   UNL     1       9.812   6.180  22.861  0.00  0.00    +0.255 HD
ATOM      9  H   UNL     1      11.349   6.687  23.244  0.00  0.00    +0.255 HD
ATOM     10  C   UNL     1      11.066   4.714  23.336  0.00  0.00    +0.381 C 
ATOM     11  N   UNL     1      10.026   3.833  23.284  0.00  0.00    -0.244 N 
ATOM     12  H   UNL     1       9.206   4.148  23.780  0.00  0.00    +0.265 HD
ATOM     13  N   UNL     1      12.324   4.451  23.318  0.00  0.00    -0.129 NA
ATOM     14  H   UNL     1      12.870   5.305  23.413  0.00  0.00    +0.306 HD
ENDBRANCH   1  11
BRANCH   4  15
ATOM     15  C   UNL     1      10.192  -1.904  22.810  0.00  0.00    +0.191 C 
BRANCH  15  16
ATOM     16  O   UNL     1       9.897  -2.532  24.052  0.00  0.00    -0.390 OA
ATOM     17  H   UNL     1       9.996  -1.852  24.740  0.00  0.00    +0.210 HD
ENDBRANCH  15  16
ENDBRANCH   4  15
TORSDOF 3
ENDMDL
MODEL 3
REMARK VINA RESULT:      -4.9      5.051      6.633
REMARK  Name = 
REMARK  3 active torsions:
REMARK  status: ('A' for Active; 'I' for Inactive)
REMARK    1  A    between atoms: N_4  and  C_5
REMARK    2  A    between atoms: C_8  and  C_9
REMARK    3  A    between atoms: C_9  and  O_10
REMARK                            x       y       z     vdW  Elec       q    Type
REMARK                         _______ _______ _______ _____ _____    ______ ____
ROOT
ATOM      1  C   UNL     1       8.980   2.532  22.838  0.00  0.00    +0.100 A 
ATOM      2  C   UNL     1       8.978   2.084  24.161  0.00  0.00    +0.042 A 
ATOM      3  C   UNL     1       9.329   0.769  24.488  0.00  0.00    +0.009 A 
ATOM      4  C   UNL     1       9.734  -0.130  23.496  0.00  0.00    -0.022 A 
ATOM      5  C   UNL     1       9.778   0.321  22.171  0.00  0.00    +0.009 A 
ATOM      6  C   UNL     1       9.419   1.637  21.851  0.00  0.00    +0.042 A 
ENDROOT
BRANCH   1  11
ATOM      7  N   UNL     1       7.357   5.580  21.775  0.00  0.00    -0.289 N 
ATOM      8  H   UNL     1       7.920   6.136  22.409  0.00  0.00    +0.255 HD
ATOM      9  H   UNL     1       6.428   5.977  21.693  0.00  0.00    +0.255 HD
ATOM     10  C   UNL     1       7.369   4.258  22.066  0.00  0.00    +0.381 C 
ATOM     11  N   UNL     1       8.606   3.842  22.466  0.00  0.00    -0.244 N 
ATOM     12  H   UNL     1       9.361   4.365  22.048  0.00  0.00    +0.265 HD
ATOM     13  N   UNL     1       6.302   3.552  21.943  0.00  0.00    -0.129 NA
ATOM     14  H   UNL     1       5.536   4.121  21.586  0.00  0.00    +0.306 HD
ENDBRANCH   1  11
BRANCH   4  15
ATOM     15  C   UNL     1      10.027  -1.572  23.818  0.00  0.00    +0.191 C 
BRANCH  15  16
ATOM     16  O   UNL     1      10.567  -2.274  22.706  0.00  0.00    -0.390 OA
ATOM     17  H   UNL     1      11.326  -2.784  23.037  0.00  0.00    +0.210 HD
ENDBRANCH  15  16
ENDBRANCH   4  15
TORSDOF 3
ENDMDL
MODEL 4
REMARK VINA RESULT:      -4.9      2.645      3.162
REMARK  Name = 
REMARK  3 active torsions:
REMARK  status: ('A' for Active; 'I' for Inactive)
REMARK    1  A    between atoms: N_4  and  C_5
REMARK    2  A    between atoms: C_8  and  C_9
REMARK    3  A    between atoms: C_9  and  O_10
REMARK                            x       y       z     vdW  Elec       q    Type
REMARK                         _______ _______ _______ _____ _____    ______ ____
ROOT
ATOM      1  C   UNL     1       7.954  -2.077  22.515  0.00  0.00    +0.100 A 
ATOM      2  C   UNL     1       7.118  -1.096  23.053  0.00  0.00    +0.042 A 
ATOM      3  C   UNL     1       7.395   0.267  22.894  0.00  0.00    +0.009 A 
ATOM      4  C   UNL     1       8.504   0.689  22.152  0.00  0.00    -0.022 A 
ATOM      5  C   UNL     1       9.325  -0.287  21.576  0.00  0.00    +0.009 A 
ATOM      6  C   UNL     1       9.045  -1.649  21.744  0.00  0.00    +0.042 A 
ENDROOT
BRANCH   1  11
ATOM      7  N   UNL     1       6.794  -5.499  22.473  0.00  0.00    -0.289 N 
ATOM      8  H   UNL     1       7.743  -5.852  22.541  0.00  0.00    +0.255 HD
ATOM      9  H   UNL     1       6.229  -6.120  21.906  0.00  0.00    +0.255 HD
ATOM     10  C   UNL     1       6.732  -4.199  22.099  0.00  0.00    +0.381 C 
ATOM     11  N   UNL     1       7.724  -3.461  22.677  0.00  0.00    -0.244 N 
ATOM     12  H   UNL     1       8.007  -3.806  23.582  0.00  0.00    +0.265 HD
ATOM     13  N   UNL     1       5.810  -3.793  21.302  0.00  0.00    -0.129 NA
ATOM     14  H   UNL     1       5.182  -4.557  21.062  0.00  0.00    +0.306 HD
ENDBRANCH   1  11
BRANCH   4  15
ATOM     15  C   UNL     1       8.867   2.148  22.049  0.00  0.00    +0.191 C 
BRANCH  15  16
ATOM     16  O   UNL     1      10.211   2.339  21.627  0.00  0.00    -0.390 OA
ATOM     17  H   UNL     1      10.680   1.504  21.797  0.00  0.00    +0.210 HD
ENDBRANCH  15  16
ENDBRANCH   4  15
TORSDOF 3
ENDMDL
MODEL 5
REMARK VINA RESULT:      -4.8      3.960      5.442
REMARK  Name = 
REMARK  3 active torsions:
REMARK  status: ('A' for Active; 'I' for Inactive)
REMARK    1  A    between atoms: N_4  and  C_5
REMARK    2  A    between atoms: C_8  and  C_9
REMARK    3  A    between atoms: C_9  and  O_10
REMARK                            x       y       z     vdW  Elec       q    Type
REMARK                         _______ _______ _______ _____ _____    ______ ____
ROOT
ATOM      1  C   UNL     1       9.778  -0.735  23.920  0.00  0.00    +0.100 A 
ATOM      2  C   UNL     1       9.911  -2.052  23.472  0.00  0.00    +0.042 A 
ATOM      3  C   UNL     1       9.486  -3.135  24.251  0.00  0.00    +0.009 A 
ATOM      4  C   UNL     1       8.873  -2.925  25.491  0.00  0.00    -0.022 A 
ATOM      5  C   UNL     1       8.700  -1.608  25.931  0.00  0.00    +0.009 A 
ATOM      6  C   UNL     1       9.134  -0.529  25.149  0.00  0.00    +0.042 A 
ENDROOT
BRANCH   1  11
ATOM      7  N   UNL     1      10.223   2.113  21.740  0.00  0.00    -0.289 N 
ATOM      8  H   UNL     1      10.842   2.562  22.406  0.00  0.00    +0.255 HD
ATOM      9  H   UNL     1       9.673   2.808  21.249  0.00  0.00    +0.255 HD
ATOM     10  C   UNL     1       9.491   1.110  22.282  0.00  0.00    +0.381 C 
ATOM     11  N   UNL     1      10.220   0.382  23.177  0.00  0.00    -0.244 N 
ATOM     12  H   UNL     1      11.206   0.349  22.961  0.00  0.00    +0.265 HD
ATOM     13  N   UNL     1       8.268   0.932  21.931  0.00  0.00    -0.129 NA
ATOM     14  H   UNL     1       8.000   1.602  21.213  0.00  0.00    +0.306 HD
ENDBRANCH   1  11
BRANCH   4  15
ATOM     15  C   UNL     1       8.493  -4.081  26.381  0.00  0.00    +0.191 C 
BRANCH  15  16
ATOM     16  O   UNL     1       9.624  -4.839  26.791  0.00  0.00    -0.390 OA
ATOM     17  H   UNL     1      10.306  -4.717  26.108  0.00  0.00    +0.210 HD
ENDBRANCH  15  16
ENDBRANCH   4  15
TORSDOF 3
ENDMDL
MODEL 6
REMARK VINA RESULT:      -4.8      2.898      3.740
REMARK  Name = 
REMARK  3 active torsions:
REMARK  status: ('A' for Active; 'I' for Inactive)
REMARK    1  A    between atoms: N_4  and  C_5
REMARK    2  A    between atoms: C_8  and  C_9
REMARK    3  A    between atoms: C_9  and  O_10
REMARK                            x       y       z     vdW  Elec       q    Type
REMARK                         _______ _______ _______ _____ _____    ______ ____
ROOT
ATOM      1  C   UNL     1       9.175  -0.652  22.752  0.00  0.00    +0.100 A 
ATOM      2  C   UNL     1       9.573  -0.250  24.030  0.00  0.00    +0.042 A 
ATOM      3  C   UNL     1      10.136   1.011  24.257  0.00  0.00    +0.009 A 
ATOM      4  C   UNL     1      10.280   1.928  23.210  0.00  0.00    -0.022 A 
ATOM      5  C   UNL     1       9.847   1.550  21.934  0.00  0.00    +0.009 A 
ATOM      6  C   UNL     1       9.290   0.283  21.713  0.00  0.00    +0.042 A 
ENDROOT
BRANCH   1  11
ATOM      7  N   UNL     1       7.135  -3.587  22.223  0.00  0.00    -0.289 N 
ATOM      8  H   UNL     1       7.729  -3.899  21.462  0.00  0.00    +0.255 HD
ATOM      9  H   UNL     1       6.171  -3.839  22.039  0.00  0.00    +0.255 HD
ATOM     10  C   UNL     1       7.314  -2.283  22.542  0.00  0.00    +0.381 C 
ATOM     11  N   UNL     1       8.629  -1.926  22.478  0.00  0.00    -0.244 N 
ATOM     12  H   UNL     1       9.263  -2.682  22.690  0.00  0.00    +0.265 HD
ATOM     13  N   UNL     1       6.311  -1.547  22.866  0.00  0.00    -0.129 NA
ATOM     14  H   UNL     1       5.452  -2.093  22.868  0.00  0.00    +0.306 HD
ENDBRANCH   1  11
BRANCH   4  15
ATOM     15  C   UNL     1      10.966   3.253  23.419  0.00  0.00    +0.191 C 
BRANCH  15  16
ATOM     16  O   UNL     1      10.082   4.351  23.238  0.00  0.00    -0.390 OA
ATOM     17  H   UNL     1       9.183   3.983  23.197  0.00  0.00    +0.210 HD
ENDBRANCH  15  16
ENDBRANCH   4  15
TORSDOF 3
ENDMDL
MODEL 7
REMARK VINA RESULT:      -4.8      5.617      6.753
REMARK  Name = 
REMARK  3 active torsions:
REMARK  status: ('A' for Active; 'I' for Inactive)
REMARK    1  A    between atoms: N_4  and  C_5
REMARK    2  A    between atoms: C_8  and  C_9
REMARK    3  A    between atoms: C_9  and  O_10
REMARK                            x       y       z     vdW  Elec       q    Type
REMARK                         _______ _______ _______ _____ _____    ______ ____
ROOT
ATOM      1  C   UNL     1       9.163   3.440  23.496  0.00  0.00    +0.100 A 
ATOM      2  C   UNL     1       9.111   4.825  23.671  0.00  0.00    +0.042 A 
ATOM      3  C   UNL     1      10.275   5.600  23.720  0.00  0.00    +0.009 A 
ATOM      4  C   UNL     1      11.533   5.010  23.552  0.00  0.00    -0.022 A 
ATOM      5  C   UNL     1      11.593   3.629  23.336  0.00  0.00    +0.009 A 
ATOM      6  C   UNL     1      10.424   2.859  23.295  0.00  0.00    +0.042 A 
ENDROOT
BRANCH   1  11
ATOM      7  N   UNL     1       6.408   1.234  22.721  0.00  0.00    -0.289 N 
ATOM      8  H   UNL     1       6.424   0.838  23.655  0.00  0.00    +0.255 HD
ATOM      9  H   UNL     1       6.148   0.525  22.046  0.00  0.00    +0.255 HD
ATOM     10  C   UNL     1       7.539   1.909  22.406  0.00  0.00    +0.381 C 
ATOM     11  N   UNL     1       8.013   2.621  23.470  0.00  0.00    -0.244 N 
ATOM     12  H   UNL     1       7.289   2.935  24.098  0.00  0.00    +0.265 HD
ATOM     13  N   UNL     1       8.032   1.840  21.221  0.00  0.00    -0.129 NA
ATOM     14  H   UNL     1       7.443   1.265  20.622  0.00  0.00    +0.306 HD
ENDBRANCH   1  11
BRANCH   4  15
ATOM     15  C   UNL     1      12.799   5.815  23.692  0.00  0.00    +0.191 C 
BRANCH  15  16
ATOM     16  O   UNL     1      13.944   5.099  23.246  0.00  0.00    -0.390 OA
ATOM     17  H   UNL     1      13.619   4.280  22.833  0.00  0.00    +0.210 HD
ENDBRANCH  15  16
ENDBRANCH   4  15
TORSDOF 3
ENDMDL
MODEL 8
REMARK VINA RESULT:      -4.7      4.026      5.403
REMARK  Name = 
REMARK  3 active torsions:
REMARK  status: ('A' for Active; 'I' for Inactive)
REMARK    1  A    between atoms: N_4  and  C_5
REMARK    2  A    between atoms: C_8  and  C_9
REMARK    3  A    between atoms: C_9  and  O_10
REMARK                            x       y       z     vdW  Elec       q    Type
REMARK                         _______ _______ _______ _____ _____    ______ ____
ROOT
ATOM      1  C   UNL     1       9.133  -0.043  23.744  0.00  0.00    +0.100 A 
ATOM      2  C   UNL     1       7.816  -0.369  23.410  0.00  0.00    +0.042 A 
ATOM      3  C   UNL     1       7.395  -1.700  23.312  0.00  0.00    +0.009 A 
ATOM      4  C   UNL     1       8.278  -2.750  23.589  0.00  0.00    -0.022 A 
ATOM      5  C   UNL     1       9.589  -2.433  23.963  0.00  0.00    +0.009 A 
ATOM      6  C   UNL     1      10.004  -1.098  24.053  0.00  0.00    +0.042 A 
ENDROOT
BRANCH   1  11
ATOM      7  N   UNL     1      10.328   3.326  23.213  0.00  0.00    -0.289 N 
ATOM      8  H   UNL     1       9.834   3.661  24.033  0.00  0.00    +0.255 HD
ATOM      9  H   UNL     1      10.340   4.041  22.495  0.00  0.00    +0.255 HD
ATOM     10  C   UNL     1       9.893   2.118  22.783  0.00  0.00    +0.381 C 
ATOM     11  N   UNL     1       9.603   1.287  23.826  0.00  0.00    -0.244 N 
ATOM     12  H   UNL     1      10.166   1.458  24.646  0.00  0.00    +0.265 HD
ATOM     13  N   UNL     1       9.805   1.866  21.526  0.00  0.00    -0.129 NA
ATOM     14  H   UNL     1      10.128   2.661  20.978  0.00  0.00    +0.306 HD
ENDBRANCH   1  11
BRANCH   4  15
ATOM     15  C   UNL     1       7.867  -4.188  23.400  0.00  0.00    +0.191 C 
BRANCH  15  16
ATOM     16  O   UNL     1       8.765  -5.091  24.032  0.00  0.00    -0.390 OA
ATOM     17  H   UNL     1       8.226  -5.683  24.583  0.00  0.00    +0.210 HD
ENDBRANCH  15  16
ENDBRANCH   4  15
TORSDOF 3
ENDMDL
MODEL 9
REMARK VINA RESULT:      -4.5      3.355      4.808
REMARK  Name = 
REMARK  3 active torsions:
REMARK  status: ('A' for Active; 'I' for Inactive)
REMARK    1  A    between atoms: N_4  and  C_5
REMARK    2  A    between atoms: C_8  and  C_9
REMARK    3  A    between atoms: C_9  and  O_10
REMARK                            x       y       z     vdW  Elec       q    Type
REMARK                         _______ _______ _______ _____ _____    ______ ____
ROOT
ATOM      1  C   UNL     1       9.283  -2.253  23.745  0.00  0.00    +0.100 A 
ATOM      2  C   UNL     1       9.340  -3.435  24.488  0.00  0.00    +0.042 A 
ATOM      3  C   UNL     1       8.496  -4.516  24.206  0.00  0.00    +0.009 A 
ATOM      4  C   UNL     1       7.594  -4.459  23.139  0.00  0.00    -0.022 A 
ATOM      5  C   UNL     1       7.558  -3.294  22.364  0.00  0.00    +0.009 A 
ATOM      6  C   UNL     1       8.401  -2.213  22.655  0.00  0.00    +0.042 A 
ENDROOT
BRANCH   1  11
ATOM      7  N   UNL     1      10.890   0.733  24.993  0.00  0.00    -0.289 N 
ATOM      8  H   UNL     1      11.807   0.377  24.747  0.00  0.00    +0.255 HD
ATOM      9  H   UNL     1      10.945   1.290  25.838  0.00  0.00    +0.255 HD
ATOM     10  C   UNL     1       9.934  -0.225  25.024  0.00  0.00    +0.381 C 
ATOM     11  N   UNL     1      10.097  -1.131  24.016  0.00  0.00    -0.244 N 
ATOM     12  H   UNL     1      10.519  -0.739  23.187  0.00  0.00    +0.265 HD
ATOM     13  N   UNL     1       9.015  -0.202  25.922  0.00  0.00    -0.129 NA
ATOM     14  H   UNL     1       9.119   0.615  26.520  0.00  0.00    +0.306 HD
ENDBRANCH   1  11
BRANCH   4  15
ATOM     15  C   UNL     1       6.617  -5.577  22.879  0.00  0.00    +0.191 C 
BRANCH  15  16
ATOM     16  O   UNL     1       6.688  -6.053  21.541  0.00  0.00    -0.390 OA
ATOM     17  H   UNL     1       6.171  -6.876  21.509  0.00  0.00    +0.210 HD
ENDBRANCH  15  16
ENDBRANCH   4  15
TORSDOF 3
ENDMDL
