MODEL 1
REMARK VINA RESULT:      -6.9      0.000      0.000
REMARK  Name = 
REMARK  8 active torsions:
REMARK  status: ('A' for Active; 'I' for Inactive)
REMARK    1  A    between atoms: C_2  and  C_22
REMARK    2  A    between atoms: N_3  and  S_11
REMARK    3  A    between atoms: C_8  and  C_9
REMARK    4  A    between atoms: C_8  and  C_10
REMARK    5  A    between atoms: S_11  and  C_14
REMARK    6  A    between atoms: C_17  and  O_18
REMARK    7  A    between atoms: O_18  and  C_19
REMARK    8  A    between atoms: N_24  and  O_25
REMARK                            x       y       z     vdW  Elec       q    Type
REMARK                         _______ _______ _______ _____ _____    ______ ____
ROOT
ATOM      1  C   UNL     1       6.029  -4.342  25.226  0.00  0.00    +0.183 C 
ATOM      2  C   UNL     1       5.821  -5.236  23.950  0.00  0.00    +0.037 C 
ATOM      3  C   UNL     1       5.130  -6.576  24.291  0.00  0.00    +0.024 C 
ATOM      4  C   UNL     1       7.067  -5.586  23.124  0.00  0.00    +0.024 C 
ATOM      5  S   UNL     1       4.572  -4.372  22.846  0.00  0.00    -0.152 S 
ATOM      6  C   UNL     1       5.551  -3.090  22.006  0.00  0.00    +0.071 C 
ATOM      7  C   UNL     1       6.446  -2.126  22.789  0.00  0.00    +0.028 C 
ATOM      8  C   UNL     1       6.262  -2.019  24.298  0.00  0.00    +0.111 C 
ATOM      9  N   UNL     1       6.902  -3.153  24.997  0.00  0.00    -0.163 NA
ENDROOT
BRANCH   1  10
ATOM     10  C   UNL     1       6.280  -5.032  26.569  0.00  0.00    +0.256 C 
ATOM     11  N   UNL     1       7.409  -5.793  26.707  0.00  0.00    -0.196 N 
ATOM     12  H   UNL     1       8.259  -5.552  26.192  0.00  0.00    +0.182 HD
ATOM     13  O   UNL     1       5.506  -4.893  27.526  0.00  0.00    -0.272 OA
BRANCH  11  14
ATOM     14  O   UNL     1       7.603  -6.296  28.023  0.00  0.00    -0.295 OA
ATOM     15  H   UNL     1       6.695  -6.576  28.283  0.00  0.00    +0.241 HD
ENDBRANCH  11  14
ENDBRANCH   1  10
BRANCH   9  16
ATOM     16  S   UNL     1       8.574  -3.177  25.205  0.00  0.00    +0.062 S 
ATOM     17  O   UNL     1       9.138  -4.196  24.350  0.00  0.00    -0.153 OA
ATOM     18  O   UNL     1       8.805  -3.189  26.637  0.00  0.00    -0.153 OA
BRANCH  16  19
ATOM     19  C   UNL     1       9.235  -1.634  24.635  0.00  0.00    +0.106 A 
ATOM     20  C   UNL     1       9.916  -1.536  23.424  0.00  0.00    +0.032 A 
ATOM     21  C   UNL     1      10.522  -0.319  23.072  0.00  0.00    +0.047 A 
ATOM     22  C   UNL     1      10.446   0.787  23.927  0.00  0.00    +0.120 A 
ATOM     23  C   UNL     1       9.757   0.677  25.133  0.00  0.00    +0.047 A 
ATOM     24  C   UNL     1       9.166  -0.530  25.496  0.00  0.00    +0.032 A 
BRANCH  22  25
ATOM     25  O   UNL     1      10.951   2.030  23.672  0.00  0.00    -0.495 OA
ATOM     26  C   UNL     1      10.029   3.110  23.726  0.00  0.00    +0.277 C 
ENDBRANCH  22  25
ENDBRANCH  16  19
ENDBRANCH   9  16
TORSDOF 5
ENDMDL
MODEL 2
REMARK VINA RESULT:      -6.8      2.116      2.682
REMARK  Name = 
REMARK  8 active torsions:
REMARK  status: ('A' for Active; 'I' for Inactive)
REMARK    1  A    between atoms: C_2  and  C_22
REMARK    2  A    between atoms: N_3  and  S_11
REMARK    3  A    between atoms: C_8  and  C_9
REMARK    4  A    between atoms: C_8  and  C_10
REMARK    5  A    between atoms: S_11  and  C_14
REMARK    6  A    between atoms: C_17  and  O_18
REMARK    7  A    between atoms: O_18  and  C_19
REMARK    8  A    between atoms: N_24  and  O_25
REMARK                            x       y       z     vdW  Elec       q    Type
REMARK                         _______ _______ _______ _____ _____    ______ ____
ROOT
ATOM      1  C   UNL     1       7.508  -3.479  25.011  0.00  0.00    +0.183 C 
ATOM      2  C   UNL     1       6.013  -3.488  24.524  0.00  0.00    +0.037 C 
ATOM      3  C   UNL     1       5.392  -4.903  24.592  0.00  0.00    +0.024 C 
ATOM      4  C   UNL     1       5.728  -2.954  23.113  0.00  0.00    +0.024 C 
ATOM      5  S   UNL     1       5.002  -2.511  25.768  0.00  0.00    -0.152 S 
ATOM      6  C   UNL     1       5.324  -0.778  25.321  0.00  0.00    +0.071 C 
ATOM      7  C   UNL     1       6.749  -0.249  25.141  0.00  0.00    +0.028 C 
ATOM      8  C   UNL     1       7.911  -1.086  25.662  0.00  0.00    +0.111 C 
ATOM      9  N   UNL     1       8.225  -2.198  24.741  0.00  0.00    -0.163 NA
ENDROOT
BRANCH   1  10
ATOM     10  C   UNL     1       8.365  -4.722  24.761  0.00  0.00    +0.256 C 
ATOM     11  N   UNL     1       9.114  -5.213  25.797  0.00  0.00    -0.196 N 
ATOM     12  H   UNL     1       8.789  -5.113  26.761  0.00  0.00    +0.182 HD
ATOM     13  O   UNL     1       8.371  -5.298  23.665  0.00  0.00    -0.272 OA
BRANCH  11  14
ATOM     14  O   UNL     1       9.784  -6.430  25.491  0.00  0.00    -0.295 OA
ATOM     15  H   UNL     1       9.209  -7.106  25.918  0.00  0.00    +0.241 HD
ENDBRANCH  11  14
ENDBRANCH   1  10
BRANCH   9  16
ATOM     16  S   UNL     1       9.082  -1.898  23.321  0.00  0.00    +0.062 S 
ATOM     17  O   UNL     1       8.201  -2.094  22.192  0.00  0.00    -0.153 OA
ATOM     18  O   UNL     1      10.328  -2.631  23.436  0.00  0.00    -0.153 OA
BRANCH  16  19
ATOM     19  C   UNL     1       9.543  -0.186  23.294  0.00  0.00    +0.106 A 
ATOM     20  C   UNL     1       9.042   0.688  22.332  0.00  0.00    +0.032 A 
ATOM     21  C   UNL     1       9.529   2.004  22.280  0.00  0.00    +0.047 A 
ATOM     22  C   UNL     1      10.507   2.438  23.182  0.00  0.00    +0.120 A 
ATOM     23  C   UNL     1      10.995   1.554  24.143  0.00  0.00    +0.047 A 
ATOM     24  C   UNL     1      10.530   0.244  24.192  0.00  0.00    +0.032 A 
BRANCH  22  25
ATOM     25  O   UNL     1      11.018   3.702  23.261  0.00  0.00    -0.495 OA
ATOM     26  C   UNL     1      10.161   4.699  23.801  0.00  0.00    +0.277 C 
ENDBRANCH  22  25
ENDBRANCH  16  19
ENDBRANCH   9  16
TORSDOF 5
ENDMDL
MODEL 3
REMARK VINA RESULT:      -6.7      2.414      3.045
REMARK  Name = 
REMARK  8 active torsions:
REMARK  status: ('A' for Active; 'I' for Inactive)
REMARK    1  A    between atoms: C_2  and  C_22
REMARK    2  A    between atoms: N_3  and  S_11
REMARK    3  A    between atoms: C_8  and  C_9
REMARK    4  A    between atoms: C_8  and  C_10
REMARK    5  A    between atoms: S_11  and  C_14
REMARK    6  A    between atoms: C_17  and  O_18
REMARK    7  A    between atoms: O_18  and  C_19
REMARK    8  A    between atoms: N_24  and  O_25
REMARK                            x       y       z     vdW  Elec       q    Type
REMARK                         _______ _______ _______ _____ _____    ______ ____
ROOT
ATOM      1  C   UNL     1       7.177  -2.527  24.844  0.00  0.00    +0.183 C 
ATOM      2  C   UNL     1       7.297  -4.008  25.354  0.00  0.00    +0.037 C 
ATOM      3  C   UNL     1       7.050  -4.117  26.876  0.00  0.00    +0.024 C 
ATOM      4  C   UNL     1       8.612  -4.747  25.071  0.00  0.00    +0.024 C 
ATOM      5  S   UNL     1       5.872  -4.982  24.614  0.00  0.00    -0.152 S 
ATOM      6  C   UNL     1       6.423  -5.334  22.917  0.00  0.00    +0.071 C 
ATOM      7  C   UNL     1       6.949  -4.226  22.000  0.00  0.00    +0.028 C 
ATOM      8  C   UNL     1       6.697  -2.774  22.390  0.00  0.00    +0.111 C 
ATOM      9  N   UNL     1       7.640  -2.330  23.438  0.00  0.00    -0.163 NA
ENDROOT
BRANCH   1  10
ATOM     10  C   UNL     1       7.593  -1.394  25.786  0.00  0.00    +0.256 C 
ATOM     11  N   UNL     1       8.707  -1.572  26.562  0.00  0.00    -0.196 N 
ATOM     12  H   UNL     1       9.483  -2.147  26.227  0.00  0.00    +0.182 HD
ATOM     13  O   UNL     1       6.967  -0.327  25.835  0.00  0.00    -0.272 OA
BRANCH  11  14
ATOM     14  O   UNL     1       9.068  -0.420  27.316  0.00  0.00    -0.295 OA
ATOM     15  H   UNL     1       8.538  -0.527  28.139  0.00  0.00    +0.241 HD
ENDBRANCH  11  14
ENDBRANCH   1  10
BRANCH   9  16
ATOM     16  S   UNL     1       9.229  -1.943  23.032  0.00  0.00    +0.062 S 
ATOM     17  O   UNL     1       9.449  -2.266  21.641  0.00  0.00    -0.153 OA
ATOM     18  O   UNL     1      10.064  -2.508  24.074  0.00  0.00    -0.153 OA
BRANCH  16  19
ATOM     19  C   UNL     1       9.432  -0.187  23.167  0.00  0.00    +0.106 A 
ATOM     20  C   UNL     1       8.732   0.693  22.344  0.00  0.00    +0.032 A 
ATOM     21  C   UNL     1       9.015   2.067  22.409  0.00  0.00    +0.047 A 
ATOM     22  C   UNL     1       9.989   2.552  23.289  0.00  0.00    +0.120 A 
ATOM     23  C   UNL     1      10.678   1.662  24.110  0.00  0.00    +0.047 A 
ATOM     24  C   UNL     1      10.415   0.297  24.042  0.00  0.00    +0.032 A 
BRANCH  22  25
ATOM     25  O   UNL     1      10.316   3.866  23.475  0.00  0.00    -0.495 OA
ATOM     26  C   UNL     1      11.693   4.197  23.360  0.00  0.00    +0.277 C 
ENDBRANCH  22  25
ENDBRANCH  16  19
ENDBRANCH   9  16
TORSDOF 5
ENDMDL
MODEL 4
REMARK VINA RESULT:      -6.4      1.887      3.374
REMARK  Name = 
REMARK  8 active torsions:
REMARK  status: ('A' for Active; 'I' for Inactive)
REMARK    1  A    between atoms: C_2  and  C_22
REMARK    2  A    between atoms: N_3  and  S_11
REMARK    3  A    between atoms: C_8  and  C_9
REMARK    4  A    between atoms: C_8  and  C_10
REMARK    5  A    between atoms: S_11  and  C_14
REMARK    6  A    between atoms: C_17  and  O_18
REMARK    7  A    between atoms: O_18  and  C_19
REMARK    8  A    between atoms: N_24  and  O_25
REMARK                            x       y       z     vdW  Elec       q    Type
REMARK                         _______ _______ _______ _____ _____    ______ ____
ROOT
ATOM      1  C   UNL     1       6.091  -2.458  23.959  0.00  0.00    +0.183 C 
ATOM      2  C   UNL     1       5.309  -3.489  24.850  0.00  0.00    +0.037 C 
ATOM      3  C   UNL     1       4.030  -2.873  25.461  0.00  0.00    +0.024 C 
ATOM      4  C   UNL     1       6.075  -4.143  26.009  0.00  0.00    +0.024 C 
ATOM      5  S   UNL     1       4.645  -4.832  23.718  0.00  0.00    -0.152 S 
ATOM      6  C   UNL     1       6.084  -5.904  23.426  0.00  0.00    +0.071 C 
ATOM      7  C   UNL     1       7.430  -5.332  22.973  0.00  0.00    +0.028 C 
ATOM      8  C   UNL     1       7.476  -3.904  22.441  0.00  0.00    +0.111 C 
ATOM      9  N   UNL     1       7.448  -2.921  23.545  0.00  0.00    -0.163 NA
ENDROOT
BRANCH   1  10
ATOM     10  C   UNL     1       6.045  -0.977  24.345  0.00  0.00    +0.256 C 
ATOM     11  N   UNL     1       6.078  -0.044  23.343  0.00  0.00    -0.196 N 
ATOM     12  H   UNL     1       5.670  -0.254  22.429  0.00  0.00    +0.182 HD
ATOM     13  O   UNL     1       5.951  -0.615  25.525  0.00  0.00    -0.272 OA
BRANCH  11  14
ATOM     14  O   UNL     1       5.917   1.293  23.801  0.00  0.00    -0.295 OA
ATOM     15  H   UNL     1       5.408   1.712  23.070  0.00  0.00    +0.241 HD
ENDBRANCH  11  14
ENDBRANCH   1  10
BRANCH   9  16
ATOM     16  S   UNL     1       8.842  -2.627  24.445  0.00  0.00    +0.062 S 
ATOM     17  O   UNL     1       9.844  -3.607  24.091  0.00  0.00    -0.153 OA
ATOM     18  O   UNL     1       8.411  -2.459  25.819  0.00  0.00    -0.153 OA
BRANCH  16  19
ATOM     19  C   UNL     1       9.502  -1.054  23.963  0.00  0.00    +0.106 A 
ATOM     20  C   UNL     1       9.888  -0.105  24.907  0.00  0.00    +0.032 A 
ATOM     21  C   UNL     1      10.293   1.169  24.476  0.00  0.00    +0.047 A 
ATOM     22  C   UNL     1      10.310   1.487  23.114  0.00  0.00    +0.120 A 
ATOM     23  C   UNL     1       9.927   0.527  22.179  0.00  0.00    +0.047 A 
ATOM     24  C   UNL     1       9.510  -0.733  22.598  0.00  0.00    +0.032 A 
BRANCH  22  25
ATOM     25  O   UNL     1      10.729   2.670  22.574  0.00  0.00    -0.495 OA
ATOM     26  C   UNL     1      11.189   3.655  23.489  0.00  0.00    +0.277 C 
ENDBRANCH  22  25
ENDBRANCH  16  19
ENDBRANCH   9  16
TORSDOF 5
ENDMDL
MODEL 5
REMARK VINA RESULT:      -6.4      2.764      6.140
REMARK  Name = 
REMARK  8 active torsions:
REMARK  status: ('A' for Active; 'I' for Inactive)
REMARK    1  A    between atoms: C_2  and  C_22
REMARK    2  A    between atoms: N_3  and  S_11
REMARK    3  A    between atoms: C_8  and  C_9
REMARK    4  A    between atoms: C_8  and  C_10
REMARK    5  A    between atoms: S_11  and  C_14
REMARK    6  A    between atoms: C_17  and  O_18
REMARK    7  A    between atoms: O_18  and  C_19
REMARK    8  A    between atoms: N_24  and  O_25
REMARK                            x       y       z     vdW  Elec       q    Type
REMARK                         _______ _______ _______ _____ _____    ______ ____
ROOT
ATOM      1  C   UNL     1       7.826   0.318  24.104  0.00  0.00    +0.183 C 
ATOM      2  C   UNL     1       7.895   1.410  22.976  0.00  0.00    +0.037 C 
ATOM      3  C   UNL     1       6.502   2.000  22.656  0.00  0.00    +0.024 C 
ATOM      4  C   UNL     1       8.514   0.998  21.633  0.00  0.00    +0.024 C 
ATOM      5  S   UNL     1       8.841   2.880  23.663  0.00  0.00    -0.152 S 
ATOM      6  C   UNL     1      10.582   2.375  23.529  0.00  0.00    +0.071 C 
ATOM      7  C   UNL     1      11.069   1.028  24.069  0.00  0.00    +0.028 C 
ATOM      8  C   UNL     1      10.165   0.251  25.018  0.00  0.00    +0.111 C 
ATOM      9  N   UNL     1       9.093  -0.451  24.281  0.00  0.00    -0.163 NA
ENDROOT
BRANCH   1  10
ATOM     10  C   UNL     1       6.568  -0.549  24.205  0.00  0.00    +0.256 C 
ATOM     11  N   UNL     1       6.171  -1.248  23.097  0.00  0.00    -0.196 N 
ATOM     12  H   UNL     1       6.863  -1.587  22.426  0.00  0.00    +0.182 HD
ATOM     13  O   UNL     1       5.931  -0.649  25.262  0.00  0.00    -0.272 OA
BRANCH  11  14
ATOM     14  O   UNL     1       5.060  -2.105  23.329  0.00  0.00    -0.295 OA
ATOM     15  H   UNL     1       5.474  -2.999  23.331  0.00  0.00    +0.241 HD
ENDBRANCH  11  14
ENDBRANCH   1  10
BRANCH   9  16
ATOM     16  S   UNL     1       9.437  -1.874  23.448  0.00  0.00    +0.062 S 
ATOM     17  O   UNL     1      10.865  -2.097  23.470  0.00  0.00    -0.153 OA
ATOM     18  O   UNL     1       8.710  -1.798  22.196  0.00  0.00    -0.153 OA
BRANCH  16  19
ATOM     19  C   UNL     1       8.713  -3.232  24.331  0.00  0.00    +0.106 A 
ATOM     20  C   UNL     1       8.033  -4.251  23.668  0.00  0.00    +0.032 A 
ATOM     21  C   UNL     1       7.377  -5.240  24.419  0.00  0.00    +0.047 A 
ATOM     22  C   UNL     1       7.403  -5.206  25.818  0.00  0.00    +0.120 A 
ATOM     23  C   UNL     1       8.092  -4.184  26.468  0.00  0.00    +0.047 A 
ATOM     24  C   UNL     1       8.733  -3.191  25.732  0.00  0.00    +0.032 A 
BRANCH  22  25
ATOM     25  O   UNL     1       6.847  -6.135  26.651  0.00  0.00    -0.495 OA
ATOM     26  C   UNL     1       5.428  -6.140  26.734  0.00  0.00    +0.277 C 
ENDBRANCH  22  25
ENDBRANCH  16  19
ENDBRANCH   9  16
TORSDOF 5
ENDMDL
MODEL 6
REMARK VINA RESULT:      -6.3      2.448      3.465
REMARK  Name = 
REMARK  8 active torsions:
REMARK  status: ('A' for Active; 'I' for Inactive)
REMARK    1  A    between atoms: C_2  and  C_22
REMARK    2  A    between atoms: N_3  and  S_11
REMARK    3  A    between atoms: C_8  and  C_9
REMARK    4  A    between atoms: C_8  and  C_10
REMARK    5  A    between atoms: S_11  and  C_14
REMARK    6  A    between atoms: C_17  and  O_18
REMARK    7  A    between atoms: O_18  and  C_19
REMARK    8  A    between atoms: N_24  and  O_25
REMARK                            x       y       z     vdW  Elec       q    Type
REMARK                         _______ _______ _______ _____ _____    ______ ____
ROOT
ATOM      1  C   UNL     1       6.648  -5.164  24.099  0.00  0.00    +0.183 C 
ATOM      2  C   UNL     1       5.336  -5.441  24.918  0.00  0.00    +0.037 C 
ATOM      3  C   UNL     1       4.654  -6.761  24.490  0.00  0.00    +0.024 C 
ATOM      4  C   UNL     1       4.247  -4.359  24.893  0.00  0.00    +0.024 C 
ATOM      5  S   UNL     1       5.835  -5.770  26.699  0.00  0.00    -0.152 S 
ATOM      6  C   UNL     1       6.124  -4.109  27.381  0.00  0.00    +0.071 C 
ATOM      7  C   UNL     1       7.025  -3.097  26.670  0.00  0.00    +0.028 C 
ATOM      8  C   UNL     1       7.950  -3.592  25.564  0.00  0.00    +0.111 C 
ATOM      9  N   UNL     1       7.211  -3.796  24.300  0.00  0.00    -0.163 NA
ENDROOT
BRANCH   1  10
ATOM     10  C   UNL     1       6.717  -5.643  22.646  0.00  0.00    +0.256 C 
ATOM     11  N   UNL     1       5.619  -5.458  21.849  0.00  0.00    -0.196 N 
ATOM     12  H   UNL     1       5.002  -4.656  21.999  0.00  0.00    +0.182 HD
ATOM     13  O   UNL     1       7.741  -6.160  22.181  0.00  0.00    -0.272 OA
BRANCH  11  14
ATOM     14  O   UNL     1       5.827  -5.835  20.494  0.00  0.00    -0.295 OA
ATOM     15  H   UNL     1       5.520  -6.771  20.481  0.00  0.00    +0.241 HD
ENDBRANCH  11  14
ENDBRANCH   1  10
BRANCH   9  16
ATOM     16  S   UNL     1       6.787  -2.471  23.350  0.00  0.00    +0.062 S 
ATOM     17  O   UNL     1       5.604  -1.854  23.905  0.00  0.00    -0.153 OA
ATOM     18  O   UNL     1       6.818  -2.930  21.974  0.00  0.00    -0.153 OA
BRANCH  16  19
ATOM     19  C   UNL     1       8.076  -1.258  23.469  0.00  0.00    +0.106 A 
ATOM     20  C   UNL     1       9.345  -1.490  22.944  0.00  0.00    +0.032 A 
ATOM     21  C   UNL     1      10.364  -0.549  23.167  0.00  0.00    +0.047 A 
ATOM     22  C   UNL     1      10.111   0.610  23.909  0.00  0.00    +0.120 A 
ATOM     23  C   UNL     1       8.836   0.832  24.425  0.00  0.00    +0.047 A 
ATOM     24  C   UNL     1       7.824  -0.102  24.221  0.00  0.00    +0.032 A 
BRANCH  22  25
ATOM     25  O   UNL     1      11.004   1.615  24.150  0.00  0.00    -0.495 OA
ATOM     26  C   UNL     1      10.733   2.864  23.527  0.00  0.00    +0.277 C 
ENDBRANCH  22  25
ENDBRANCH  16  19
ENDBRANCH   9  16
TORSDOF 5
ENDMDL
MODEL 7
REMARK VINA RESULT:      -6.3      2.408      4.025
REMARK  Name = 
REMARK  8 active torsions:
REMARK  status: ('A' for Active; 'I' for Inactive)
REMARK    1  A    between atoms: C_2  and  C_22
REMARK    2  A    between atoms: N_3  and  S_11
REMARK    3  A    between atoms: C_8  and  C_9
REMARK    4  A    between atoms: C_8  and  C_10
REMARK    5  A    between atoms: S_11  and  C_14
REMARK    6  A    between atoms: C_17  and  O_18
REMARK    7  A    between atoms: O_18  and  C_19
REMARK    8  A    between atoms: N_24  and  O_25
REMARK                            x       y       z     vdW  Elec       q    Type
REMARK                         _______ _______ _______ _____ _____    ______ ____
ROOT
ATOM      1  C   UNL     1       7.789  -2.643  23.542  0.00  0.00    +0.183 C 
ATOM      2  C   UNL     1       6.386  -3.341  23.428  0.00  0.00    +0.037 C 
ATOM      3  C   UNL     1       5.865  -3.359  21.973  0.00  0.00    +0.024 C 
ATOM      4  C   UNL     1       5.248  -2.781  24.292  0.00  0.00    +0.024 C 
ATOM      5  S   UNL     1       6.622  -5.162  23.826  0.00  0.00    -0.152 S 
ATOM      6  C   UNL     1       6.694  -5.202  25.642  0.00  0.00    +0.071 C 
ATOM      7  C   UNL     1       7.628  -4.278  26.427  0.00  0.00    +0.028 C 
ATOM      8  C   UNL     1       8.744  -3.558  25.678  0.00  0.00    +0.111 C 
ATOM      9  N   UNL     1       8.225  -2.384  24.946  0.00  0.00    -0.163 NA
ENDROOT
BRANCH   1  10
ATOM     10  C   UNL     1       8.114  -1.495  22.582  0.00  0.00    +0.256 C 
ATOM     11  N   UNL     1       9.302  -1.533  21.903  0.00  0.00    -0.196 N 
ATOM     12  H   UNL     1       9.719  -2.430  21.643  0.00  0.00    +0.182 HD
ATOM     13  O   UNL     1       7.321  -0.564  22.392  0.00  0.00    -0.272 OA
BRANCH  11  14
ATOM     14  O   UNL     1       9.455  -0.481  20.958  0.00  0.00    -0.295 OA
ATOM     15  H   UNL     1      10.275  -0.741  20.477  0.00  0.00    +0.241 HD
ENDBRANCH  11  14
ENDBRANCH   1  10
BRANCH   9  16
ATOM     16  S   UNL     1       7.871  -0.963  25.779  0.00  0.00    +0.062 S 
ATOM     17  O   UNL     1       8.221  -1.135  27.170  0.00  0.00    -0.153 OA
ATOM     18  O   UNL     1       6.527  -0.585  25.385  0.00  0.00    -0.153 OA
BRANCH  16  19
ATOM     19  C   UNL     1       8.922   0.327  25.163  0.00  0.00    +0.106 A 
ATOM     20  C   UNL     1       8.421   1.591  24.859  0.00  0.00    +0.032 A 
ATOM     21  C   UNL     1       9.268   2.540  24.264  0.00  0.00    +0.047 A 
ATOM     22  C   UNL     1      10.600   2.224  23.976  0.00  0.00    +0.120 A 
ATOM     23  C   UNL     1      11.089   0.958  24.290  0.00  0.00    +0.047 A 
ATOM     24  C   UNL     1      10.254   0.006  24.867  0.00  0.00    +0.032 A 
BRANCH  22  25
ATOM     25  O   UNL     1      11.528   3.076  23.446  0.00  0.00    -0.495 OA
ATOM     26  C   UNL     1      11.202   4.459  23.468  0.00  0.00    +0.277 C 
ENDBRANCH  22  25
ENDBRANCH  16  19
ENDBRANCH   9  16
TORSDOF 5
ENDMDL
MODEL 8
REMARK VINA RESULT:      -6.3      2.647      6.190
REMARK  Name = 
REMARK  8 active torsions:
REMARK  status: ('A' for Active; 'I' for Inactive)
REMARK    1  A    between atoms: C_2  and  C_22
REMARK    2  A    between atoms: N_3  and  S_11
REMARK    3  A    between atoms: C_8  and  C_9
REMARK    4  A    between atoms: C_8  and  C_10
REMARK    5  A    between atoms: S_11  and  C_14
REMARK    6  A    between atoms: C_17  and  O_18
REMARK    7  A    between atoms: O_18  and  C_19
REMARK    8  A    between atoms: N_24  and  O_25
REMARK                            x       y       z     vdW  Elec       q    Type
REMARK                         _______ _______ _______ _____ _____    ______ ____
ROOT
ATOM      1  C   UNL     1       8.655   0.160  24.922  0.00  0.00    +0.183 C 
ATOM      2  C   UNL     1       8.238   1.511  24.235  0.00  0.00    +0.037 C 
ATOM      3  C   UNL     1       7.838   2.587  25.271  0.00  0.00    +0.024 C 
ATOM      4  C   UNL     1       7.102   1.456  23.204  0.00  0.00    +0.024 C 
ATOM      5  S   UNL     1       9.770   2.236  23.427  0.00  0.00    -0.152 S 
ATOM      6  C   UNL     1       9.931   1.294  21.880  0.00  0.00    +0.071 C 
ATOM      7  C   UNL     1       9.899  -0.237  21.869  0.00  0.00    +0.028 C 
ATOM      8  C   UNL     1      10.070  -0.982  23.188  0.00  0.00    +0.111 C 
ATOM      9  N   UNL     1       8.816  -0.979  23.970  0.00  0.00    -0.163 NA
ENDROOT
BRANCH   1  10
ATOM     10  C   UNL     1       7.972  -0.234  26.234  0.00  0.00    +0.256 C 
ATOM     11  N   UNL     1       6.614  -0.085  26.329  0.00  0.00    -0.196 N 
ATOM     12  H   UNL     1       6.025  -0.189  25.500  0.00  0.00    +0.182 HD
ATOM     13  O   UNL     1       8.612  -0.704  27.184  0.00  0.00    -0.272 OA
BRANCH  11  14
ATOM     14  O   UNL     1       6.068  -0.584  27.544  0.00  0.00    -0.295 OA
ATOM     15  H   UNL     1       6.611  -1.389  27.709  0.00  0.00    +0.241 HD
ENDBRANCH  11  14
ENDBRANCH   1  10
BRANCH   9  16
ATOM     16  S   UNL     1       7.559  -2.018  23.549  0.00  0.00    +0.062 S 
ATOM     17  O   UNL     1       7.916  -2.719  22.337  0.00  0.00    -0.153 OA
ATOM     18  O   UNL     1       6.340  -1.237  23.633  0.00  0.00    -0.153 OA
BRANCH  16  19
ATOM     19  C   UNL     1       7.409  -3.259  24.808  0.00  0.00    +0.106 A 
ATOM     20  C   UNL     1       6.174  -3.593  25.359  0.00  0.00    +0.032 A 
ATOM     21  C   UNL     1       6.122  -4.495  26.434  0.00  0.00    +0.047 A 
ATOM     22  C   UNL     1       7.296  -5.054  26.951  0.00  0.00    +0.120 A 
ATOM     23  C   UNL     1       8.525  -4.716  26.387  0.00  0.00    +0.047 A 
ATOM     24  C   UNL     1       8.587  -3.812  25.331  0.00  0.00    +0.032 A 
BRANCH  22  25
ATOM     25  O   UNL     1       7.367  -5.976  27.956  0.00  0.00    -0.495 OA
ATOM     26  C   UNL     1       6.191  -6.154  28.735  0.00  0.00    +0.277 C 
ENDBRANCH  22  25
ENDBRANCH  16  19
ENDBRANCH   9  16
TORSDOF 5
ENDMDL
MODEL 9
REMARK VINA RESULT:      -6.1      2.116      2.767
REMARK  Name = 
REMARK  8 active torsions:
REMARK  status: ('A' for Active; 'I' for Inactive)
REMARK    1  A    between atoms: C_2  and  C_22
REMARK    2  A    between atoms: N_3  and  S_11
REMARK    3  A    between atoms: C_8  and  C_9
REMARK    4  A    between atoms: C_8  and  C_10
REMARK    5  A    between atoms: S_11  and  C_14
REMARK    6  A    between atoms: C_17  and  O_18
REMARK    7  A    between atoms: O_18  and  C_19
REMARK    8  A    between atoms: N_24  and  O_25
REMARK                            x       y       z     vdW  Elec       q    Type
REMARK                         _______ _______ _______ _____ _____    ______ ____
ROOT
ATOM      1  C   UNL     1       7.516  -3.440  26.019  0.00  0.00    +0.183 C 
ATOM      2  C   UNL     1       6.022  -3.863  25.772  0.00  0.00    +0.037 C 
ATOM      3  C   UNL     1       5.765  -5.335  26.167  0.00  0.00    +0.024 C 
ATOM      4  C   UNL     1       5.466  -3.689  24.351  0.00  0.00    +0.024 C 
ATOM      5  S   UNL     1       4.950  -2.898  26.975  0.00  0.00    -0.152 S 
ATOM      6  C   UNL     1       4.801  -1.259  26.203  0.00  0.00    +0.071 C 
ATOM      7  C   UNL     1       6.032  -0.485  25.723  0.00  0.00    +0.028 C 
ATOM      8  C   UNL     1       7.409  -0.936  26.195  0.00  0.00    +0.111 C 
ATOM      9  N   UNL     1       7.875  -2.115  25.434  0.00  0.00    -0.163 NA
ENDROOT
BRANCH   1  10
ATOM     10  C   UNL     1       8.611  -4.497  25.852  0.00  0.00    +0.256 C 
ATOM     11  N   UNL     1       8.626  -5.240  24.702  0.00  0.00    -0.196 N 
ATOM     12  H   UNL     1       8.293  -4.837  23.824  0.00  0.00    +0.182 HD
ATOM     13  O   UNL     1       9.484  -4.669  26.713  0.00  0.00    -0.272 OA
BRANCH  11  14
ATOM     14  O   UNL     1       9.746  -6.111  24.600  0.00  0.00    -0.295 OA
ATOM     15  H   UNL     1      10.443  -5.523  24.228  0.00  0.00    +0.241 HD
ENDBRANCH  11  14
ENDBRANCH   1  10
BRANCH   9  16
ATOM     16  S   UNL     1       8.476  -1.924  23.871  0.00  0.00    +0.062 S 
ATOM     17  O   UNL     1       7.375  -1.974  22.937  0.00  0.00    -0.153 OA
ATOM     18  O   UNL     1       9.600  -2.834  23.754  0.00  0.00    -0.153 OA
BRANCH  16  19
ATOM     19  C   UNL     1       9.169  -0.298  23.730  0.00  0.00    +0.106 A 
ATOM     20  C   UNL     1      10.372   0.037  24.347  0.00  0.00    +0.032 A 
ATOM     21  C   UNL     1      10.820   1.367  24.304  0.00  0.00    +0.047 A 
ATOM     22  C   UNL     1      10.068   2.350  23.650  0.00  0.00    +0.120 A 
ATOM     23  C   UNL     1       8.869   2.000  23.031  0.00  0.00    +0.047 A 
ATOM     24  C   UNL     1       8.411   0.687  23.082  0.00  0.00    +0.032 A 
BRANCH  22  25
ATOM     25  O   UNL     1      10.423   3.660  23.500  0.00  0.00    -0.495 OA
ATOM     26  C   UNL     1       9.528   4.623  24.038  0.00  0.00    +0.277 C 
ENDBRANCH  22  25
ENDBRANCH  16  19
ENDBRANCH   9  16
TORSDOF 5
ENDMDL
