MODEL 1
REMARK VINA RESULT:      -4.7      0.000      0.000
REMARK  Name = 
REMARK  4 active torsions:
REMARK  status: ('A' for Active; 'I' for Inactive)
REMARK    1  A    between atoms: C_1  and  C_2
REMARK    2  A    between atoms: C_2  and  N_4
REMARK    3  A    between atoms: C_2  and  C_5
REMARK    4  A    between atoms: C_5  and  C_7
REMARK                            x       y       z     vdW  Elec       q    Type
REMARK                         _______ _______ _______ _____ _____    ______ ____
ROOT
ATOM      1  C   UNL     1       9.401  -2.112  23.271  0.00  0.00    +0.179 C 
ATOM      2  O   UNL     1      10.225  -2.887  23.759  0.00  0.00    -0.290 OA
ENDROOT
BRANCH   1   3
ATOM      3  C   UNL     1       9.754  -0.664  23.197  0.00  0.00    +0.019 A 
ATOM      4  C   UNL     1       9.705   0.042  21.990  0.00  0.00    +0.011 A 
ATOM      5  C   UNL     1      10.020   1.401  21.961  0.00  0.00    +0.001 A 
ATOM      6  C   UNL     1      10.396   2.056  23.132  0.00  0.00    +0.000 A 
ATOM      7  C   UNL     1      10.470   1.351  24.334  0.00  0.00    +0.001 A 
ATOM      8  C   UNL     1      10.153  -0.007  24.368  0.00  0.00    +0.011 A 
ENDBRANCH   1   3
BRANCH   1  10
ATOM      9  C   UNL     1       6.877  -1.761  23.223  0.00  0.00    +0.032 C 
ATOM     10  C   UNL     1       8.048  -2.573  22.683  0.00  0.00    +0.120 C 
BRANCH  10  11
ATOM     11  N   UNL     1       7.803  -3.987  23.018  0.00  0.00    -0.321 NA
ATOM     12  H   UNL     1       8.495  -4.581  22.568  0.00  0.00    +0.119 HD
ATOM     13  H   UNL     1       7.901  -4.108  24.028  0.00  0.00    +0.119 HD
ENDBRANCH  10  11
ENDBRANCH   1  10
TORSDOF 3
ENDMDL
MODEL 2
REMARK VINA RESULT:      -4.6      0.095      1.461
REMARK  Name = 
REMARK  4 active torsions:
REMARK  status: ('A' for Active; 'I' for Inactive)
REMARK    1  A    between atoms: C_1  and  C_2
REMARK    2  A    between atoms: C_2  and  N_4
REMARK    3  A    between atoms: C_2  and  C_5
REMARK    4  A    between atoms: C_5  and  C_7
REMARK                            x       y       z     vdW  Elec       q    Type
REMARK                         _______ _______ _______ _____ _____    ______ ____
ROOT
ATOM      1  C   UNL     1       9.351  -2.080  23.232  0.00  0.00    +0.179 C 
ATOM      2  O   UNL     1      10.162  -2.873  23.712  0.00  0.00    -0.290 OA
ENDROOT
BRANCH   1   3
ATOM      3  C   UNL     1       9.706  -0.630  23.222  0.00  0.00    +0.019 A 
ATOM      4  C   UNL     1      10.073   0.043  24.392  0.00  0.00    +0.011 A 
ATOM      5  C   UNL     1      10.422   1.394  24.342  0.00  0.00    +0.001 A 
ATOM      6  C   UNL     1      10.394   2.078  23.128  0.00  0.00    +0.000 A 
ATOM      7  C   UNL     1      10.005   1.417  21.963  0.00  0.00    +0.001 A 
ATOM      8  C   UNL     1       9.659   0.066  22.007  0.00  0.00    +0.011 A 
ENDBRANCH   1   3
BRANCH   1  10
ATOM      9  C   UNL     1       6.821  -1.777  23.183  0.00  0.00    +0.032 C 
ATOM     10  C   UNL     1       8.015  -2.517  22.591  0.00  0.00    +0.120 C 
BRANCH  10  11
ATOM     11  N   UNL     1       7.796  -3.959  22.803  0.00  0.00    -0.321 NA
ATOM     12  H   UNL     1       8.656  -4.404  23.115  0.00  0.00    +0.119 HD
ATOM     13  H   UNL     1       7.100  -4.081  23.541  0.00  0.00    +0.119 HD
ENDBRANCH  10  11
ENDBRANCH   1  10
TORSDOF 3
ENDMDL
MODEL 3
REMARK VINA RESULT:      -4.6      3.644      5.082
REMARK  Name = 
REMARK  4 active torsions:
REMARK  status: ('A' for Active; 'I' for Inactive)
REMARK    1  A    between atoms: C_1  and  C_2
REMARK    2  A    between atoms: C_2  and  N_4
REMARK    3  A    between atoms: C_2  and  C_5
REMARK    4  A    between atoms: C_5  and  C_7
REMARK                            x       y       z     vdW  Elec       q    Type
REMARK                         _______ _______ _______ _____ _____    ______ ____
ROOT
ATOM      1  C   UNL     1      10.562   3.398  23.506  0.00  0.00    +0.179 C 
ATOM      2  O   UNL     1      11.697   3.863  23.392  0.00  0.00    -0.290 OA
ENDROOT
BRANCH   1   3
ATOM      3  C   UNL     1      10.359   1.951  23.202  0.00  0.00    +0.019 A 
ATOM      4  C   UNL     1      10.659   0.957  24.139  0.00  0.00    +0.011 A 
ATOM      5  C   UNL     1      10.435  -0.386  23.830  0.00  0.00    +0.001 A 
ATOM      6  C   UNL     1       9.924  -0.740  22.583  0.00  0.00    +0.000 A 
ATOM      7  C   UNL     1       9.646   0.247  21.636  0.00  0.00    +0.001 A 
ATOM      8  C   UNL     1       9.865   1.590  21.942  0.00  0.00    +0.011 A 
ENDBRANCH   1   3
BRANCH   1  10
ATOM      9  C   UNL     1       8.412   3.405  24.875  0.00  0.00    +0.032 C 
ATOM     10  C   UNL     1       9.354   4.225  24.000  0.00  0.00    +0.120 C 
BRANCH  10  11
ATOM     11  N   UNL     1       8.575   4.725  22.853  0.00  0.00    -0.321 NA
ATOM     12  H   UNL     1       8.962   5.605  22.521  0.00  0.00    +0.119 HD
ATOM     13  H   UNL     1       8.643   4.050  22.090  0.00  0.00    +0.119 HD
ENDBRANCH  10  11
ENDBRANCH   1  10
TORSDOF 3
ENDMDL
MODEL 4
REMARK VINA RESULT:      -4.4      1.138      1.337
REMARK  Name = 
REMARK  4 active torsions:
REMARK  status: ('A' for Active; 'I' for Inactive)
REMARK    1  A    between atoms: C_1  and  C_2
REMARK    2  A    between atoms: C_2  and  N_4
REMARK    3  A    between atoms: C_2  and  C_5
REMARK    4  A    between atoms: C_5  and  C_7
REMARK                            x       y       z     vdW  Elec       q    Type
REMARK                         _______ _______ _______ _____ _____    ______ ____
ROOT
ATOM      1  C   UNL     1       9.149  -3.011  23.733  0.00  0.00    +0.179 C 
ATOM      2  O   UNL     1      10.052  -3.617  24.312  0.00  0.00    -0.290 OA
ENDROOT
BRANCH   1   3
ATOM      3  C   UNL     1       9.452  -1.661  23.174  0.00  0.00    +0.019 A 
ATOM      4  C   UNL     1       9.129  -1.322  21.856  0.00  0.00    +0.011 A 
ATOM      5  C   UNL     1       9.405  -0.041  21.374  0.00  0.00    +0.001 A 
ATOM      6  C   UNL     1      10.016   0.899  22.202  0.00  0.00    +0.000 A 
ATOM      7  C   UNL     1      10.363   0.558  23.510  0.00  0.00    +0.001 A 
ATOM      8  C   UNL     1      10.085  -0.719  23.997  0.00  0.00    +0.011 A 
ENDBRANCH   1   3
BRANCH   1  10
ATOM      9  C   UNL     1       6.767  -3.219  24.616  0.00  0.00    +0.032 C 
ATOM     10  C   UNL     1       7.740  -3.604  23.507  0.00  0.00    +0.120 C 
BRANCH  10  11
ATOM     11  N   UNL     1       7.808  -5.076  23.464  0.00  0.00    -0.321 NA
ATOM     12  H   UNL     1       7.298  -5.475  24.248  0.00  0.00    +0.119 HD
ATOM     13  H   UNL     1       7.358  -5.401  22.605  0.00  0.00    +0.119 HD
ENDBRANCH  10  11
ENDBRANCH   1  10
TORSDOF 3
ENDMDL
MODEL 5
REMARK VINA RESULT:      -4.4      4.430      5.519
REMARK  Name = 
REMARK  4 active torsions:
REMARK  status: ('A' for Active; 'I' for Inactive)
REMARK    1  A    between atoms: C_1  and  C_2
REMARK    2  A    between atoms: C_2  and  N_4
REMARK    3  A    between atoms: C_2  and  C_5
REMARK    4  A    between atoms: C_5  and  C_7
REMARK                            x       y       z     vdW  Elec       q    Type
REMARK                         _______ _______ _______ _____ _____    ______ ____
ROOT
ATOM      1  C   UNL     1       8.383  -4.778  24.717  0.00  0.00    +0.179 C 
ATOM      2  O   UNL     1       9.611  -4.841  24.648  0.00  0.00    -0.290 OA
ENDROOT
BRANCH   1   3
ATOM      3  C   UNL     1       7.605  -4.788  23.444  0.00  0.00    +0.019 A 
ATOM      4  C   UNL     1       7.522  -5.933  22.644  0.00  0.00    +0.011 A 
ATOM      5  C   UNL     1       6.765  -5.913  21.471  0.00  0.00    +0.001 A 
ATOM      6  C   UNL     1       6.100  -4.750  21.088  0.00  0.00    +0.000 A 
ATOM      7  C   UNL     1       6.199  -3.599  21.870  0.00  0.00    +0.001 A 
ATOM      8  C   UNL     1       6.952  -3.614  23.045  0.00  0.00    +0.011 A 
ENDBRANCH   1   3
BRANCH   1  10
ATOM      9  C   UNL     1       7.542  -3.347  26.651  0.00  0.00    +0.032 C 
ATOM     10  C   UNL     1       7.610  -4.749  26.055  0.00  0.00    +0.120 C 
BRANCH  10  11
ATOM     11  N   UNL     1       8.268  -5.622  27.043  0.00  0.00    -0.321 NA
ATOM     12  H   UNL     1       9.195  -5.886  26.718  0.00  0.00    +0.119 HD
ATOM     13  H   UNL     1       8.383  -5.104  27.916  0.00  0.00    +0.119 HD
ENDBRANCH  10  11
ENDBRANCH   1  10
TORSDOF 3
ENDMDL
MODEL 6
REMARK VINA RESULT:      -4.3      2.891      4.987
REMARK  Name = 
REMARK  4 active torsions:
REMARK  status: ('A' for Active; 'I' for Inactive)
REMARK    1  A    between atoms: C_1  and  C_2
REMARK    2  A    between atoms: C_2  and  N_4
REMARK    3  A    between atoms: C_2  and  C_5
REMARK    4  A    between atoms: C_5  and  C_7
REMARK                            x       y       z     vdW  Elec       q    Type
REMARK                         _______ _______ _______ _____ _____    ______ ____
ROOT
ATOM      1  C   UNL     1       8.575  -2.629  23.049  0.00  0.00    +0.179 C 
ATOM      2  O   UNL     1       7.701  -2.547  22.185  0.00  0.00    -0.290 OA
ENDROOT
BRANCH   1   3
ATOM      3  C   UNL     1       8.344  -3.555  24.197  0.00  0.00    +0.019 A 
ATOM      4  C   UNL     1       7.054  -3.891  24.620  0.00  0.00    +0.011 A 
ATOM      5  C   UNL     1       6.875  -4.779  25.683  0.00  0.00    +0.001 A 
ATOM      6  C   UNL     1       7.981  -5.322  26.333  0.00  0.00    +0.000 A 
ATOM      7  C   UNL     1       9.271  -4.970  25.930  0.00  0.00    +0.001 A 
ATOM      8  C   UNL     1       9.454  -4.087  24.867  0.00  0.00    +0.011 A 
ENDBRANCH   1   3
BRANCH   1  10
ATOM      9  C   UNL     1       9.911  -0.601  23.822  0.00  0.00    +0.032 C 
ATOM     10  C   UNL     1       9.917  -1.868  22.973  0.00  0.00    +0.120 C 
BRANCH  10  11
ATOM     11  N   UNL     1      10.200  -1.472  21.582  0.00  0.00    -0.321 NA
ATOM     12  H   UNL     1      10.240  -2.293  20.983  0.00  0.00    +0.119 HD
ATOM     13  H   UNL     1       9.436  -0.882  21.246  0.00  0.00    +0.119 HD
ENDBRANCH  10  11
ENDBRANCH   1  10
TORSDOF 3
ENDMDL
MODEL 7
REMARK VINA RESULT:      -4.2      2.303      4.626
REMARK  Name = 
REMARK  4 active torsions:
REMARK  status: ('A' for Active; 'I' for Inactive)
REMARK    1  A    between atoms: C_1  and  C_2
REMARK    2  A    between atoms: C_2  and  N_4
REMARK    3  A    between atoms: C_2  and  C_5
REMARK    4  A    between atoms: C_5  and  C_7
REMARK                            x       y       z     vdW  Elec       q    Type
REMARK                         _______ _______ _______ _____ _____    ______ ____
ROOT
ATOM      1  C   UNL     1       8.184  -1.032  22.830  0.00  0.00    +0.179 C 
ATOM      2  O   UNL     1       7.192  -0.308  22.930  0.00  0.00    -0.290 OA
ENDROOT
BRANCH   1   3
ATOM      3  C   UNL     1       8.011  -2.497  23.059  0.00  0.00    +0.019 A 
ATOM      4  C   UNL     1       7.219  -3.283  22.216  0.00  0.00    +0.011 A 
ATOM      5  C   UNL     1       7.099  -4.655  22.446  0.00  0.00    +0.001 A 
ATOM      6  C   UNL     1       7.759  -5.242  23.524  0.00  0.00    +0.000 A 
ATOM      7  C   UNL     1       8.531  -4.458  24.382  0.00  0.00    +0.001 A 
ATOM      8  C   UNL     1       8.656  -3.087  24.154  0.00  0.00    +0.011 A 
ENDBRANCH   1   3
BRANCH   1  10
ATOM      9  C   UNL     1       9.504   0.836  21.706  0.00  0.00    +0.032 C 
ATOM     10  C   UNL     1       9.579  -0.507  22.423  0.00  0.00    +0.120 C 
BRANCH  10  11
ATOM     11  N   UNL     1      10.238  -1.462  21.515  0.00  0.00    -0.321 NA
ATOM     12  H   UNL     1      10.174  -1.136  20.554  0.00  0.00    +0.119 HD
ATOM     13  H   UNL     1      11.229  -1.517  21.757  0.00  0.00    +0.119 HD
ENDBRANCH  10  11
ENDBRANCH   1  10
TORSDOF 3
ENDMDL
MODEL 8
REMARK VINA RESULT:      -4.1      2.683      4.444
REMARK  Name = 
REMARK  4 active torsions:
REMARK  status: ('A' for Active; 'I' for Inactive)
REMARK    1  A    between atoms: C_1  and  C_2
REMARK    2  A    between atoms: C_2  and  N_4
REMARK    3  A    between atoms: C_2  and  C_5
REMARK    4  A    between atoms: C_5  and  C_7
REMARK                            x       y       z     vdW  Elec       q    Type
REMARK                         _______ _______ _______ _____ _____    ______ ____
ROOT
ATOM      1  C   UNL     1       9.203   1.187  23.806  0.00  0.00    +0.179 C 
ATOM      2  O   UNL     1       8.543   1.830  24.625  0.00  0.00    -0.290 OA
ENDROOT
BRANCH   1   3
ATOM      3  C   UNL     1       8.921  -0.271  23.665  0.00  0.00    +0.019 A 
ATOM      4  C   UNL     1       7.697  -0.738  23.175  0.00  0.00    +0.011 A 
ATOM      5  C   UNL     1       7.476  -2.110  23.034  0.00  0.00    +0.001 A 
ATOM      6  C   UNL     1       8.471  -3.017  23.392  0.00  0.00    +0.000 A 
ATOM      7  C   UNL     1       9.685  -2.557  23.905  0.00  0.00    +0.001 A 
ATOM      8  C   UNL     1       9.911  -1.188  24.044  0.00  0.00    +0.011 A 
ENDBRANCH   1   3
BRANCH   1  10
ATOM      9  C   UNL     1      10.753   3.171  23.410  0.00  0.00    +0.032 C 
ATOM     10  C   UNL     1      10.262   1.828  22.881  0.00  0.00    +0.120 C 
BRANCH  10  11
ATOM     11  N   UNL     1       9.697   2.056  21.540  0.00  0.00    -0.321 NA
ATOM     12  H   UNL     1       8.794   1.594  21.455  0.00  0.00    +0.119 HD
ATOM     13  H   UNL     1       9.543   3.058  21.413  0.00  0.00    +0.119 HD
ENDBRANCH  10  11
ENDBRANCH   1  10
TORSDOF 3
ENDMDL
MODEL 9
REMARK VINA RESULT:      -4.1      2.625      4.763
REMARK  Name = 
REMARK  4 active torsions:
REMARK  status: ('A' for Active; 'I' for Inactive)
REMARK    1  A    between atoms: C_1  and  C_2
REMARK    2  A    between atoms: C_2  and  N_4
REMARK    3  A    between atoms: C_2  and  C_5
REMARK    4  A    between atoms: C_5  and  C_7
REMARK                            x       y       z     vdW  Elec       q    Type
REMARK                         _______ _______ _______ _____ _____    ______ ____
ROOT
ATOM      1  C   UNL     1       9.756  -1.359  23.852  0.00  0.00    +0.179 C 
ATOM      2  O   UNL     1      10.505  -1.033  22.929  0.00  0.00    -0.290 OA
ENDROOT
BRANCH   1   3
ATOM      3  C   UNL     1       9.041  -2.665  23.750  0.00  0.00    +0.019 A 
ATOM      4  C   UNL     1       9.311  -3.719  24.629  0.00  0.00    +0.011 A 
ATOM      5  C   UNL     1       8.605  -4.919  24.520  0.00  0.00    +0.001 A 
ATOM      6  C   UNL     1       7.639  -5.073  23.528  0.00  0.00    +0.000 A 
ATOM      7  C   UNL     1       7.383  -4.033  22.634  0.00  0.00    +0.001 A 
ATOM      8  C   UNL     1       8.083  -2.831  22.741  0.00  0.00    +0.011 A 
ENDBRANCH   1   3
BRANCH   1  10
ATOM      9  C   UNL     1       8.190   0.139  25.193  0.00  0.00    +0.032 C 
ATOM     10  C   UNL     1       9.568  -0.511  25.129  0.00  0.00    +0.120 C 
BRANCH  10  11
ATOM     11  N   UNL     1      10.572   0.566  25.178  0.00  0.00    -0.321 NA
ATOM     12  H   UNL     1      10.119   1.464  25.334  0.00  0.00    +0.119 HD
ATOM     13  H   UNL     1      11.199   0.396  25.967  0.00  0.00    +0.119 HD
ENDBRANCH  10  11
ENDBRANCH   1  10
TORSDOF 3
ENDMDL
