MODEL 1
REMARK VINA RESULT:      -3.5      0.000      0.000
REMARK  Name = 
REMARK  1 active torsions:
REMARK  status: ('A' for Active; 'I' for Inactive)
REMARK    1  A    between atoms: C_1  and  N_2
REMARK                            x       y       z     vdW  Elec       q    Type
REMARK                         _______ _______ _______ _____ _____    ______ ____
ROOT
ATOM      1  C   UNL     1      10.736   0.472  24.772  0.00  0.00    +0.151 C 
ATOM      2  N   UNL     1      10.257   0.828  23.458  0.00  0.00    -0.330 N 
ATOM      3  C   UNL     1      10.302   2.106  22.859  0.00  0.00    +0.158 A 
ATOM      4  S   UNL     1      10.888   3.537  23.440  0.00  0.00    -0.013 S 
ATOM      5  N   UNL     1       9.718   1.925  21.595  0.00  0.00    -0.340 N 
ATOM      6  H   UNL     1       9.600   2.661  20.914  0.00  0.00    +0.167 HD
ATOM      7  C   UNL     1       9.347   0.612  21.451  0.00  0.00    +0.102 A 
ATOM      8  C   UNL     1       9.669  -0.051  22.569  0.00  0.00    +0.105 A 
ENDROOT
TORSDOF 0
ENDMDL
MODEL 2
REMARK VINA RESULT:      -3.3      1.953      2.461
REMARK  Name = 
REMARK  1 active torsions:
REMARK  status: ('A' for Active; 'I' for Inactive)
REMARK    1  A    between atoms: C_1  and  N_2
REMARK                            x       y       z     vdW  Elec       q    Type
REMARK                         _______ _______ _______ _____ _____    ______ ____
ROOT
ATOM      1  C   UNL     1      10.126  -0.167  24.747  0.00  0.00    +0.151 C 
ATOM      2  N   UNL     1      10.183   0.869  23.743  0.00  0.00    -0.330 N 
ATOM      3  C   UNL     1       9.892   0.731  22.368  0.00  0.00    +0.158 A 
ATOM      4  S   UNL     1       9.416  -0.594  21.505  0.00  0.00    -0.013 S 
ATOM      5  N   UNL     1      10.096   2.014  21.833  0.00  0.00    -0.340 N 
ATOM      6  H   UNL     1       9.970   2.249  20.860  0.00  0.00    +0.167 HD
ATOM      7  C   UNL     1      10.487   2.866  22.836  0.00  0.00    +0.102 A 
ATOM      8  C   UNL     1      10.541   2.181  23.986  0.00  0.00    +0.105 A 
ENDROOT
TORSDOF 0
ENDMDL
MODEL 3
REMARK VINA RESULT:      -3.2      2.738      3.043
REMARK  Name = 
REMARK  1 active torsions:
REMARK  status: ('A' for Active; 'I' for Inactive)
REMARK    1  A    between atoms: C_1  and  N_2
REMARK                            x       y       z     vdW  Elec       q    Type
REMARK                         _______ _______ _______ _____ _____    ______ ____
ROOT
ATOM      1  C   UNL     1      10.586   0.435  24.750  0.00  0.00    +0.151 C 
ATOM      2  N   UNL     1      10.129  -0.010  23.455  0.00  0.00    -0.330 N 
ATOM      3  C   UNL     1       9.768  -1.325  23.091  0.00  0.00    +0.158 A 
ATOM      4  S   UNL     1       9.750  -2.714  23.986  0.00  0.00    -0.013 S 
ATOM      5  N   UNL     1       9.401  -1.230  21.739  0.00  0.00    -0.340 N 
ATOM      6  H   UNL     1       9.089  -2.011  21.179  0.00  0.00    +0.167 HD
ATOM      7  C   UNL     1       9.538   0.070  21.323  0.00  0.00    +0.102 A 
ATOM      8  C   UNL     1       9.976   0.807  22.352  0.00  0.00    +0.105 A 
ENDROOT
TORSDOF 0
ENDMDL
MODEL 4
REMARK VINA RESULT:      -3.1      3.059      3.560
REMARK  Name = 
REMARK  1 active torsions:
REMARK  status: ('A' for Active; 'I' for Inactive)
REMARK    1  A    between atoms: C_1  and  N_2
REMARK                            x       y       z     vdW  Elec       q    Type
REMARK                         _______ _______ _______ _____ _____    ______ ____
ROOT
ATOM      1  C   UNL     1       9.767  -2.404  23.843  0.00  0.00    +0.151 C 
ATOM      2  N   UNL     1       9.908  -1.015  24.212  0.00  0.00    -0.330 N 
ATOM      3  C   UNL     1       9.410  -0.396  25.379  0.00  0.00    +0.158 A 
ATOM      4  S   UNL     1       8.548  -1.027  26.639  0.00  0.00    -0.013 S 
ATOM      5  N   UNL     1       9.809   0.946  25.265  0.00  0.00    -0.340 N 
ATOM      6  H   UNL     1       9.604   1.659  25.950  0.00  0.00    +0.167 HD
ATOM      7  C   UNL     1      10.505   1.114  24.094  0.00  0.00    +0.102 A 
ATOM      8  C   UNL     1      10.566  -0.063  23.458  0.00  0.00    +0.105 A 
ENDROOT
TORSDOF 0
ENDMDL
MODEL 5
REMARK VINA RESULT:      -3.1      1.725      1.950
REMARK  Name = 
REMARK  1 active torsions:
REMARK  status: ('A' for Active; 'I' for Inactive)
REMARK    1  A    between atoms: C_1  and  N_2
REMARK                            x       y       z     vdW  Elec       q    Type
REMARK                         _______ _______ _______ _____ _____    ______ ____
ROOT
ATOM      1  C   UNL     1      10.055  -0.033  24.920  0.00  0.00    +0.151 C 
ATOM      2  N   UNL     1       9.804  -0.470  23.567  0.00  0.00    -0.330 N 
ATOM      3  C   UNL     1       9.806   0.332  22.406  0.00  0.00    +0.158 A 
ATOM      4  S   UNL     1      10.082   1.951  22.226  0.00  0.00    -0.013 S 
ATOM      5  N   UNL     1       9.510  -0.558  21.361  0.00  0.00    -0.340 N 
ATOM      6  H   UNL     1       9.437  -0.290  20.390  0.00  0.00    +0.167 HD
ATOM      7  C   UNL     1       9.341  -1.819  21.874  0.00  0.00    +0.102 A 
ATOM      8  C   UNL     1       9.517  -1.770  23.201  0.00  0.00    +0.105 A 
ENDROOT
TORSDOF 0
ENDMDL
MODEL 6
REMARK VINA RESULT:      -3.1      2.393      2.650
REMARK  Name = 
REMARK  1 active torsions:
REMARK  status: ('A' for Active; 'I' for Inactive)
REMARK    1  A    between atoms: C_1  and  N_2
REMARK                            x       y       z     vdW  Elec       q    Type
REMARK                         _______ _______ _______ _____ _____    ______ ____
ROOT
ATOM      1  C   UNL     1       8.445   3.005  24.990  0.00  0.00    +0.151 C 
ATOM      2  N   UNL     1       8.877   2.582  23.680  0.00  0.00    -0.330 N 
ATOM      3  C   UNL     1       8.159   2.708  22.471  0.00  0.00    +0.158 A 
ATOM      4  S   UNL     1       6.665   3.347  22.178  0.00  0.00    -0.013 S 
ATOM      5  N   UNL     1       9.005   2.151  21.497  0.00  0.00    -0.340 N 
ATOM      6  H   UNL     1       8.777   2.089  20.516  0.00  0.00    +0.167 HD
ATOM      7  C   UNL     1      10.162   1.719  22.096  0.00  0.00    +0.102 A 
ATOM      8  C   UNL     1      10.089   1.976  23.408  0.00  0.00    +0.105 A 
ENDROOT
TORSDOF 0
ENDMDL
MODEL 7
REMARK VINA RESULT:      -3.0      2.243      3.250
REMARK  Name = 
REMARK  1 active torsions:
REMARK  status: ('A' for Active; 'I' for Inactive)
REMARK    1  A    between atoms: C_1  and  N_2
REMARK                            x       y       z     vdW  Elec       q    Type
REMARK                         _______ _______ _______ _____ _____    ______ ____
ROOT
ATOM      1  C   UNL     1       9.369   0.473  21.494  0.00  0.00    +0.151 C 
ATOM      2  N   UNL     1       9.369  -0.604  22.454  0.00  0.00    -0.330 N 
ATOM      3  C   UNL     1       9.927  -0.582  23.751  0.00  0.00    +0.158 A 
ATOM      4  S   UNL     1      10.723   0.625  24.550  0.00  0.00    -0.013 S 
ATOM      5  N   UNL     1       9.666  -1.860  24.271  0.00  0.00    -0.340 N 
ATOM      6  H   UNL     1       9.942  -2.164  25.193  0.00  0.00    +0.167 HD
ATOM      7  C   UNL     1       8.989  -2.600  23.335  0.00  0.00    +0.102 A 
ATOM      8  C   UNL     1       8.809  -1.849  22.241  0.00  0.00    +0.105 A 
ENDROOT
TORSDOF 0
ENDMDL
MODEL 8
REMARK VINA RESULT:      -3.0      4.453      5.200
REMARK  Name = 
REMARK  1 active torsions:
REMARK  status: ('A' for Active; 'I' for Inactive)
REMARK    1  A    between atoms: C_1  and  N_2
REMARK                            x       y       z     vdW  Elec       q    Type
REMARK                         _______ _______ _______ _____ _____    ______ ____
ROOT
ATOM      1  C   UNL     1       6.844  -3.046  22.181  0.00  0.00    +0.151 C 
ATOM      2  N   UNL     1       8.161  -2.680  22.646  0.00  0.00    -0.330 N 
ATOM      3  C   UNL     1       8.840  -3.210  23.765  0.00  0.00    +0.158 A 
ATOM      4  S   UNL     1       8.372  -4.363  24.851  0.00  0.00    -0.013 S 
ATOM      5  N   UNL     1      10.069  -2.530  23.787  0.00  0.00    -0.340 N 
ATOM      6  H   UNL     1      10.790  -2.684  24.476  0.00  0.00    +0.167 HD
ATOM      7  C   UNL     1      10.116  -1.646  22.738  0.00  0.00    +0.102 A 
ATOM      8  C   UNL     1       8.970  -1.733  22.050  0.00  0.00    +0.105 A 
ENDROOT
TORSDOF 0
ENDMDL
MODEL 9
REMARK VINA RESULT:      -3.0      7.874      8.379
REMARK  Name = 
REMARK  1 active torsions:
REMARK  status: ('A' for Active; 'I' for Inactive)
REMARK    1  A    between atoms: C_1  and  N_2
REMARK                            x       y       z     vdW  Elec       q    Type
REMARK                         _______ _______ _______ _____ _____    ______ ____
ROOT
ATOM      1  C   UNL     1       7.028  -4.546  24.537  0.00  0.00    +0.151 C 
ATOM      2  N   UNL     1       6.560  -5.161  23.318  0.00  0.00    -0.330 N 
ATOM      3  C   UNL     1       5.493  -6.077  23.188  0.00  0.00    +0.158 A 
ATOM      4  S   UNL     1       4.485  -6.711  24.332  0.00  0.00    -0.013 S 
ATOM      5  N   UNL     1       5.444  -6.370  21.815  0.00  0.00    -0.340 N 
ATOM      6  H   UNL     1       4.779  -7.003  21.394  0.00  0.00    +0.167 HD
ATOM      7  C   UNL     1       6.427  -5.666  21.167  0.00  0.00    +0.102 A 
ATOM      8  C   UNL     1       7.101  -4.939  22.066  0.00  0.00    +0.105 A 
ENDROOT
TORSDOF 0
ENDMDL
