MODEL 1
REMARK VINA RESULT:      -5.8      0.000      0.000
REMARK  Name = 
REMARK  13 active torsions:
REMARK  status: ('A' for Active; 'I' for Inactive)
REMARK    1  A    between atoms: C_1  and  C_2
REMARK    2  A    between atoms: C_2  and  C_3
REMARK    3  A    between atoms: C_3  and  C_4
REMARK    4  A    between atoms: C_3  and  C_6
REMARK    5  A    between atoms: C_3  and  C_14
REMARK    6  A    between atoms: C_4  and  C_5
REMARK    7  A    between atoms: C_6  and  N_7
REMARK    8  A    between atoms: C_8  and  C_10
REMARK    9  A    between atoms: C_10  and  C_11
REMARK   10  A    between atoms: C_11  and  C_12
REMARK   11  A    between atoms: C_12  and  O_13
REMARK   12  A    between atoms: C_16  and  O_17
REMARK   13  A    between atoms: O_17  and  C_18
REMARK                            x       y       z     vdW  Elec       q    Type
REMARK                         _______ _______ _______ _____ _____    ______ ____
ROOT
ATOM      1  C   UNL     1       8.354  -3.531  24.879  0.00  0.00    +0.011 C 
ENDROOT
BRANCH   1   2
ATOM      2  C   UNL     1       7.412  -4.296  23.894  0.00  0.00    -0.036 A 
ATOM      3  C   UNL     1       7.887  -5.347  23.085  0.00  0.00    +0.004 A 
ATOM      4  C   UNL     1       7.036  -6.056  22.233  0.00  0.00    +0.004 A 
ATOM      5  C   UNL     1       5.684  -5.742  22.179  0.00  0.00    +0.045 A 
ATOM      6  C   UNL     1       5.171  -4.719  22.971  0.00  0.00    +0.120 A 
ATOM      7  C   UNL     1       6.030  -4.008  23.819  0.00  0.00    +0.049 A 
BRANCH   6   8
ATOM      8  O   UNL     1       3.823  -4.523  22.840  0.00  0.00    -0.495 OA
ATOM      9  C   UNL     1       2.968  -5.546  23.335  0.00  0.00    +0.277 C 
ENDBRANCH   6   8
ENDBRANCH   1   2
BRANCH   1  11
ATOM     10  C   UNL     1       7.831  -5.167  26.861  0.00  0.00    +0.005 C 
ATOM     11  C   UNL     1       8.891  -4.444  26.034  0.00  0.00    +0.010 C 
ENDBRANCH   1  11
BRANCH   1  12
ATOM     12  C   UNL     1       7.615  -2.289  25.502  0.00  0.00    +0.010 C 
ATOM     13  C   UNL     1       8.441  -1.355  26.384  0.00  0.00    +0.005 C 
ENDBRANCH   1  12
BRANCH   1  14
ATOM     14  C   UNL     1       9.563  -2.988  24.039  0.00  0.00    +0.115 C 
BRANCH  14  15
ATOM     15  N   UNL     1       9.215  -2.125  22.921  0.00  0.00    -0.314 N 
ATOM     16  H   UNL     1       8.550  -2.481  22.244  0.00  0.00    +0.149 HD
ATOM     17  C   UNL     1       9.802  -0.893  22.736  0.00  0.00    +0.213 C 
ATOM     18  O   UNL     1      10.652  -0.431  23.488  0.00  0.00    -0.276 OA
BRANCH  17  19
ATOM     19  C   UNL     1       9.279  -0.138  21.530  0.00  0.00    +0.098 C 
BRANCH  19  20
ATOM     20  C   UNL     1       8.256   0.928  21.917  0.00  0.00    +0.037 C 
BRANCH  20  21
ATOM     21  C   UNL     1       8.903   2.294  22.114  0.00  0.00    +0.156 C 
BRANCH  21  22
ATOM     22  O   UNL     1      10.244   2.281  21.643  0.00  0.00    -0.395 OA
ATOM     23  H   UNL     1      10.383   3.077  21.106  0.00  0.00    +0.209 HD
ENDBRANCH  21  22
ENDBRANCH  20  21
ENDBRANCH  19  20
ENDBRANCH  17  19
ENDBRANCH  14  15
ENDBRANCH   1  14
TORSDOF 10
ENDMDL
MODEL 2
REMARK VINA RESULT:      -5.7      3.028      8.396
REMARK  Name = 
REMARK  13 active torsions:
REMARK  status: ('A' for Active; 'I' for Inactive)
REMARK    1  A    between atoms: C_1  and  C_2
REMARK    2  A    between atoms: C_2  and  C_3
REMARK    3  A    between atoms: C_3  and  C_4
REMARK    4  A    between atoms: C_3  and  C_6
REMARK    5  A    between atoms: C_3  and  C_14
REMARK    6  A    between atoms: C_4  and  C_5
REMARK    7  A    between atoms: C_6  and  N_7
REMARK    8  A    between atoms: C_8  and  C_10
REMARK    9  A    between atoms: C_10  and  C_11
REMARK   10  A    between atoms: C_11  and  C_12
REMARK   11  A    between atoms: C_12  and  O_13
REMARK   12  A    between atoms: C_16  and  O_17
REMARK   13  A    between atoms: O_17  and  C_18
REMARK                            x       y       z     vdW  Elec       q    Type
REMARK                         _______ _______ _______ _____ _____    ______ ____
ROOT
ATOM      1  C   UNL     1       9.171   1.803  23.781  0.00  0.00    +0.011 C 
ENDROOT
BRANCH   1   2
ATOM      2  C   UNL     1       9.834   3.218  23.733  0.00  0.00    -0.036 A 
ATOM      3  C   UNL     1       9.112   4.383  24.057  0.00  0.00    +0.004 A 
ATOM      4  C   UNL     1       9.715   5.643  24.052  0.00  0.00    +0.004 A 
ATOM      5  C   UNL     1      11.062   5.769  23.735  0.00  0.00    +0.045 A 
ATOM      6  C   UNL     1      11.816   4.642  23.420  0.00  0.00    +0.120 A 
ATOM      7  C   UNL     1      11.204   3.382  23.422  0.00  0.00    +0.049 A 
BRANCH   6   8
ATOM      8  O   UNL     1      13.132   4.898  23.146  0.00  0.00    -0.495 OA
ATOM      9  C   UNL     1      13.412   5.703  22.007  0.00  0.00    +0.277 C 
ENDBRANCH   6   8
ENDBRANCH   1   2
BRANCH   1  11
ATOM     10  C   UNL     1       8.743   1.337  21.237  0.00  0.00    +0.005 C 
ATOM     11  C   UNL     1       8.144   1.577  22.620  0.00  0.00    +0.010 C 
ENDBRANCH   1  11
BRANCH   1  12
ATOM     12  C   UNL     1       8.452   1.575  25.162  0.00  0.00    +0.010 C 
ATOM     13  C   UNL     1       6.956   1.266  25.128  0.00  0.00    +0.005 C 
ENDBRANCH   1  12
BRANCH   1  14
ATOM     14  C   UNL     1      10.324   0.745  23.670  0.00  0.00    +0.115 C 
BRANCH  14  15
ATOM     15  N   UNL     1      10.095  -0.511  24.368  0.00  0.00    -0.314 N 
ATOM     16  H   UNL     1      10.215  -0.517  25.373  0.00  0.00    +0.149 HD
ATOM     17  C   UNL     1       9.785  -1.675  23.699  0.00  0.00    +0.213 C 
ATOM     18  O   UNL     1       9.681  -1.745  22.480  0.00  0.00    -0.276 OA
BRANCH  17  19
ATOM     19  C   UNL     1       9.554  -2.864  24.609  0.00  0.00    +0.098 C 
BRANCH  19  20
ATOM     20  C   UNL     1       8.530  -3.840  24.034  0.00  0.00    +0.037 C 
BRANCH  20  21
ATOM     21  C   UNL     1       8.738  -5.257  24.553  0.00  0.00    +0.156 C 
BRANCH  21  22
ATOM     22  O   UNL     1      10.080  -5.435  24.989  0.00  0.00    -0.395 OA
ATOM     23  H   UNL     1      10.647  -5.488  24.204  0.00  0.00    +0.209 HD
ENDBRANCH  21  22
ENDBRANCH  20  21
ENDBRANCH  19  20
ENDBRANCH  17  19
ENDBRANCH  14  15
ENDBRANCH   1  14
TORSDOF 10
ENDMDL
MODEL 3
REMARK VINA RESULT:      -5.7      1.867      3.254
REMARK  Name = 
REMARK  13 active torsions:
REMARK  status: ('A' for Active; 'I' for Inactive)
REMARK    1  A    between atoms: C_1  and  C_2
REMARK    2  A    between atoms: C_2  and  C_3
REMARK    3  A    between atoms: C_3  and  C_4
REMARK    4  A    between atoms: C_3  and  C_6
REMARK    5  A    between atoms: C_3  and  C_14
REMARK    6  A    between atoms: C_4  and  C_5
REMARK    7  A    between atoms: C_6  and  N_7
REMARK    8  A    between atoms: C_8  and  C_10
REMARK    9  A    between atoms: C_10  and  C_11
REMARK   10  A    between atoms: C_11  and  C_12
REMARK   11  A    between atoms: C_12  and  O_13
REMARK   12  A    between atoms: C_16  and  O_17
REMARK   13  A    between atoms: O_17  and  C_18
REMARK                            x       y       z     vdW  Elec       q    Type
REMARK                         _______ _______ _______ _____ _____    ______ ____
ROOT
ATOM      1  C   UNL     1       6.560  -4.808  23.577  0.00  0.00    +0.011 C 
ENDROOT
BRANCH   1   2
ATOM      2  C   UNL     1       5.098  -5.318  23.785  0.00  0.00    -0.036 A 
ATOM      3  C   UNL     1       3.984  -4.530  23.434  0.00  0.00    +0.004 A 
ATOM      4  C   UNL     1       2.677  -5.001  23.584  0.00  0.00    +0.004 A 
ATOM      5  C   UNL     1       2.450  -6.280  24.076  0.00  0.00    +0.045 A 
ATOM      6  C   UNL     1       3.522  -7.097  24.424  0.00  0.00    +0.120 A 
ATOM      7  C   UNL     1       4.830  -6.617  24.276  0.00  0.00    +0.049 A 
BRANCH   6   8
ATOM      8  O   UNL     1       3.166  -8.339  24.876  0.00  0.00    -0.495 OA
ATOM      9  C   UNL     1       1.802  -8.714  24.732  0.00  0.00    +0.277 C 
ENDBRANCH   6   8
ENDBRANCH   1   2
BRANCH   1  11
ATOM     10  C   UNL     1       6.520  -5.839  21.166  0.00  0.00    +0.005 C 
ATOM     11  C   UNL     1       7.316  -5.584  22.444  0.00  0.00    +0.010 C 
ENDBRANCH   1  11
BRANCH   1  12
ATOM     12  C   UNL     1       7.381  -4.916  24.915  0.00  0.00    +0.010 C 
ATOM     13  C   UNL     1       8.882  -5.178  24.795  0.00  0.00    +0.005 C 
ENDBRANCH   1  12
BRANCH   1  14
ATOM     14  C   UNL     1       6.473  -3.288  23.199  0.00  0.00    +0.115 C 
BRANCH  14  15
ATOM     15  N   UNL     1       7.584  -2.771  22.413  0.00  0.00    -0.314 N 
ATOM     16  H   UNL     1       7.686  -3.112  21.465  0.00  0.00    +0.149 HD
ATOM     17  C   UNL     1       8.509  -1.896  22.940  0.00  0.00    +0.213 C 
ATOM     18  O   UNL     1       8.472  -1.490  24.095  0.00  0.00    -0.276 OA
BRANCH  17  19
ATOM     19  C   UNL     1       9.568  -1.454  21.951  0.00  0.00    +0.098 C 
BRANCH  19  20
ATOM     20  C   UNL     1       9.309  -0.043  21.424  0.00  0.00    +0.037 C 
BRANCH  20  21
ATOM     21  C   UNL     1       9.959   1.021  22.300  0.00  0.00    +0.156 C 
BRANCH  21  22
ATOM     22  O   UNL     1      10.170   2.216  21.557  0.00  0.00    -0.395 OA
ATOM     23  H   UNL     1       9.823   2.079  20.662  0.00  0.00    +0.209 HD
ENDBRANCH  21  22
ENDBRANCH  20  21
ENDBRANCH  19  20
ENDBRANCH  17  19
ENDBRANCH  14  15
ENDBRANCH   1  14
TORSDOF 10
ENDMDL
MODEL 4
REMARK VINA RESULT:      -5.6      2.386      4.040
REMARK  Name = 
REMARK  13 active torsions:
REMARK  status: ('A' for Active; 'I' for Inactive)
REMARK    1  A    between atoms: C_1  and  C_2
REMARK    2  A    between atoms: C_2  and  C_3
REMARK    3  A    between atoms: C_3  and  C_4
REMARK    4  A    between atoms: C_3  and  C_6
REMARK    5  A    between atoms: C_3  and  C_14
REMARK    6  A    between atoms: C_4  and  C_5
REMARK    7  A    between atoms: C_6  and  N_7
REMARK    8  A    between atoms: C_8  and  C_10
REMARK    9  A    between atoms: C_10  and  C_11
REMARK   10  A    between atoms: C_11  and  C_12
REMARK   11  A    between atoms: C_12  and  O_13
REMARK   12  A    between atoms: C_16  and  O_17
REMARK   13  A    between atoms: O_17  and  C_18
REMARK                            x       y       z     vdW  Elec       q    Type
REMARK                         _______ _______ _______ _____ _____    ______ ____
ROOT
ATOM      1  C   UNL     1       7.011  -4.724  23.629  0.00  0.00    +0.011 C 
ENDROOT
BRANCH   1   2
ATOM      2  C   UNL     1       6.305  -5.352  24.875  0.00  0.00    -0.036 A 
ATOM      3  C   UNL     1       5.167  -6.171  24.743  0.00  0.00    +0.004 A 
ATOM      4  C   UNL     1       4.559  -6.764  25.853  0.00  0.00    +0.004 A 
ATOM      5  C   UNL     1       5.083  -6.564  27.124  0.00  0.00    +0.045 A 
ATOM      6  C   UNL     1       6.214  -5.771  27.298  0.00  0.00    +0.120 A 
ATOM      7  C   UNL     1       6.815  -5.175  26.181  0.00  0.00    +0.049 A 
BRANCH   6   8
ATOM      8  O   UNL     1       6.641  -5.668  28.593  0.00  0.00    -0.495 OA
ATOM      9  C   UNL     1       5.714  -6.025  29.611  0.00  0.00    +0.277 C 
ENDBRANCH   6   8
ENDBRANCH   1   2
BRANCH   1  11
ATOM     10  C   UNL     1       5.349  -2.742  24.058  0.00  0.00    +0.005 C 
ATOM     11  C   UNL     1       6.249  -3.476  23.067  0.00  0.00    +0.010 C 
ENDBRANCH   1  11
BRANCH   1  12
ATOM     12  C   UNL     1       7.170  -5.793  22.485  0.00  0.00    +0.010 C 
ATOM     13  C   UNL     1       6.319  -5.606  21.231  0.00  0.00    +0.005 C 
ENDBRANCH   1  12
BRANCH   1  14
ATOM     14  C   UNL     1       8.452  -4.296  24.078  0.00  0.00    +0.115 C 
BRANCH  14  15
ATOM     15  N   UNL     1       8.838  -2.934  23.739  0.00  0.00    -0.314 N 
ATOM     16  H   UNL     1       9.076  -2.742  22.774  0.00  0.00    +0.149 HD
ATOM     17  C   UNL     1       8.942  -1.944  24.691  0.00  0.00    +0.213 C 
ATOM     18  O   UNL     1       8.721  -2.127  25.881  0.00  0.00    -0.276 OA
BRANCH  17  19
ATOM     19  C   UNL     1       9.326  -0.590  24.128  0.00  0.00    +0.098 C 
BRANCH  19  20
ATOM     20  C   UNL     1       8.635  -0.303  22.796  0.00  0.00    +0.037 C 
BRANCH  20  21
ATOM     21  C   UNL     1       9.628  -0.230  21.643  0.00  0.00    +0.156 C 
BRANCH  21  22
ATOM     22  O   UNL     1      10.203  -1.508  21.399  0.00  0.00    -0.395 OA
ATOM     23  H   UNL     1      11.126  -1.485  21.696  0.00  0.00    +0.209 HD
ENDBRANCH  21  22
ENDBRANCH  20  21
ENDBRANCH  19  20
ENDBRANCH  17  19
ENDBRANCH  14  15
ENDBRANCH   1  14
TORSDOF 10
ENDMDL
MODEL 5
REMARK VINA RESULT:      -5.6      2.118      3.994
REMARK  Name = 
REMARK  13 active torsions:
REMARK  status: ('A' for Active; 'I' for Inactive)
REMARK    1  A    between atoms: C_1  and  C_2
REMARK    2  A    between atoms: C_2  and  C_3
REMARK    3  A    between atoms: C_3  and  C_4
REMARK    4  A    between atoms: C_3  and  C_6
REMARK    5  A    between atoms: C_3  and  C_14
REMARK    6  A    between atoms: C_4  and  C_5
REMARK    7  A    between atoms: C_6  and  N_7
REMARK    8  A    between atoms: C_8  and  C_10
REMARK    9  A    between atoms: C_10  and  C_11
REMARK   10  A    between atoms: C_11  and  C_12
REMARK   11  A    between atoms: C_12  and  O_13
REMARK   12  A    between atoms: C_16  and  O_17
REMARK   13  A    between atoms: O_17  and  C_18
REMARK                            x       y       z     vdW  Elec       q    Type
REMARK                         _______ _______ _______ _____ _____    ______ ____
ROOT
ATOM      1  C   UNL     1       6.025  -4.426  23.220  0.00  0.00    +0.011 C 
ENDROOT
BRANCH   1   2
ATOM      2  C   UNL     1       7.084  -4.675  24.342  0.00  0.00    -0.036 A 
ATOM      3  C   UNL     1       8.445  -4.364  24.153  0.00  0.00    +0.004 A 
ATOM      4  C   UNL     1       9.386  -4.550  25.169  0.00  0.00    +0.004 A 
ATOM      5  C   UNL     1       8.987  -5.039  26.407  0.00  0.00    +0.045 A 
ATOM      6  C   UNL     1       7.650  -5.347  26.640  0.00  0.00    +0.120 A 
ATOM      7  C   UNL     1       6.713  -5.163  25.615  0.00  0.00    +0.049 A 
BRANCH   6   8
ATOM      8  O   UNL     1       7.385  -5.800  27.903  0.00  0.00    -0.495 OA
ATOM      9  C   UNL     1       6.017  -5.931  28.270  0.00  0.00    +0.277 C 
ENDBRANCH   6   8
ENDBRANCH   1   2
BRANCH   1  11
ATOM     10  C   UNL     1       3.459  -4.872  23.530  0.00  0.00    +0.005 C 
ATOM     11  C   UNL     1       4.645  -3.945  23.787  0.00  0.00    +0.010 C 
ENDBRANCH   1  11
BRANCH   1  12
ATOM     12  C   UNL     1       5.808  -5.727  22.363  0.00  0.00    +0.010 C 
ATOM     13  C   UNL     1       6.226  -5.675  20.894  0.00  0.00    +0.005 C 
ENDBRANCH   1  12
BRANCH   1  14
ATOM     14  C   UNL     1       6.607  -3.324  22.266  0.00  0.00    +0.115 C 
BRANCH  14  15
ATOM     15  N   UNL     1       6.305  -1.949  22.634  0.00  0.00    -0.314 N 
ATOM     16  H   UNL     1       5.329  -1.685  22.699  0.00  0.00    +0.149 HD
ATOM     17  C   UNL     1       7.293  -1.010  22.831  0.00  0.00    +0.213 C 
ATOM     18  O   UNL     1       8.487  -1.253  22.714  0.00  0.00    -0.276 OA
BRANCH  17  19
ATOM     19  C   UNL     1       6.771   0.353  23.239  0.00  0.00    +0.098 C 
BRANCH  19  20
ATOM     20  C   UNL     1       7.845   1.435  23.136  0.00  0.00    +0.037 C 
BRANCH  20  21
ATOM     21  C   UNL     1       7.959   1.993  21.723  0.00  0.00    +0.156 C 
BRANCH  21  22
ATOM     22  O   UNL     1       9.320   2.033  21.312  0.00  0.00    -0.395 OA
ATOM     23  H   UNL     1       9.672   2.913  21.519  0.00  0.00    +0.209 HD
ENDBRANCH  21  22
ENDBRANCH  20  21
ENDBRANCH  19  20
ENDBRANCH  17  19
ENDBRANCH  14  15
ENDBRANCH   1  14
TORSDOF 10
ENDMDL
MODEL 6
REMARK VINA RESULT:      -5.5      2.627      5.253
REMARK  Name = 
REMARK  13 active torsions:
REMARK  status: ('A' for Active; 'I' for Inactive)
REMARK    1  A    between atoms: C_1  and  C_2
REMARK    2  A    between atoms: C_2  and  C_3
REMARK    3  A    between atoms: C_3  and  C_4
REMARK    4  A    between atoms: C_3  and  C_6
REMARK    5  A    between atoms: C_3  and  C_14
REMARK    6  A    between atoms: C_4  and  C_5
REMARK    7  A    between atoms: C_6  and  N_7
REMARK    8  A    between atoms: C_8  and  C_10
REMARK    9  A    between atoms: C_10  and  C_11
REMARK   10  A    between atoms: C_11  and  C_12
REMARK   11  A    between atoms: C_12  and  O_13
REMARK   12  A    between atoms: C_16  and  O_17
REMARK   13  A    between atoms: O_17  and  C_18
REMARK                            x       y       z     vdW  Elec       q    Type
REMARK                         _______ _______ _______ _____ _____    ______ ____
ROOT
ATOM      1  C   UNL     1       8.796  -1.297  23.381  0.00  0.00    +0.011 C 
ENDROOT
BRANCH   1   2
ATOM      2  C   UNL     1       7.457  -2.097  23.281  0.00  0.00    -0.036 A 
ATOM      3  C   UNL     1       6.406  -1.893  24.195  0.00  0.00    +0.004 A 
ATOM      4  C   UNL     1       5.194  -2.580  24.083  0.00  0.00    +0.004 A 
ATOM      5  C   UNL     1       4.997  -3.479  23.042  0.00  0.00    +0.045 A 
ATOM      6  C   UNL     1       6.006  -3.702  22.109  0.00  0.00    +0.120 A 
ATOM      7  C   UNL     1       7.220  -3.013  22.231  0.00  0.00    +0.049 A 
BRANCH   6   8
ATOM      8  O   UNL     1       5.681  -4.594  21.125  0.00  0.00    -0.495 OA
ATOM      9  C   UNL     1       6.446  -5.791  21.056  0.00  0.00    +0.277 C 
ENDBRANCH   6   8
ENDBRANCH   1   2
BRANCH   1  11
ATOM     10  C   UNL     1       9.789   0.594  24.902  0.00  0.00    +0.005 C 
ATOM     11  C   UNL     1       8.615   0.104  24.059  0.00  0.00    +0.010 C 
ENDBRANCH   1  11
BRANCH   1  12
ATOM     12  C   UNL     1       9.435  -1.103  21.955  0.00  0.00    +0.010 C 
ATOM     13  C   UNL     1       9.264   0.262  21.292  0.00  0.00    +0.005 C 
ENDBRANCH   1  12
BRANCH   1  14
ATOM     14  C   UNL     1       9.792  -2.161  24.230  0.00  0.00    +0.115 C 
BRANCH  14  15
ATOM     15  N   UNL     1       9.196  -2.916  25.323  0.00  0.00    -0.314 N 
ATOM     16  H   UNL     1       8.760  -2.392  26.071  0.00  0.00    +0.149 HD
ATOM     17  C   UNL     1       9.267  -4.291  25.387  0.00  0.00    +0.213 C 
ATOM     18  O   UNL     1       9.828  -4.977  24.543  0.00  0.00    -0.276 OA
BRANCH  17  19
ATOM     19  C   UNL     1       8.557  -4.885  26.586  0.00  0.00    +0.098 C 
BRANCH  19  20
ATOM     20  C   UNL     1       7.068  -5.101  26.326  0.00  0.00    +0.037 C 
BRANCH  20  21
ATOM     21  C   UNL     1       6.346  -5.642  27.554  0.00  0.00    +0.156 C 
BRANCH  21  22
ATOM     22  O   UNL     1       7.237  -6.406  28.358  0.00  0.00    -0.395 OA
ATOM     23  H   UNL     1       6.839  -6.507  29.236  0.00  0.00    +0.209 HD
ENDBRANCH  21  22
ENDBRANCH  20  21
ENDBRANCH  19  20
ENDBRANCH  17  19
ENDBRANCH  14  15
ENDBRANCH   1  14
TORSDOF 10
ENDMDL
MODEL 7
REMARK VINA RESULT:      -5.4      1.861      3.371
REMARK  Name = 
REMARK  13 active torsions:
REMARK  status: ('A' for Active; 'I' for Inactive)
REMARK    1  A    between atoms: C_1  and  C_2
REMARK    2  A    between atoms: C_2  and  C_3
REMARK    3  A    between atoms: C_3  and  C_4
REMARK    4  A    between atoms: C_3  and  C_6
REMARK    5  A    between atoms: C_3  and  C_14
REMARK    6  A    between atoms: C_4  and  C_5
REMARK    7  A    between atoms: C_6  and  N_7
REMARK    8  A    between atoms: C_8  and  C_10
REMARK    9  A    between atoms: C_10  and  C_11
REMARK   10  A    between atoms: C_11  and  C_12
REMARK   11  A    between atoms: C_12  and  O_13
REMARK   12  A    between atoms: C_16  and  O_17
REMARK   13  A    between atoms: O_17  and  C_18
REMARK                            x       y       z     vdW  Elec       q    Type
REMARK                         _______ _______ _______ _____ _____    ______ ____
ROOT
ATOM      1  C   UNL     1       6.836  -4.621  23.564  0.00  0.00    +0.011 C 
ENDROOT
BRANCH   1   2
ATOM      2  C   UNL     1       6.152  -5.384  24.744  0.00  0.00    -0.036 A 
ATOM      3  C   UNL     1       6.598  -5.240  26.073  0.00  0.00    +0.004 A 
ATOM      4  C   UNL     1       5.963  -5.892  27.133  0.00  0.00    +0.004 A 
ATOM      5  C   UNL     1       4.854  -6.693  26.894  0.00  0.00    +0.045 A 
ATOM      6  C   UNL     1       4.372  -6.853  25.598  0.00  0.00    +0.120 A 
ATOM      7  C   UNL     1       5.017  -6.201  24.538  0.00  0.00    +0.049 A 
BRANCH   6   8
ATOM      8  O   UNL     1       3.264  -7.650  25.499  0.00  0.00    -0.495 OA
ATOM      9  C   UNL     1       2.622  -7.711  24.231  0.00  0.00    +0.277 C 
ENDBRANCH   6   8
ENDBRANCH   1   2
BRANCH   1  11
ATOM     10  C   UNL     1       5.477  -2.409  23.936  0.00  0.00    +0.005 C 
ATOM     11  C   UNL     1       5.925  -3.496  22.962  0.00  0.00    +0.010 C 
ENDBRANCH   1  11
BRANCH   1  12
ATOM     12  C   UNL     1       7.247  -5.622  22.421  0.00  0.00    +0.010 C 
ATOM     13  C   UNL     1       6.377  -5.643  21.165  0.00  0.00    +0.005 C 
ENDBRANCH   1  12
BRANCH   1  14
ATOM     14  C   UNL     1       8.153  -3.980  24.125  0.00  0.00    +0.115 C 
BRANCH  14  15
ATOM     15  N   UNL     1       8.906  -3.164  23.184  0.00  0.00    -0.314 N 
ATOM     16  H   UNL     1       9.028  -3.524  22.245  0.00  0.00    +0.149 HD
ATOM     17  C   UNL     1       9.493  -1.973  23.553  0.00  0.00    +0.213 C 
ATOM     18  O   UNL     1       9.429  -1.513  24.686  0.00  0.00    -0.276 OA
BRANCH  17  19
ATOM     19  C   UNL     1      10.204  -1.263  22.420  0.00  0.00    +0.098 C 
BRANCH  19  20
ATOM     20  C   UNL     1       9.402  -0.074  21.893  0.00  0.00    +0.037 C 
BRANCH  20  21
ATOM     21  C   UNL     1       9.841   1.238  22.532  0.00  0.00    +0.156 C 
BRANCH  21  22
ATOM     22  O   UNL     1      10.227   2.173  21.533  0.00  0.00    -0.395 OA
ATOM     23  H   UNL     1      10.807   1.719  20.903  0.00  0.00    +0.209 HD
ENDBRANCH  21  22
ENDBRANCH  20  21
ENDBRANCH  19  20
ENDBRANCH  17  19
ENDBRANCH  14  15
ENDBRANCH   1  14
TORSDOF 10
ENDMDL
MODEL 8
REMARK VINA RESULT:      -5.4      2.554      6.853
REMARK  Name = 
REMARK  13 active torsions:
REMARK  status: ('A' for Active; 'I' for Inactive)
REMARK    1  A    between atoms: C_1  and  C_2
REMARK    2  A    between atoms: C_2  and  C_3
REMARK    3  A    between atoms: C_3  and  C_4
REMARK    4  A    between atoms: C_3  and  C_6
REMARK    5  A    between atoms: C_3  and  C_14
REMARK    6  A    between atoms: C_4  and  C_5
REMARK    7  A    between atoms: C_6  and  N_7
REMARK    8  A    between atoms: C_8  and  C_10
REMARK    9  A    between atoms: C_10  and  C_11
REMARK   10  A    between atoms: C_11  and  C_12
REMARK   11  A    between atoms: C_12  and  O_13
REMARK   12  A    between atoms: C_16  and  O_17
REMARK   13  A    between atoms: O_17  and  C_18
REMARK                            x       y       z     vdW  Elec       q    Type
REMARK                         _______ _______ _______ _____ _____    ______ ____
ROOT
ATOM      1  C   UNL     1       6.464  -3.999  23.306  0.00  0.00    +0.011 C 
ENDROOT
BRANCH   1   2
ATOM      2  C   UNL     1       7.746  -3.109  23.218  0.00  0.00    -0.036 A 
ATOM      3  C   UNL     1       8.827  -3.283  24.104  0.00  0.00    +0.004 A 
ATOM      4  C   UNL     1       9.989  -2.514  24.000  0.00  0.00    +0.004 A 
ATOM      5  C   UNL     1      10.106  -1.560  22.997  0.00  0.00    +0.045 A 
ATOM      6  C   UNL     1       9.066  -1.364  22.093  0.00  0.00    +0.120 A 
ATOM      7  C   UNL     1       7.902  -2.135  22.206  0.00  0.00    +0.049 A 
BRANCH   6   8
ATOM      8  O   UNL     1       9.312  -0.410  21.143  0.00  0.00    -0.495 OA
ATOM      9  C   UNL     1       9.660   0.889  21.605  0.00  0.00    +0.277 C 
ENDBRANCH   6   8
ENDBRANCH   1   2
BRANCH   1  11
ATOM     10  C   UNL     1       6.964  -5.743  21.412  0.00  0.00    +0.005 C 
ATOM     11  C   UNL     1       6.064  -4.621  21.925  0.00  0.00    +0.010 C 
ENDBRANCH   1  11
BRANCH   1  12
ATOM     12  C   UNL     1       5.252  -3.171  23.872  0.00  0.00    +0.010 C 
ATOM     13  C   UNL     1       5.515  -2.292  25.093  0.00  0.00    +0.005 C 
ENDBRANCH   1  12
BRANCH   1  14
ATOM     14  C   UNL     1       6.767  -5.151  24.328  0.00  0.00    +0.115 C 
BRANCH  14  15
ATOM     15  N   UNL     1       5.608  -5.706  25.011  0.00  0.00    -0.314 N 
ATOM     16  H   UNL     1       4.726  -5.706  24.513  0.00  0.00    +0.149 HD
ATOM     17  C   UNL     1       5.672  -6.163  26.309  0.00  0.00    +0.213 C 
ATOM     18  O   UNL     1       6.695  -6.139  26.982  0.00  0.00    -0.276 OA
BRANCH  17  19
ATOM     19  C   UNL     1       4.365  -6.730  26.825  0.00  0.00    +0.098 C 
BRANCH  19  20
ATOM     20  C   UNL     1       3.189  -6.387  25.913  0.00  0.00    +0.037 C 
BRANCH  20  21
ATOM     21  C   UNL     1       2.620  -7.623  25.228  0.00  0.00    +0.156 C 
BRANCH  21  22
ATOM     22  O   UNL     1       3.471  -8.041  24.168  0.00  0.00    -0.395 OA
ATOM     23  H   UNL     1       3.573  -7.299  23.552  0.00  0.00    +0.209 HD
ENDBRANCH  21  22
ENDBRANCH  20  21
ENDBRANCH  19  20
ENDBRANCH  17  19
ENDBRANCH  14  15
ENDBRANCH   1  14
TORSDOF 10
ENDMDL
MODEL 9
REMARK VINA RESULT:      -5.3      1.568      2.538
REMARK  Name = 
REMARK  13 active torsions:
REMARK  status: ('A' for Active; 'I' for Inactive)
REMARK    1  A    between atoms: C_1  and  C_2
REMARK    2  A    between atoms: C_2  and  C_3
REMARK    3  A    between atoms: C_3  and  C_4
REMARK    4  A    between atoms: C_3  and  C_6
REMARK    5  A    between atoms: C_3  and  C_14
REMARK    6  A    between atoms: C_4  and  C_5
REMARK    7  A    between atoms: C_6  and  N_7
REMARK    8  A    between atoms: C_8  and  C_10
REMARK    9  A    between atoms: C_10  and  C_11
REMARK   10  A    between atoms: C_11  and  C_12
REMARK   11  A    between atoms: C_12  and  O_13
REMARK   12  A    between atoms: C_16  and  O_17
REMARK   13  A    between atoms: O_17  and  C_18
REMARK                            x       y       z     vdW  Elec       q    Type
REMARK                         _______ _______ _______ _____ _____    ______ ____
ROOT
ATOM      1  C   UNL     1       7.953  -2.359  23.517  0.00  0.00    +0.011 C 
ENDROOT
BRANCH   1   2
ATOM      2  C   UNL     1       7.093  -3.597  23.102  0.00  0.00    -0.036 A 
ATOM      3  C   UNL     1       7.689  -4.805  22.690  0.00  0.00    +0.004 A 
ATOM      4  C   UNL     1       6.922  -5.924  22.357  0.00  0.00    +0.004 A 
ATOM      5  C   UNL     1       5.536  -5.868  22.441  0.00  0.00    +0.045 A 
ATOM      6  C   UNL     1       4.906  -4.698  22.855  0.00  0.00    +0.120 A 
ATOM      7  C   UNL     1       5.682  -3.578  23.183  0.00  0.00    +0.049 A 
BRANCH   6   8
ATOM      8  O   UNL     1       3.542  -4.778  22.915  0.00  0.00    -0.495 OA
ATOM      9  C   UNL     1       2.979  -6.059  23.169  0.00  0.00    +0.277 C 
ENDBRANCH   6   8
ENDBRANCH   1   2
BRANCH   1  11
ATOM     10  C   UNL     1      10.257  -1.575  22.542  0.00  0.00    +0.005 C 
ATOM     11  C   UNL     1       8.758  -1.753  22.317  0.00  0.00    +0.010 C 
ENDBRANCH   1  11
BRANCH   1  12
ATOM     12  C   UNL     1       8.951  -2.739  24.672  0.00  0.00    +0.010 C 
ATOM     13  C   UNL     1       8.408  -2.722  26.100  0.00  0.00    +0.005 C 
ENDBRANCH   1  12
BRANCH   1  14
ATOM     14  C   UNL     1       6.967  -1.277  24.082  0.00  0.00    +0.115 C 
BRANCH  14  15
ATOM     15  N   UNL     1       7.187   0.082  23.610  0.00  0.00    -0.314 N 
ATOM     16  H   UNL     1       6.903   0.301  22.663  0.00  0.00    +0.149 HD
ATOM     17  C   UNL     1       7.813   1.034  24.385  0.00  0.00    +0.213 C 
ATOM     18  O   UNL     1       8.229   0.816  25.516  0.00  0.00    -0.276 OA
BRANCH  17  19
ATOM     19  C   UNL     1       7.917   2.393  23.723  0.00  0.00    +0.098 C 
BRANCH  19  20
ATOM     20  C   UNL     1       9.336   2.956  23.783  0.00  0.00    +0.037 C 
BRANCH  20  21
ATOM     21  C   UNL     1      10.317   2.117  22.973  0.00  0.00    +0.156 C 
BRANCH  21  22
ATOM     22  O   UNL     1      10.103   2.308  21.580  0.00  0.00    -0.395 OA
ATOM     23  H   UNL     1       9.219   2.686  21.460  0.00  0.00    +0.209 HD
ENDBRANCH  21  22
ENDBRANCH  20  21
ENDBRANCH  19  20
ENDBRANCH  17  19
ENDBRANCH  14  15
ENDBRANCH   1  14
TORSDOF 10
ENDMDL
