MODEL 1
REMARK VINA RESULT:      -6.4      0.000      0.000
REMARK  Name = 
REMARK  6 active torsions:
REMARK  status: ('A' for Active; 'I' for Inactive)
REMARK    1  A    between atoms: C_1  and  O_2
REMARK    2  A    between atoms: O_2  and  C_3
REMARK    3  A    between atoms: C_6  and  C_15
REMARK    4  A    between atoms: C_8  and  O_9
REMARK    5  A    between atoms: O_9  and  C_10
REMARK    6  A    between atoms: N_17  and  C_18
REMARK                            x       y       z     vdW  Elec       q    Type
REMARK                         _______ _______ _______ _____ _____    ______ ____
ROOT
ATOM      1  C   UNL     1       9.230  -2.574  23.941  0.00  0.00    +0.162 A 
ATOM      2  C   UNL     1       8.504  -2.152  22.814  0.00  0.00    +0.163 A 
ATOM      3  C   UNL     1       8.377  -0.764  22.552  0.00  0.00    +0.062 A 
ATOM      4  C   UNL     1       8.957   0.196  23.390  0.00  0.00    +0.041 A 
ATOM      5  C   UNL     1       9.683  -0.242  24.495  0.00  0.00    +0.017 A 
ATOM      6  C   UNL     1       9.821  -1.602  24.765  0.00  0.00    +0.050 A 
ENDROOT
BRANCH   4   7
ATOM      7  C   UNL     1       8.834   1.675  23.225  0.00  0.00    +0.248 C 
ATOM      8  N   UNL     1       9.165   2.494  24.293  0.00  0.00    -0.279 N 
ATOM      9  H   UNL     1       8.938   2.121  25.209  0.00  0.00    +0.155 HD
ATOM     10  O   UNL     1       8.375   2.106  22.170  0.00  0.00    -0.270 OA
BRANCH   8  11
ATOM     11  C   UNL     1       9.078   3.916  24.159  0.00  0.00    +0.074 A 
ATOM     12  C   UNL     1       7.907   4.647  24.447  0.00  0.00    +0.082 A 
ATOM     13 CL   UNL     1       6.370   3.919  24.769  0.00  0.00    -0.080 Cl
ATOM     14  C   UNL     1       7.948   6.036  24.347  0.00  0.00    +0.132 A 
ATOM     15  N   UNL     1       9.039   6.739  23.965  0.00  0.00    -0.260 NA
ATOM     16  C   UNL     1      10.142   6.016  23.666  0.00  0.00    +0.132 A 
ATOM     17  C   UNL     1      10.210   4.626  23.735  0.00  0.00    +0.082 A 
ATOM     18 CL   UNL     1      11.693   3.834  23.360  0.00  0.00    -0.080 Cl
ENDBRANCH   8  11
ENDBRANCH   4   7
BRANCH   1  20
ATOM     19  C   UNL     1       8.626  -4.455  25.265  0.00  0.00    +0.277 C 
ATOM     20  O   UNL     1       9.390  -3.909  24.189  0.00  0.00    -0.491 OA
ENDBRANCH   1  20
BRANCH   2  21
ATOM     21  O   UNL     1       7.883  -2.893  21.850  0.00  0.00    -0.485 OA
BRANCH  21  22
ATOM     22  C   UNL     1       6.720  -3.700  21.978  0.00  0.00    +0.174 C 
ATOM     23  C   UNL     1       5.715  -3.384  23.086  0.00  0.00    +0.044 C 
ATOM     24  C   UNL     1       5.231  -4.738  23.605  0.00  0.00    +0.004 C 
ATOM     25  C   UNL     1       5.651  -5.768  22.563  0.00  0.00    +0.004 C 
ATOM     26  C   UNL     1       6.930  -5.211  21.952  0.00  0.00    +0.044 C 
ENDBRANCH  21  22
ENDBRANCH   2  21
TORSDOF 5
ENDMDL
MODEL 2
REMARK VINA RESULT:      -6.4      0.290      1.829
REMARK  Name = 
REMARK  6 active torsions:
REMARK  status: ('A' for Active; 'I' for Inactive)
REMARK    1  A    between atoms: C_1  and  O_2
REMARK    2  A    between atoms: O_2  and  C_3
REMARK    3  A    between atoms: C_6  and  C_15
REMARK    4  A    between atoms: C_8  and  O_9
REMARK    5  A    between atoms: O_9  and  C_10
REMARK    6  A    between atoms: N_17  and  C_18
REMARK                            x       y       z     vdW  Elec       q    Type
REMARK                         _______ _______ _______ _____ _____    ______ ____
ROOT
ATOM      1  C   UNL     1       9.084  -2.580  23.881  0.00  0.00    +0.162 A 
ATOM      2  C   UNL     1       8.348  -2.095  22.787  0.00  0.00    +0.163 A 
ATOM      3  C   UNL     1       8.262  -0.694  22.577  0.00  0.00    +0.062 A 
ATOM      4  C   UNL     1       8.893   0.215  23.434  0.00  0.00    +0.041 A 
ATOM      5  C   UNL     1       9.628  -0.287  24.506  0.00  0.00    +0.017 A 
ATOM      6  C   UNL     1       9.725  -1.658  24.725  0.00  0.00    +0.050 A 
ENDROOT
BRANCH   4   7
ATOM      7  C   UNL     1       8.818   1.702  23.324  0.00  0.00    +0.248 C 
ATOM      8  N   UNL     1       9.194   2.471  24.413  0.00  0.00    -0.279 N 
ATOM      9  H   UNL     1       8.972   2.073  25.320  0.00  0.00    +0.155 HD
ATOM     10  O   UNL     1       8.354   2.185  22.293  0.00  0.00    -0.270 OA
BRANCH   8  11
ATOM     11  C   UNL     1       9.153   3.899  24.331  0.00  0.00    +0.074 A 
ATOM     12  C   UNL     1      10.185   4.667  23.752  0.00  0.00    +0.082 A 
ATOM     13 CL   UNL     1      11.721   4.023  23.283  0.00  0.00    -0.080 Cl
ATOM     14  C   UNL     1      10.016   6.047  23.663  0.00  0.00    +0.132 A 
ATOM     15  N   UNL     1       8.930   6.712  24.119  0.00  0.00    -0.260 NA
ATOM     16  C   UNL     1       7.966   5.959  24.696  0.00  0.00    +0.132 A 
ATOM     17  C   UNL     1       8.033   4.574  24.835  0.00  0.00    +0.082 A 
ATOM     18 CL   UNL     1       6.715   3.734  25.559  0.00  0.00    -0.080 Cl
ENDBRANCH   8  11
ENDBRANCH   4   7
BRANCH   1  20
ATOM     19  C   UNL     1       8.457  -4.484  25.163  0.00  0.00    +0.277 C 
ATOM     20  O   UNL     1       9.204  -3.928  24.079  0.00  0.00    -0.491 OA
ENDBRANCH   1  20
BRANCH   2  21
ATOM     21  O   UNL     1       7.680  -2.779  21.812  0.00  0.00    -0.485 OA
BRANCH  21  22
ATOM     22  C   UNL     1       6.481  -3.532  21.935  0.00  0.00    +0.174 C 
ATOM     23  C   UNL     1       5.492  -3.179  23.048  0.00  0.00    +0.044 C 
ATOM     24  C   UNL     1       4.946  -4.514  23.555  0.00  0.00    +0.004 C 
ATOM     25  C   UNL     1       5.316  -5.552  22.502  0.00  0.00    +0.004 C 
ATOM     26  C   UNL     1       6.620  -5.050  21.894  0.00  0.00    +0.044 C 
ENDBRANCH  21  22
ENDBRANCH   2  21
TORSDOF 5
ENDMDL
MODEL 3
REMARK VINA RESULT:      -6.3      3.752      6.143
REMARK  Name = 
REMARK  6 active torsions:
REMARK  status: ('A' for Active; 'I' for Inactive)
REMARK    1  A    between atoms: C_1  and  O_2
REMARK    2  A    between atoms: O_2  and  C_3
REMARK    3  A    between atoms: C_6  and  C_15
REMARK    4  A    between atoms: C_8  and  O_9
REMARK    5  A    between atoms: O_9  and  C_10
REMARK    6  A    between atoms: N_17  and  C_18
REMARK                            x       y       z     vdW  Elec       q    Type
REMARK                         _______ _______ _______ _____ _____    ______ ____
ROOT
ATOM      1  C   UNL     1       5.035  -6.582  24.493  0.00  0.00    +0.162 A 
ATOM      2  C   UNL     1       5.698  -6.259  25.689  0.00  0.00    +0.163 A 
ATOM      3  C   UNL     1       6.715  -5.269  25.671  0.00  0.00    +0.062 A 
ATOM      4  C   UNL     1       7.072  -4.607  24.491  0.00  0.00    +0.041 A 
ATOM      5  C   UNL     1       6.393  -4.932  23.318  0.00  0.00    +0.017 A 
ATOM      6  C   UNL     1       5.391  -5.899  23.318  0.00  0.00    +0.050 A 
ENDROOT
BRANCH   4   7
ATOM      7  C   UNL     1       8.159  -3.591  24.364  0.00  0.00    +0.248 C 
ATOM      8  N   UNL     1       7.815  -2.250  24.303  0.00  0.00    -0.279 N 
ATOM      9  H   UNL     1       6.949  -2.049  23.813  0.00  0.00    +0.155 HD
ATOM     10  O   UNL     1       9.316  -3.990  24.247  0.00  0.00    -0.270 OA
BRANCH   8  11
ATOM     11  C   UNL     1       8.836  -1.252  24.203  0.00  0.00    +0.074 A 
ATOM     12  C   UNL     1       9.379  -0.827  22.973  0.00  0.00    +0.082 A 
ATOM     13 CL   UNL     1       9.066  -1.605  21.459  0.00  0.00    -0.080 Cl
ATOM     14  C   UNL     1      10.322   0.199  22.982  0.00  0.00    +0.132 A 
ATOM     15  N   UNL     1      10.775   0.806  24.103  0.00  0.00    -0.260 NA
ATOM     16  C   UNL     1      10.261   0.363  25.273  0.00  0.00    +0.132 A 
ATOM     17  C   UNL     1       9.313  -0.653  25.377  0.00  0.00    +0.082 A 
ATOM     18 CL   UNL     1       8.716  -1.095  26.931  0.00  0.00    -0.080 Cl
ENDBRANCH   8  11
ENDBRANCH   4   7
BRANCH   1  20
ATOM     19  C   UNL     1       2.717  -7.033  24.200  0.00  0.00    +0.277 C 
ATOM     20  O   UNL     1       4.030  -7.510  24.498  0.00  0.00    -0.491 OA
ENDBRANCH   1  20
BRANCH   2  21
ATOM     21  O   UNL     1       5.506  -6.742  26.951  0.00  0.00    -0.485 OA
BRANCH  21  22
ATOM     22  C   UNL     1       4.765  -6.154  28.011  0.00  0.00    +0.174 C 
ATOM     23  C   UNL     1       3.591  -5.232  27.676  0.00  0.00    +0.044 C 
ATOM     24  C   UNL     1       3.640  -4.107  28.711  0.00  0.00    +0.004 C 
ATOM     25  C   UNL     1       4.564  -4.591  29.822  0.00  0.00    +0.004 C 
ATOM     26  C   UNL     1       5.572  -5.501  29.129  0.00  0.00    +0.044 C 
ENDBRANCH  21  22
ENDBRANCH   2  21
TORSDOF 5
ENDMDL
MODEL 4
REMARK VINA RESULT:      -6.3      4.028      8.342
REMARK  Name = 
REMARK  6 active torsions:
REMARK  status: ('A' for Active; 'I' for Inactive)
REMARK    1  A    between atoms: C_1  and  O_2
REMARK    2  A    between atoms: O_2  and  C_3
REMARK    3  A    between atoms: C_6  and  C_15
REMARK    4  A    between atoms: C_8  and  O_9
REMARK    5  A    between atoms: O_9  and  C_10
REMARK    6  A    between atoms: N_17  and  C_18
REMARK                            x       y       z     vdW  Elec       q    Type
REMARK                         _______ _______ _______ _____ _____    ______ ____
ROOT
ATOM      1  C   UNL     1      10.309   2.298  23.577  0.00  0.00    +0.162 A 
ATOM      2  C   UNL     1       8.953   2.332  23.946  0.00  0.00    +0.163 A 
ATOM      3  C   UNL     1       8.432   1.294  24.761  0.00  0.00    +0.062 A 
ATOM      4  C   UNL     1       9.236   0.238  25.206  0.00  0.00    +0.041 A 
ATOM      5  C   UNL     1      10.580   0.229  24.840  0.00  0.00    +0.017 A 
ATOM      6  C   UNL     1      11.109   1.241  24.043  0.00  0.00    +0.050 A 
ENDROOT
BRANCH   4   7
ATOM      7  C   UNL     1       8.766  -0.922  26.021  0.00  0.00    +0.248 C 
ATOM      8  N   UNL     1       8.014  -1.909  25.405  0.00  0.00    -0.279 N 
ATOM      9  H   UNL     1       7.383  -1.581  24.680  0.00  0.00    +0.155 HD
ATOM     10  O   UNL     1       9.005  -0.919  27.227  0.00  0.00    -0.270 OA
BRANCH   8  11
ATOM     11  C   UNL     1       7.567  -3.043  26.155  0.00  0.00    +0.074 A 
ATOM     12  C   UNL     1       8.300  -4.245  26.244  0.00  0.00    +0.082 A 
ATOM     13 CL   UNL     1       9.697  -4.596  25.285  0.00  0.00    -0.080 Cl
ATOM     14  C   UNL     1       7.808  -5.265  27.054  0.00  0.00    +0.132 A 
ATOM     15  N   UNL     1       6.651  -5.192  27.751  0.00  0.00    -0.260 NA
ATOM     16  C   UNL     1       5.950  -4.041  27.629  0.00  0.00    +0.132 A 
ATOM     17  C   UNL     1       6.352  -2.959  26.849  0.00  0.00    +0.082 A 
ATOM     18 CL   UNL     1       5.380  -1.538  26.812  0.00  0.00    -0.080 Cl
ENDBRANCH   8  11
ENDBRANCH   4   7
BRANCH   1  20
ATOM     19  C   UNL     1      11.734   4.200  23.479  0.00  0.00    +0.277 C 
ATOM     20  O   UNL     1      10.835   3.307  22.819  0.00  0.00    -0.491 OA
ENDBRANCH   1  20
BRANCH   2  21
ATOM     21  O   UNL     1       7.995   3.261  23.661  0.00  0.00    -0.485 OA
BRANCH  21  22
ATOM     22  C   UNL     1       7.931   4.614  24.092  0.00  0.00    +0.174 C 
ATOM     23  C   UNL     1       8.271   5.727  23.100  0.00  0.00    +0.044 C 
ATOM     24  C   UNL     1       9.033   6.780  23.905  0.00  0.00    +0.004 C 
ATOM     25  C   UNL     1       8.785   6.455  25.373  0.00  0.00    +0.004 C 
ATOM     26  C   UNL     1       8.610   4.942  25.418  0.00  0.00    +0.044 C 
ENDBRANCH  21  22
ENDBRANCH   2  21
TORSDOF 5
ENDMDL
MODEL 5
REMARK VINA RESULT:      -6.2      3.792      6.118
REMARK  Name = 
REMARK  6 active torsions:
REMARK  status: ('A' for Active; 'I' for Inactive)
REMARK    1  A    between atoms: C_1  and  O_2
REMARK    2  A    between atoms: O_2  and  C_3
REMARK    3  A    between atoms: C_6  and  C_15
REMARK    4  A    between atoms: C_8  and  O_9
REMARK    5  A    between atoms: O_9  and  C_10
REMARK    6  A    between atoms: N_17  and  C_18
REMARK                            x       y       z     vdW  Elec       q    Type
REMARK                         _______ _______ _______ _____ _____    ______ ____
ROOT
ATOM      1  C   UNL     1       5.188  -6.586  24.336  0.00  0.00    +0.162 A 
ATOM      2  C   UNL     1       5.723  -6.184  25.572  0.00  0.00    +0.163 A 
ATOM      3  C   UNL     1       6.712  -5.167  25.600  0.00  0.00    +0.062 A 
ATOM      4  C   UNL     1       7.166  -4.554  24.426  0.00  0.00    +0.041 A 
ATOM      5  C   UNL     1       6.614  -4.957  23.213  0.00  0.00    +0.017 A 
ATOM      6  C   UNL     1       5.641  -5.952  23.167  0.00  0.00    +0.050 A 
ENDROOT
BRANCH   4   7
ATOM      7  C   UNL     1       8.235  -3.514  24.352  0.00  0.00    +0.248 C 
ATOM      8  N   UNL     1       7.865  -2.179  24.318  0.00  0.00    -0.279 N 
ATOM      9  H   UNL     1       7.007  -1.982  23.813  0.00  0.00    +0.155 HD
ATOM     10  O   UNL     1       9.402  -3.887  24.251  0.00  0.00    -0.270 OA
BRANCH   8  11
ATOM     11  C   UNL     1       8.867  -1.159  24.268  0.00  0.00    +0.074 A 
ATOM     12  C   UNL     1       9.385  -0.531  25.421  0.00  0.00    +0.082 A 
ATOM     13 CL   UNL     1       8.725  -0.732  27.008  0.00  0.00    -0.080 Cl
ATOM     14  C   UNL     1      10.406   0.404  25.267  0.00  0.00    +0.132 A 
ATOM     15  N   UNL     1      10.926   0.773  24.073  0.00  0.00    -0.260 NA
ATOM     16  C   UNL     1      10.395   0.179  22.980  0.00  0.00    +0.132 A 
ATOM     17  C   UNL     1       9.374  -0.768  23.021  0.00  0.00    +0.082 A 
ATOM     18 CL   UNL     1       8.816  -1.473  21.552  0.00  0.00    -0.080 Cl
ENDBRANCH   8  11
ENDBRANCH   4   7
BRANCH   1  20
ATOM     19  C   UNL     1       2.860  -7.077  24.317  0.00  0.00    +0.277 C 
ATOM     20  O   UNL     1       4.211  -7.542  24.294  0.00  0.00    -0.491 OA
ENDBRANCH   1  20
BRANCH   2  21
ATOM     21  O   UNL     1       5.420  -6.609  26.833  0.00  0.00    -0.485 OA
BRANCH  21  22
ATOM     22  C   UNL     1       5.667  -5.945  28.065  0.00  0.00    +0.174 C 
ATOM     23  C   UNL     1       6.393  -6.697  29.182  0.00  0.00    +0.044 C 
ATOM     24  C   UNL     1       5.715  -6.261  30.482  0.00  0.00    +0.004 C 
ATOM     25  C   UNL     1       4.906  -5.016  30.142  0.00  0.00    +0.004 C 
ATOM     26  C   UNL     1       4.492  -5.198  28.687  0.00  0.00    +0.044 C 
ENDBRANCH  21  22
ENDBRANCH   2  21
TORSDOF 5
ENDMDL
MODEL 6
REMARK VINA RESULT:      -6.2      2.405      3.879
REMARK  Name = 
REMARK  6 active torsions:
REMARK  status: ('A' for Active; 'I' for Inactive)
REMARK    1  A    between atoms: C_1  and  O_2
REMARK    2  A    between atoms: O_2  and  C_3
REMARK    3  A    between atoms: C_6  and  C_15
REMARK    4  A    between atoms: C_8  and  O_9
REMARK    5  A    between atoms: O_9  and  C_10
REMARK    6  A    between atoms: N_17  and  C_18
REMARK                            x       y       z     vdW  Elec       q    Type
REMARK                         _______ _______ _______ _____ _____    ______ ____
ROOT
ATOM      1  C   UNL     1       7.382  -4.603  23.087  0.00  0.00    +0.162 A 
ATOM      2  C   UNL     1       7.585  -4.353  24.455  0.00  0.00    +0.163 A 
ATOM      3  C   UNL     1       7.973  -3.053  24.871  0.00  0.00    +0.062 A 
ATOM      4  C   UNL     1       8.157  -2.014  23.952  0.00  0.00    +0.041 A 
ATOM      5  C   UNL     1       7.938  -2.278  22.602  0.00  0.00    +0.017 A 
ATOM      6  C   UNL     1       7.555  -3.547  22.176  0.00  0.00    +0.050 A 
ENDROOT
BRANCH   4   7
ATOM      7  C   UNL     1       8.612  -0.632  24.289  0.00  0.00    +0.248 C 
ATOM      8  N   UNL     1       7.894   0.445  23.795  0.00  0.00    -0.279 N 
ATOM      9  H   UNL     1       7.499   0.311  22.869  0.00  0.00    +0.155 HD
ATOM     10  O   UNL     1       9.650  -0.504  24.934  0.00  0.00    -0.270 OA
BRANCH   8  11
ATOM     11  C   UNL     1       8.292   1.781  24.118  0.00  0.00    +0.074 A 
ATOM     12  C   UNL     1       9.209   2.520  23.342  0.00  0.00    +0.082 A 
ATOM     13 CL   UNL     1      10.145   1.846  22.052  0.00  0.00    -0.080 Cl
ATOM     14  C   UNL     1       9.479   3.837  23.707  0.00  0.00    +0.132 A 
ATOM     15  N   UNL     1       8.934   4.456  24.780  0.00  0.00    -0.260 NA
ATOM     16  C   UNL     1       8.079   3.720  25.525  0.00  0.00    +0.132 A 
ATOM     17  C   UNL     1       7.739   2.397  25.249  0.00  0.00    +0.082 A 
ATOM     18 CL   UNL     1       6.606   1.587  26.263  0.00  0.00    -0.080 Cl
ENDBRANCH   8  11
ENDBRANCH   4   7
BRANCH   1  20
ATOM     19  C   UNL     1       6.227  -5.894  21.457  0.00  0.00    +0.277 C 
ATOM     20  O   UNL     1       6.976  -5.841  22.672  0.00  0.00    -0.491 OA
ENDBRANCH   1  20
BRANCH   2  21
ATOM     21  O   UNL     1       7.440  -5.189  25.525  0.00  0.00    -0.485 OA
BRANCH  21  22
ATOM     22  C   UNL     1       6.290  -5.381  26.337  0.00  0.00    +0.174 C 
ATOM     23  C   UNL     1       6.471  -5.628  27.835  0.00  0.00    +0.044 C 
ATOM     24  C   UNL     1       5.414  -6.667  28.214  0.00  0.00    +0.004 C 
ATOM     25  C   UNL     1       4.423  -6.707  27.058  0.00  0.00    +0.004 C 
ATOM     26  C   UNL     1       5.246  -6.367  25.821  0.00  0.00    +0.044 C 
ENDBRANCH  21  22
ENDBRANCH   2  21
TORSDOF 5
ENDMDL
MODEL 7
REMARK VINA RESULT:      -6.2      2.402      3.470
REMARK  Name = 
REMARK  6 active torsions:
REMARK  status: ('A' for Active; 'I' for Inactive)
REMARK    1  A    between atoms: C_1  and  O_2
REMARK    2  A    between atoms: O_2  and  C_3
REMARK    3  A    between atoms: C_6  and  C_15
REMARK    4  A    between atoms: C_8  and  O_9
REMARK    5  A    between atoms: O_9  and  C_10
REMARK    6  A    between atoms: N_17  and  C_18
REMARK                            x       y       z     vdW  Elec       q    Type
REMARK                         _______ _______ _______ _____ _____    ______ ____
ROOT
ATOM      1  C   UNL     1       7.386  -4.544  23.153  0.00  0.00    +0.162 A 
ATOM      2  C   UNL     1       7.553  -4.287  24.525  0.00  0.00    +0.163 A 
ATOM      3  C   UNL     1       7.906  -2.979  24.945  0.00  0.00    +0.062 A 
ATOM      4  C   UNL     1       8.091  -1.938  24.027  0.00  0.00    +0.041 A 
ATOM      5  C   UNL     1       7.907  -2.211  22.673  0.00  0.00    +0.017 A 
ATOM      6  C   UNL     1       7.559  -3.488  22.243  0.00  0.00    +0.050 A 
ENDROOT
BRANCH   4   7
ATOM      7  C   UNL     1       8.510  -0.547  24.370  0.00  0.00    +0.248 C 
ATOM      8  N   UNL     1       7.894   0.513  23.724  0.00  0.00    -0.279 N 
ATOM      9  H   UNL     1       7.643   0.342  22.756  0.00  0.00    +0.155 HD
ATOM     10  O   UNL     1       9.439  -0.399  25.161  0.00  0.00    -0.270 OA
BRANCH   8  11
ATOM     11  C   UNL     1       8.259   1.859  24.047  0.00  0.00    +0.074 A 
ATOM     12  C   UNL     1       7.668   2.586  25.101  0.00  0.00    +0.082 A 
ATOM     13 CL   UNL     1       6.280   2.049  25.984  0.00  0.00    -0.080 Cl
ATOM     14  C   UNL     1       8.143   3.867  25.373  0.00  0.00    +0.132 A 
ATOM     15  N   UNL     1       9.126   4.478  24.673  0.00  0.00    -0.260 NA
ATOM     16  C   UNL     1       9.658   3.774  23.649  0.00  0.00    +0.132 A 
ATOM     17  C   UNL     1       9.260   2.487  23.293  0.00  0.00    +0.082 A 
ATOM     18 CL   UNL     1      10.050   1.690  21.986  0.00  0.00    -0.080 Cl
ENDBRANCH   8  11
ENDBRANCH   4   7
BRANCH   1  20
ATOM     19  C   UNL     1       6.495  -5.890  21.406  0.00  0.00    +0.277 C 
ATOM     20  O   UNL     1       7.014  -5.792  22.733  0.00  0.00    -0.491 OA
ENDBRANCH   1  20
BRANCH   2  21
ATOM     21  O   UNL     1       7.401  -5.122  25.594  0.00  0.00    -0.485 OA
BRANCH  21  22
ATOM     22  C   UNL     1       6.227  -5.362  26.357  0.00  0.00    +0.174 C 
ATOM     23  C   UNL     1       6.360  -5.662  27.851  0.00  0.00    +0.044 C 
ATOM     24  C   UNL     1       5.309  -6.730  28.154  0.00  0.00    +0.004 C 
ATOM     25  C   UNL     1       4.358  -6.742  26.963  0.00  0.00    +0.004 C 
ATOM     26  C   UNL     1       5.217  -6.343  25.769  0.00  0.00    +0.044 C 
ENDBRANCH  21  22
ENDBRANCH   2  21
TORSDOF 5
ENDMDL
MODEL 8
REMARK VINA RESULT:      -6.2      4.018      8.179
REMARK  Name = 
REMARK  6 active torsions:
REMARK  status: ('A' for Active; 'I' for Inactive)
REMARK    1  A    between atoms: C_1  and  O_2
REMARK    2  A    between atoms: O_2  and  C_3
REMARK    3  A    between atoms: C_6  and  C_15
REMARK    4  A    between atoms: C_8  and  O_9
REMARK    5  A    between atoms: O_9  and  C_10
REMARK    6  A    between atoms: N_17  and  C_18
REMARK                            x       y       z     vdW  Elec       q    Type
REMARK                         _______ _______ _______ _____ _____    ______ ____
ROOT
ATOM      1  C   UNL     1       9.563   0.279  22.633  0.00  0.00    +0.162 A 
ATOM      2  C   UNL     1       8.165   0.157  22.558  0.00  0.00    +0.163 A 
ATOM      3  C   UNL     1       7.549  -1.034  23.023  0.00  0.00    +0.062 A 
ATOM      4  C   UNL     1       8.300  -2.089  23.555  0.00  0.00    +0.041 A 
ATOM      5  C   UNL     1       9.683  -1.942  23.633  0.00  0.00    +0.017 A 
ATOM      6  C   UNL     1      10.305  -0.780  23.183  0.00  0.00    +0.050 A 
ENDROOT
BRANCH   4   7
ATOM      7  C   UNL     1       7.747  -3.395  24.021  0.00  0.00    +0.248 C 
ATOM      8  N   UNL     1       6.401  -3.473  24.338  0.00  0.00    -0.279 N 
ATOM      9  H   UNL     1       6.008  -2.639  24.762  0.00  0.00    +0.155 HD
ATOM     10  O   UNL     1       8.525  -4.334  24.174  0.00  0.00    -0.270 OA
BRANCH   8  11
ATOM     11  C   UNL     1       5.836  -4.716  24.767  0.00  0.00    +0.074 A 
ATOM     12  C   UNL     1       5.749  -5.096  26.123  0.00  0.00    +0.082 A 
ATOM     13 CL   UNL     1       6.512  -4.235  27.417  0.00  0.00    -0.080 Cl
ATOM     14  C   UNL     1       5.122  -6.299  26.438  0.00  0.00    +0.132 A 
ATOM     15  N   UNL     1       4.605  -7.150  25.522  0.00  0.00    -0.260 NA
ATOM     16  C   UNL     1       4.725  -6.780  24.227  0.00  0.00    +0.132 A 
ATOM     17  C   UNL     1       5.331  -5.599  23.803  0.00  0.00    +0.082 A 
ATOM     18 CL   UNL     1       5.383  -5.234  22.120  0.00  0.00    -0.080 Cl
ENDBRANCH   8  11
ENDBRANCH   4   7
BRANCH   1  20
ATOM     19  C   UNL     1      10.536   2.364  23.240  0.00  0.00    +0.277 C 
ATOM     20  O   UNL     1      10.170   1.433  22.220  0.00  0.00    -0.491 OA
ENDBRANCH   1  20
BRANCH   2  21
ATOM     21  O   UNL     1       7.234   1.050  22.112  0.00  0.00    -0.485 OA
BRANCH  21  22
ATOM     22  C   UNL     1       6.786   2.239  22.747  0.00  0.00    +0.174 C 
ATOM     23  C   UNL     1       7.154   3.592  22.137  0.00  0.00    +0.044 C 
ATOM     24  C   UNL     1       7.441   4.516  23.321  0.00  0.00    +0.004 C 
ATOM     25  C   UNL     1       6.872   3.820  24.551  0.00  0.00    +0.004 C 
ATOM     26  C   UNL     1       6.997   2.331  24.255  0.00  0.00    +0.044 C 
ENDBRANCH  21  22
ENDBRANCH   2  21
TORSDOF 5
ENDMDL
MODEL 9
REMARK VINA RESULT:      -6.0      2.634      3.902
REMARK  Name = 
REMARK  6 active torsions:
REMARK  status: ('A' for Active; 'I' for Inactive)
REMARK    1  A    between atoms: C_1  and  O_2
REMARK    2  A    between atoms: O_2  and  C_3
REMARK    3  A    between atoms: C_6  and  C_15
REMARK    4  A    between atoms: C_8  and  O_9
REMARK    5  A    between atoms: O_9  and  C_10
REMARK    6  A    between atoms: N_17  and  C_18
REMARK                            x       y       z     vdW  Elec       q    Type
REMARK                         _______ _______ _______ _____ _____    ______ ____
ROOT
ATOM      1  C   UNL     1       6.656  -5.233  25.962  0.00  0.00    +0.162 A 
ATOM      2  C   UNL     1       6.318  -4.659  24.725  0.00  0.00    +0.163 A 
ATOM      3  C   UNL     1       6.969  -3.467  24.314  0.00  0.00    +0.062 A 
ATOM      4  C   UNL     1       7.940  -2.850  25.111  0.00  0.00    +0.041 A 
ATOM      5  C   UNL     1       8.271  -3.442  26.328  0.00  0.00    +0.017 A 
ATOM      6  C   UNL     1       7.643  -4.612  26.746  0.00  0.00    +0.050 A 
ENDROOT
BRANCH   4   7
ATOM      7  C   UNL     1       8.641  -1.572  24.787  0.00  0.00    +0.248 C 
ATOM      8  N   UNL     1       7.988  -0.636  24.000  0.00  0.00    -0.279 N 
ATOM      9  H   UNL     1       7.392  -1.022  23.275  0.00  0.00    +0.155 HD
ATOM     10  O   UNL     1       9.799  -1.430  25.171  0.00  0.00    -0.270 OA
BRANCH   8  11
ATOM     11  C   UNL     1       8.625   0.608  23.689  0.00  0.00    +0.074 A 
ATOM     12  C   UNL     1       8.585   1.728  24.545  0.00  0.00    +0.082 A 
ATOM     13 CL   UNL     1       7.583   1.833  25.953  0.00  0.00    -0.080 Cl
ATOM     14  C   UNL     1       9.294   2.870  24.179  0.00  0.00    +0.132 A 
ATOM     15  N   UNL     1      10.006   2.989  23.034  0.00  0.00    -0.260 NA
ATOM     16  C   UNL     1      10.007   1.913  22.215  0.00  0.00    +0.132 A 
ATOM     17  C   UNL     1       9.335   0.722  22.486  0.00  0.00    +0.082 A 
ATOM     18 CL   UNL     1       9.450  -0.585  21.370  0.00  0.00    -0.080 Cl
ENDBRANCH   8  11
ENDBRANCH   4   7
BRANCH   1  20
ATOM     19  C   UNL     1       4.934  -6.277  27.228  0.00  0.00    +0.277 C 
ATOM     20  O   UNL     1       6.061  -6.398  26.359  0.00  0.00    -0.491 OA
ENDBRANCH   1  20
BRANCH   2  21
ATOM     21  O   UNL     1       5.435  -5.088  23.776  0.00  0.00    -0.485 OA
BRANCH  21  22
ATOM     22  C   UNL     1       4.080  -4.698  23.600  0.00  0.00    +0.174 C 
ATOM     23  C   UNL     1       3.381  -3.915  24.712  0.00  0.00    +0.044 C 
ATOM     24  C   UNL     1       1.949  -4.450  24.758  0.00  0.00    +0.004 C 
ATOM     25  C   UNL     1       1.742  -5.222  23.461  0.00  0.00    +0.004 C 
ATOM     26  C   UNL     1       3.117  -5.773  23.106  0.00  0.00    +0.044 C 
ENDBRANCH  21  22
ENDBRANCH   2  21
TORSDOF 5
ENDMDL
