MODEL 1
REMARK VINA RESULT:      -6.6      0.000      0.000
REMARK  Name = 
REMARK  8 active torsions:
REMARK  status: ('A' for Active; 'I' for Inactive)
REMARK    1  A    between atoms: C_2  and  O_3
REMARK    2  A    between atoms: C_5  and  N_16
REMARK    3  A    between atoms: C_8  and  C_10
REMARK    4  A    between atoms: C_10  and  O_11
REMARK    5  A    between atoms: O_11  and  P_12
REMARK    6  A    between atoms: P_12  and  O_13
REMARK    7  A    between atoms: P_12  and  O_14
REMARK    8  A    between atoms: C_18  and  C_19
REMARK                            x       y       z     vdW  Elec       q    Type
REMARK                         _______ _______ _______ _____ _____    ______ ____
ROOT
ATOM      1  C   UNL     1       7.012  -1.956  23.466  0.00  0.00    +0.150 C 
ATOM      2  C   UNL     1       8.535  -1.882  23.521  0.00  0.00    +0.175 C 
ATOM      3  O   UNL     1       9.020  -3.228  23.301  0.00  0.00    -0.348 OA
ATOM      4  C   UNL     1       7.882  -4.117  23.183  0.00  0.00    +0.226 C 
ATOM      5  C   UNL     1       6.796  -3.198  22.635  0.00  0.00    +0.088 C 
ENDROOT
BRANCH   4   6
ATOM      6  N   UNL     1       7.681  -4.774  24.489  0.00  0.00    -0.274 N 
ATOM      7  C   UNL     1       8.769  -5.168  25.262  0.00  0.00    +0.331 A 
ATOM      8  O   UNL     1       9.945  -5.083  24.919  0.00  0.00    -0.246 OA
ATOM      9  N   UNL     1       8.473  -5.687  26.494  0.00  0.00    -0.275 N 
ATOM     10  H   UNL     1       9.262  -5.960  27.063  0.00  0.00    +0.173 HD
ATOM     11  C   UNL     1       7.255  -5.685  27.100  0.00  0.00    +0.257 A 
ATOM     12  O   UNL     1       7.104  -6.026  28.267  0.00  0.00    -0.267 OA
ATOM     13  C   UNL     1       6.126  -5.222  26.271  0.00  0.00    +0.030 A 
ATOM     14  C   UNL     1       4.757  -5.264  26.866  0.00  0.00    +0.051 C 
ATOM     15  C   UNL     1       6.402  -4.783  25.033  0.00  0.00    +0.101 A 
ENDBRANCH   4   6
BRANCH   1  16
ATOM     16  O   UNL     1       6.421  -0.802  22.901  0.00  0.00    -0.389 OA
ATOM     17  H   UNL     1       5.567  -0.634  23.338  0.00  0.00    +0.210 HD
ENDBRANCH   1  16
BRANCH   2  18
ATOM     18  C   UNL     1       9.024  -1.349  24.865  0.00  0.00    +0.204 C 
BRANCH  18  19
ATOM     19  O   UNL     1       8.485  -0.046  25.099  0.00  0.00    -0.308 OA
BRANCH  19  20
ATOM     20  P   UNL     1       9.363   1.219  24.310  0.00  0.00    +0.303 P 
ATOM     21  S   UNL     1      10.326   2.606  23.445  0.00  0.00    +0.022 S 
BRANCH  20  22
ATOM     22  O   UNL     1      10.627   0.756  25.246  0.00  0.00    -0.327 OA
ATOM     23  H   UNL     1      10.993   1.508  25.746  0.00  0.00    +0.219 HD
ENDBRANCH  20  22
BRANCH  20  24
ATOM     24  O   UNL     1       8.653   2.180  25.424  0.00  0.00    -0.327 OA
ATOM     25  H   UNL     1       9.356   2.702  25.853  0.00  0.00    +0.219 HD
ENDBRANCH  20  24
ENDBRANCH  19  20
ENDBRANCH  18  19
ENDBRANCH   2  18
TORSDOF 7
ENDMDL
MODEL 2
REMARK VINA RESULT:      -6.3      4.367      6.918
REMARK  Name = 
REMARK  8 active torsions:
REMARK  status: ('A' for Active; 'I' for Inactive)
REMARK    1  A    between atoms: C_2  and  O_3
REMARK    2  A    between atoms: C_5  and  N_16
REMARK    3  A    between atoms: C_8  and  C_10
REMARK    4  A    between atoms: C_10  and  O_11
REMARK    5  A    between atoms: O_11  and  P_12
REMARK    6  A    between atoms: P_12  and  O_13
REMARK    7  A    between atoms: P_12  and  O_14
REMARK    8  A    between atoms: C_18  and  C_19
REMARK                            x       y       z     vdW  Elec       q    Type
REMARK                         _______ _______ _______ _____ _____    ______ ____
ROOT
ATOM      1  C   UNL     1       9.208  -2.294  23.571  0.00  0.00    +0.150 C 
ATOM      2  C   UNL     1       8.311  -2.188  22.342  0.00  0.00    +0.175 C 
ATOM      3  O   UNL     1       8.881  -1.151  21.506  0.00  0.00    -0.348 OA
ATOM      4  C   UNL     1      10.026  -0.584  22.189  0.00  0.00    +0.226 C 
ATOM      5  C   UNL     1      10.513  -1.745  23.047  0.00  0.00    +0.088 C 
ENDROOT
BRANCH   4   6
ATOM      6  N   UNL     1       9.592   0.666  22.844  0.00  0.00    -0.274 N 
ATOM      7  C   UNL     1      10.328   1.213  23.891  0.00  0.00    +0.331 A 
ATOM      8  O   UNL     1      11.319   0.697  24.400  0.00  0.00    -0.246 OA
ATOM      9  N   UNL     1       9.887   2.418  24.368  0.00  0.00    -0.275 N 
ATOM     10  H   UNL     1      10.429   2.824  25.117  0.00  0.00    +0.173 HD
ATOM     11  C   UNL     1       8.930   3.207  23.808  0.00  0.00    +0.257 A 
ATOM     12  O   UNL     1       8.705   4.344  24.207  0.00  0.00    -0.267 OA
ATOM     13  C   UNL     1       8.195   2.619  22.672  0.00  0.00    +0.030 A 
ATOM     14  C   UNL     1       7.089   3.416  22.065  0.00  0.00    +0.051 C 
ATOM     15  C   UNL     1       8.575   1.402  22.250  0.00  0.00    +0.101 A 
ENDBRANCH   4   6
BRANCH   1  16
ATOM     16  O   UNL     1       9.321  -3.615  24.063  0.00  0.00    -0.389 OA
ATOM     17  H   UNL     1       8.670  -3.748  24.775  0.00  0.00    +0.210 HD
ENDBRANCH   1  16
BRANCH   2  18
ATOM     18  C   UNL     1       6.874  -1.841  22.721  0.00  0.00    +0.204 C 
BRANCH  18  19
ATOM     19  O   UNL     1       6.224  -2.989  23.270  0.00  0.00    -0.308 OA
BRANCH  19  20
ATOM     20  P   UNL     1       6.232  -4.359  22.215  0.00  0.00    +0.303 P 
ATOM     21  S   UNL     1       6.241  -5.863  21.057  0.00  0.00    +0.022 S 
BRANCH  20  22
ATOM     22  O   UNL     1       4.624  -4.447  22.519  0.00  0.00    -0.327 OA
ATOM     23  H   UNL     1       4.321  -5.373  22.567  0.00  0.00    +0.219 HD
ENDBRANCH  20  22
BRANCH  20  24
ATOM     24  O   UNL     1       6.715  -5.173  23.547  0.00  0.00    -0.327 OA
ATOM     25  H   UNL     1       7.652  -5.412  23.422  0.00  0.00    +0.219 HD
ENDBRANCH  20  24
ENDBRANCH  19  20
ENDBRANCH  18  19
ENDBRANCH   2  18
TORSDOF 7
ENDMDL
MODEL 3
REMARK VINA RESULT:      -6.3      3.101      4.693
REMARK  Name = 
REMARK  8 active torsions:
REMARK  status: ('A' for Active; 'I' for Inactive)
REMARK    1  A    between atoms: C_2  and  O_3
REMARK    2  A    between atoms: C_5  and  N_16
REMARK    3  A    between atoms: C_8  and  C_10
REMARK    4  A    between atoms: C_10  and  O_11
REMARK    5  A    between atoms: O_11  and  P_12
REMARK    6  A    between atoms: P_12  and  O_13
REMARK    7  A    between atoms: P_12  and  O_14
REMARK    8  A    between atoms: C_18  and  C_19
REMARK                            x       y       z     vdW  Elec       q    Type
REMARK                         _______ _______ _______ _____ _____    ______ ____
ROOT
ATOM      1  C   UNL     1       8.936   2.154  22.823  0.00  0.00    +0.150 C 
ATOM      2  C   UNL     1       9.287   2.239  24.305  0.00  0.00    +0.175 C 
ATOM      3  O   UNL     1      10.239   1.179  24.563  0.00  0.00    -0.348 OA
ATOM      4  C   UNL     1      10.430   0.422  23.342  0.00  0.00    +0.226 C 
ATOM      5  C   UNL     1      10.151   1.457  22.260  0.00  0.00    +0.088 C 
ENDROOT
BRANCH   4   6
ATOM      6  N   UNL     1       9.587  -0.788  23.420  0.00  0.00    -0.274 N 
ATOM      7  C   UNL     1       9.148  -1.424  22.263  0.00  0.00    +0.331 A 
ATOM      8  O   UNL     1       9.343  -1.021  21.119  0.00  0.00    -0.246 OA
ATOM      9  N   UNL     1       8.448  -2.586  22.446  0.00  0.00    -0.275 N 
ATOM     10  H   UNL     1       8.141  -3.058  21.608  0.00  0.00    +0.173 HD
ATOM     11  C   UNL     1       8.301  -3.264  23.617  0.00  0.00    +0.257 A 
ATOM     12  O   UNL     1       7.793  -4.378  23.668  0.00  0.00    -0.267 OA
ATOM     13  C   UNL     1       8.814  -2.585  24.822  0.00  0.00    +0.030 A 
ATOM     14  C   UNL     1       8.617  -3.255  26.141  0.00  0.00    +0.051 C 
ATOM     15  C   UNL     1       9.435  -1.407  24.654  0.00  0.00    +0.101 A 
ENDBRANCH   4   6
BRANCH   1  16
ATOM     16  O   UNL     1       8.701   3.420  22.235  0.00  0.00    -0.389 OA
ATOM     17  H   UNL     1       7.861   3.778  22.572  0.00  0.00    +0.210 HD
ENDBRANCH   1  16
BRANCH   2  18
ATOM     18  C   UNL     1       8.051   2.076  25.187  0.00  0.00    +0.204 C 
BRANCH  18  19
ATOM     19  O   UNL     1       6.925   1.714  24.386  0.00  0.00    -0.308 OA
BRANCH  19  20
ATOM     20  P   UNL     1       6.129   0.274  24.920  0.00  0.00    +0.303 P 
ATOM     21  S   UNL     1       5.257  -1.305  25.507  0.00  0.00    +0.022 S 
BRANCH  20  22
ATOM     22  O   UNL     1       6.254  -0.224  23.364  0.00  0.00    -0.327 OA
ATOM     23  H   UNL     1       6.415  -1.184  23.310  0.00  0.00    +0.219 HD
ENDBRANCH  20  22
BRANCH  20  24
ATOM     24  O   UNL     1       4.766   1.153  24.723  0.00  0.00    -0.327 OA
ATOM     25  H   UNL     1       4.268   0.761  23.982  0.00  0.00    +0.219 HD
ENDBRANCH  20  24
ENDBRANCH  19  20
ENDBRANCH  18  19
ENDBRANCH   2  18
TORSDOF 7
ENDMDL
MODEL 4
REMARK VINA RESULT:      -6.3      2.614      3.703
REMARK  Name = 
REMARK  8 active torsions:
REMARK  status: ('A' for Active; 'I' for Inactive)
REMARK    1  A    between atoms: C_2  and  O_3
REMARK    2  A    between atoms: C_5  and  N_16
REMARK    3  A    between atoms: C_8  and  C_10
REMARK    4  A    between atoms: C_10  and  O_11
REMARK    5  A    between atoms: O_11  and  P_12
REMARK    6  A    between atoms: P_12  and  O_13
REMARK    7  A    between atoms: P_12  and  O_14
REMARK    8  A    between atoms: C_18  and  C_19
REMARK                            x       y       z     vdW  Elec       q    Type
REMARK                         _______ _______ _______ _____ _____    ______ ____
ROOT
ATOM      1  C   UNL     1       9.427  -1.777  22.645  0.00  0.00    +0.150 C 
ATOM      2  C   UNL     1       8.769  -0.659  23.448  0.00  0.00    +0.175 C 
ATOM      3  O   UNL     1       8.300  -1.259  24.679  0.00  0.00    -0.348 OA
ATOM      4  C   UNL     1       8.576  -2.680  24.636  0.00  0.00    +0.226 C 
ATOM      5  C   UNL     1       9.801  -2.755  23.733  0.00  0.00    +0.088 C 
ENDROOT
BRANCH   4   6
ATOM      6  N   UNL     1       7.337  -3.373  24.232  0.00  0.00    -0.274 N 
ATOM      7  C   UNL     1       6.122  -3.070  24.841  0.00  0.00    +0.331 A 
ATOM      8  O   UNL     1       5.979  -2.292  25.780  0.00  0.00    -0.246 OA
ATOM      9  N   UNL     1       5.021  -3.704  24.331  0.00  0.00    -0.275 N 
ATOM     10  H   UNL     1       4.137  -3.475  24.761  0.00  0.00    +0.173 HD
ATOM     11  C   UNL     1       4.972  -4.446  23.191  0.00  0.00    +0.257 A 
ATOM     12  O   UNL     1       3.916  -4.849  22.718  0.00  0.00    -0.267 OA
ATOM     13  C   UNL     1       6.270  -4.715  22.543  0.00  0.00    +0.030 A 
ATOM     14  C   UNL     1       6.279  -5.581  21.327  0.00  0.00    +0.051 C 
ATOM     15  C   UNL     1       7.363  -4.156  23.085  0.00  0.00    +0.101 A 
ENDBRANCH   4   6
BRANCH   1  16
ATOM     16  O   UNL     1      10.540  -1.337  21.890  0.00  0.00    -0.389 OA
ATOM     17  H   UNL     1      11.295  -1.194  22.488  0.00  0.00    +0.210 HD
ENDBRANCH   1  16
BRANCH   2  18
ATOM     18  C   UNL     1       7.610  -0.024  22.684  0.00  0.00    +0.204 C 
BRANCH  18  19
ATOM     19  O   UNL     1       8.090   1.052  21.876  0.00  0.00    -0.308 OA
BRANCH  19  20
ATOM     20  P   UNL     1       9.116   2.154  22.728  0.00  0.00    +0.303 P 
ATOM     21  S   UNL     1      10.242   3.362  23.663  0.00  0.00    +0.022 S 
BRANCH  20  22
ATOM     22  O   UNL     1       8.245   3.336  22.000  0.00  0.00    -0.327 OA
ATOM     23  H   UNL     1       8.489   4.217  22.338  0.00  0.00    +0.219 HD
ENDBRANCH  20  22
BRANCH  20  24
ATOM     24  O   UNL     1      10.147   1.894  21.487  0.00  0.00    -0.327 OA
ATOM     25  H   UNL     1       9.718   2.223  20.675  0.00  0.00    +0.219 HD
ENDBRANCH  20  24
ENDBRANCH  19  20
ENDBRANCH  18  19
ENDBRANCH   2  18
TORSDOF 7
ENDMDL
MODEL 5
REMARK VINA RESULT:      -6.2      4.568      5.723
REMARK  Name = 
REMARK  8 active torsions:
REMARK  status: ('A' for Active; 'I' for Inactive)
REMARK    1  A    between atoms: C_2  and  O_3
REMARK    2  A    between atoms: C_5  and  N_16
REMARK    3  A    between atoms: C_8  and  C_10
REMARK    4  A    between atoms: C_10  and  O_11
REMARK    5  A    between atoms: O_11  and  P_12
REMARK    6  A    between atoms: P_12  and  O_13
REMARK    7  A    between atoms: P_12  and  O_14
REMARK    8  A    between atoms: C_18  and  C_19
REMARK                            x       y       z     vdW  Elec       q    Type
REMARK                         _______ _______ _______ _____ _____    ______ ____
ROOT
ATOM      1  C   UNL     1       6.055  -4.876  22.332  0.00  0.00    +0.150 C 
ATOM      2  C   UNL     1       5.048  -3.828  22.795  0.00  0.00    +0.175 C 
ATOM      3  O   UNL     1       5.715  -3.036  23.808  0.00  0.00    -0.348 OA
ATOM      4  C   UNL     1       7.037  -3.587  24.028  0.00  0.00    +0.226 C 
ATOM      5  C   UNL     1       7.367  -4.215  22.680  0.00  0.00    +0.088 C 
ENDROOT
BRANCH   4   6
ATOM      6  N   UNL     1       6.979  -4.443  25.230  0.00  0.00    -0.274 N 
ATOM      7  C   UNL     1       8.081  -5.197  25.620  0.00  0.00    +0.331 A 
ATOM      8  O   UNL     1       9.134  -5.282  24.994  0.00  0.00    -0.246 OA
ATOM      9  N   UNL     1       7.951  -5.886  26.795  0.00  0.00    -0.275 N 
ATOM     10  H   UNL     1       8.755  -6.422  27.089  0.00  0.00    +0.173 HD
ATOM     11  C   UNL     1       6.938  -5.762  27.696  0.00  0.00    +0.257 A 
ATOM     12  O   UNL     1       6.974  -6.297  28.798  0.00  0.00    -0.267 OA
ATOM     13  C   UNL     1       5.802  -4.922  27.274  0.00  0.00    +0.030 A 
ATOM     14  C   UNL     1       4.634  -4.807  28.197  0.00  0.00    +0.051 C 
ATOM     15  C   UNL     1       5.893  -4.304  26.086  0.00  0.00    +0.101 A 
ENDBRANCH   4   6
BRANCH   1  16
ATOM     16  O   UNL     1       5.940  -5.188  20.957  0.00  0.00    -0.389 OA
ATOM     17  H   UNL     1       5.626  -6.105  20.863  0.00  0.00    +0.210 HD
ENDBRANCH   1  16
BRANCH   2  18
ATOM     18  C   UNL     1       3.786  -4.471  23.362  0.00  0.00    +0.204 C 
BRANCH  18  19
ATOM     19  O   UNL     1       3.566  -5.741  22.745  0.00  0.00    -0.308 OA
BRANCH  19  20
ATOM     20  P   UNL     1       2.813  -6.897  23.788  0.00  0.00    +0.303 P 
ATOM     21  S   UNL     1       1.986  -8.165  24.932  0.00  0.00    +0.022 S 
BRANCH  20  22
ATOM     22  O   UNL     1       2.979  -5.764  24.961  0.00  0.00    -0.327 OA
ATOM     23  H   UNL     1       3.717  -5.157  24.766  0.00  0.00    +0.219 HD
ENDBRANCH  20  22
BRANCH  20  24
ATOM     24  O   UNL     1       4.319  -7.516  23.917  0.00  0.00    -0.327 OA
ATOM     25  H   UNL     1       4.761  -7.064  24.659  0.00  0.00    +0.219 HD
ENDBRANCH  20  24
ENDBRANCH  19  20
ENDBRANCH  18  19
ENDBRANCH   2  18
TORSDOF 7
ENDMDL
MODEL 6
REMARK VINA RESULT:      -6.1      3.487      4.924
REMARK  Name = 
REMARK  8 active torsions:
REMARK  status: ('A' for Active; 'I' for Inactive)
REMARK    1  A    between atoms: C_2  and  O_3
REMARK    2  A    between atoms: C_5  and  N_16
REMARK    3  A    between atoms: C_8  and  C_10
REMARK    4  A    between atoms: C_10  and  O_11
REMARK    5  A    between atoms: O_11  and  P_12
REMARK    6  A    between atoms: P_12  and  O_13
REMARK    7  A    between atoms: P_12  and  O_14
REMARK    8  A    between atoms: C_18  and  C_19
REMARK                            x       y       z     vdW  Elec       q    Type
REMARK                         _______ _______ _______ _____ _____    ______ ____
ROOT
ATOM      1  C   UNL     1      10.155   1.902  23.293  0.00  0.00    +0.150 C 
ATOM      2  C   UNL     1       9.181   2.213  24.426  0.00  0.00    +0.175 C 
ATOM      3  O   UNL     1       9.088   1.011  25.229  0.00  0.00    -0.348 OA
ATOM      4  C   UNL     1       9.894  -0.022  24.611  0.00  0.00    +0.226 C 
ATOM      5  C   UNL     1      10.971   0.780  23.890  0.00  0.00    +0.088 C 
ENDROOT
BRANCH   4   6
ATOM      6  N   UNL     1       8.995  -0.892  23.827  0.00  0.00    -0.274 N 
ATOM      7  C   UNL     1       9.491  -1.677  22.790  0.00  0.00    +0.331 A 
ATOM      8  O   UNL     1      10.653  -1.667  22.392  0.00  0.00    -0.246 OA
ATOM      9  N   UNL     1       8.591  -2.513  22.187  0.00  0.00    -0.275 N 
ATOM     10  H   UNL     1       8.951  -3.094  21.444  0.00  0.00    +0.173 HD
ATOM     11  C   UNL     1       7.327  -2.782  22.615  0.00  0.00    +0.257 A 
ATOM     12  O   UNL     1       6.639  -3.661  22.109  0.00  0.00    -0.267 OA
ATOM     13  C   UNL     1       6.842  -1.965  23.743  0.00  0.00    +0.030 A 
ATOM     14  C   UNL     1       5.439  -2.174  24.207  0.00  0.00    +0.051 C 
ATOM     15  C   UNL     1       7.700  -1.089  24.289  0.00  0.00    +0.101 A 
ENDBRANCH   4   6
BRANCH   1  16
ATOM     16  O   UNL     1      10.939   3.016  22.914  0.00  0.00    -0.389 OA
ATOM     17  H   UNL     1      10.535   3.443  22.138  0.00  0.00    +0.210 HD
ENDBRANCH   1  16
BRANCH   2  18
ATOM     18  C   UNL     1       7.807   2.610  23.894  0.00  0.00    +0.204 C 
BRANCH  18  19
ATOM     19  O   UNL     1       7.952   3.504  22.788  0.00  0.00    -0.308 OA
BRANCH  19  20
ATOM     20  P   UNL     1       7.646   5.158  23.191  0.00  0.00    +0.303 P 
ATOM     21  S   UNL     1       7.310   6.972  23.633  0.00  0.00    +0.022 S 
BRANCH  20  22
ATOM     22  O   UNL     1       7.266   5.345  21.608  0.00  0.00    -0.327 OA
ATOM     23  H   UNL     1       8.057   5.540  21.073  0.00  0.00    +0.219 HD
ENDBRANCH  20  22
BRANCH  20  24
ATOM     24  O   UNL     1       9.261   5.327  23.014  0.00  0.00    -0.327 OA
ATOM     25  H   UNL     1       9.658   5.312  23.904  0.00  0.00    +0.219 HD
ENDBRANCH  20  24
ENDBRANCH  19  20
ENDBRANCH  18  19
ENDBRANCH   2  18
TORSDOF 7
ENDMDL
MODEL 7
REMARK VINA RESULT:      -5.9      1.877      2.055
REMARK  Name = 
REMARK  8 active torsions:
REMARK  status: ('A' for Active; 'I' for Inactive)
REMARK    1  A    between atoms: C_2  and  O_3
REMARK    2  A    between atoms: C_5  and  N_16
REMARK    3  A    between atoms: C_8  and  C_10
REMARK    4  A    between atoms: C_10  and  O_11
REMARK    5  A    between atoms: O_11  and  P_12
REMARK    6  A    between atoms: P_12  and  O_13
REMARK    7  A    between atoms: P_12  and  O_14
REMARK    8  A    between atoms: C_18  and  C_19
REMARK                            x       y       z     vdW  Elec       q    Type
REMARK                         _______ _______ _______ _____ _____    ______ ____
ROOT
ATOM      1  C   UNL     1       7.064  -1.666  23.582  0.00  0.00    +0.150 C 
ATOM      2  C   UNL     1       8.535  -1.395  23.881  0.00  0.00    +0.175 C 
ATOM      3  O   UNL     1       9.233  -2.648  23.677  0.00  0.00    -0.348 OA
ATOM      4  C   UNL     1       8.262  -3.669  23.340  0.00  0.00    +0.226 C 
ATOM      5  C   UNL     1       7.152  -2.867  22.671  0.00  0.00    +0.088 C 
ENDROOT
BRANCH   4   6
ATOM      6  N   UNL     1       7.961  -4.434  24.566  0.00  0.00    -0.274 N 
ATOM      7  C   UNL     1       8.985  -5.001  25.318  0.00  0.00    +0.331 A 
ATOM      8  O   UNL     1      10.175  -4.989  25.014  0.00  0.00    -0.246 OA
ATOM      9  N   UNL     1       8.605  -5.613  26.483  0.00  0.00    -0.275 N 
ATOM     10  H   UNL     1       9.348  -6.012  27.039  0.00  0.00    +0.173 HD
ATOM     11  C   UNL     1       7.373  -5.561  27.057  0.00  0.00    +0.257 A 
ATOM     12  O   UNL     1       7.155  -6.004  28.179  0.00  0.00    -0.267 OA
ATOM     13  C   UNL     1       6.316  -4.917  26.255  0.00  0.00    +0.030 A 
ATOM     14  C   UNL     1       4.930  -4.894  26.811  0.00  0.00    +0.051 C 
ATOM     15  C   UNL     1       6.670  -4.382  25.076  0.00  0.00    +0.101 A 
ENDBRANCH   4   6
BRANCH   1  16
ATOM     16  O   UNL     1       6.407  -0.565  22.985  0.00  0.00    -0.389 OA
ATOM     17  H   UNL     1       5.500  -0.825  22.746  0.00  0.00    +0.210 HD
ENDBRANCH   1  16
BRANCH   2  18
ATOM     18  C   UNL     1       8.737  -0.894  25.308  0.00  0.00    +0.204 C 
BRANCH  18  19
ATOM     19  O   UNL     1       8.142   0.396  25.461  0.00  0.00    -0.308 OA
BRANCH  19  20
ATOM     20  P   UNL     1       7.047   0.500  26.796  0.00  0.00    +0.303 P 
ATOM     21  S   UNL     1       5.846   0.613  28.260  0.00  0.00    +0.022 S 
BRANCH  20  22
ATOM     22  O   UNL     1       5.903   0.838  25.672  0.00  0.00    -0.327 OA
ATOM     23  H   UNL     1       5.699   0.056  25.126  0.00  0.00    +0.219 HD
ENDBRANCH  20  22
BRANCH  20  24
ATOM     24  O   UNL     1       7.623   2.023  26.935  0.00  0.00    -0.327 OA
ATOM     25  H   UNL     1       8.377   2.109  26.324  0.00  0.00    +0.219 HD
ENDBRANCH  20  24
ENDBRANCH  19  20
ENDBRANCH  18  19
ENDBRANCH   2  18
TORSDOF 7
ENDMDL
MODEL 8
REMARK VINA RESULT:      -5.9      3.772      6.094
REMARK  Name = 
REMARK  8 active torsions:
REMARK  status: ('A' for Active; 'I' for Inactive)
REMARK    1  A    between atoms: C_2  and  O_3
REMARK    2  A    between atoms: C_5  and  N_16
REMARK    3  A    between atoms: C_8  and  C_10
REMARK    4  A    between atoms: C_10  and  O_11
REMARK    5  A    between atoms: O_11  and  P_12
REMARK    6  A    between atoms: P_12  and  O_13
REMARK    7  A    between atoms: P_12  and  O_14
REMARK    8  A    between atoms: C_18  and  C_19
REMARK                            x       y       z     vdW  Elec       q    Type
REMARK                         _______ _______ _______ _____ _____    ______ ____
ROOT
ATOM      1  C   UNL     1       9.429  -3.584  24.616  0.00  0.00    +0.150 C 
ATOM      2  C   UNL     1       8.082  -3.775  23.925  0.00  0.00    +0.175 C 
ATOM      3  O   UNL     1       7.879  -2.610  23.089  0.00  0.00    -0.348 OA
ATOM      4  C   UNL     1       8.990  -1.701  23.286  0.00  0.00    +0.226 C 
ATOM      5  C   UNL     1      10.128  -2.641  23.666  0.00  0.00    +0.088 C 
ENDROOT
BRANCH   4   6
ATOM      6  N   UNL     1       8.563  -0.660  24.241  0.00  0.00    -0.274 N 
ATOM      7  C   UNL     1       9.499   0.156  24.869  0.00  0.00    +0.331 A 
ATOM      8  O   UNL     1      10.717   0.048  24.757  0.00  0.00    -0.246 OA
ATOM      9  N   UNL     1       8.992   1.146  25.668  0.00  0.00    -0.275 N 
ATOM     10  H   UNL     1       9.669   1.749  26.113  0.00  0.00    +0.173 HD
ATOM     11  C   UNL     1       7.687   1.520  25.760  0.00  0.00    +0.257 A 
ATOM     12  O   UNL     1       7.335   2.518  26.377  0.00  0.00    -0.267 OA
ATOM     13  C   UNL     1       6.720   0.662  25.049  0.00  0.00    +0.030 A 
ATOM     14  C   UNL     1       5.269   0.989  25.173  0.00  0.00    +0.051 C 
ATOM     15  C   UNL     1       7.209  -0.358  24.325  0.00  0.00    +0.101 A 
ENDBRANCH   4   6
BRANCH   1  16
ATOM     16  O   UNL     1      10.131  -4.796  24.808  0.00  0.00    -0.389 OA
ATOM     17  H   UNL     1      11.009  -4.727  24.393  0.00  0.00    +0.210 HD
ENDBRANCH   1  16
BRANCH   2  18
ATOM     18  C   UNL     1       6.946  -3.914  24.936  0.00  0.00    +0.204 C 
BRANCH  18  19
ATOM     19  O   UNL     1       6.964  -5.221  25.513  0.00  0.00    -0.308 OA
BRANCH  19  20
ATOM     20  P   UNL     1       6.331  -5.276  27.122  0.00  0.00    +0.303 P 
ATOM     21  S   UNL     1       5.638  -5.336  28.887  0.00  0.00    +0.022 S 
BRANCH  20  22
ATOM     22  O   UNL     1       7.806  -5.850  27.550  0.00  0.00    -0.327 OA
ATOM     23  H   UNL     1       8.161  -6.457  26.874  0.00  0.00    +0.219 HD
ENDBRANCH  20  22
BRANCH  20  24
ATOM     24  O   UNL     1       5.706  -6.710  26.649  0.00  0.00    -0.327 OA
ATOM     25  H   UNL     1       6.280  -7.413  27.008  0.00  0.00    +0.219 HD
ENDBRANCH  20  24
ENDBRANCH  19  20
ENDBRANCH  18  19
ENDBRANCH   2  18
TORSDOF 7
ENDMDL
MODEL 9
REMARK VINA RESULT:      -5.9      3.847      6.173
REMARK  Name = 
REMARK  8 active torsions:
REMARK  status: ('A' for Active; 'I' for Inactive)
REMARK    1  A    between atoms: C_2  and  O_3
REMARK    2  A    between atoms: C_5  and  N_16
REMARK    3  A    between atoms: C_8  and  C_10
REMARK    4  A    between atoms: C_10  and  O_11
REMARK    5  A    between atoms: O_11  and  P_12
REMARK    6  A    between atoms: P_12  and  O_13
REMARK    7  A    between atoms: P_12  and  O_14
REMARK    8  A    between atoms: C_18  and  C_19
REMARK                            x       y       z     vdW  Elec       q    Type
REMARK                         _______ _______ _______ _____ _____    ______ ____
ROOT
ATOM      1  C   UNL     1       8.804  -4.373  25.659  0.00  0.00    +0.150 C 
ATOM      2  C   UNL     1       7.868  -5.104  24.701  0.00  0.00    +0.175 C 
ATOM      3  O   UNL     1       7.872  -4.347  23.467  0.00  0.00    -0.348 OA
ATOM      4  C   UNL     1       8.700  -3.172  23.646  0.00  0.00    +0.226 C 
ATOM      5  C   UNL     1       9.701  -3.626  24.701  0.00  0.00    +0.088 C 
ENDROOT
BRANCH   4   6
ATOM      6  N   UNL     1       7.810  -2.030  23.939  0.00  0.00    -0.274 N 
ATOM      7  C   UNL     1       6.637  -1.840  23.216  0.00  0.00    +0.331 A 
ATOM      8  O   UNL     1       6.279  -2.523  22.260  0.00  0.00    -0.246 OA
ATOM      9  N   UNL     1       5.842  -0.803  23.625  0.00  0.00    -0.275 N 
ATOM     10  H   UNL     1       4.982  -0.673  23.112  0.00  0.00    +0.173 HD
ATOM     11  C   UNL     1       5.991  -0.071  24.762  0.00  0.00    +0.257 A 
ATOM     12  O   UNL     1       5.147   0.734  25.137  0.00  0.00    -0.267 OA
ATOM     13  C   UNL     1       7.224  -0.324  25.532  0.00  0.00    +0.030 A 
ATOM     14  C   UNL     1       7.470   0.501  26.752  0.00  0.00    +0.051 C 
ATOM     15  C   UNL     1       8.046  -1.289  25.090  0.00  0.00    +0.101 A 
ENDBRANCH   4   6
BRANCH   1  16
ATOM     16  O   UNL     1       9.514  -5.246  26.516  0.00  0.00    -0.389 OA
ATOM     17  H   UNL     1      10.051  -5.854  25.978  0.00  0.00    +0.210 HD
ENDBRANCH   1  16
BRANCH   2  18
ATOM     18  C   UNL     1       6.453  -5.206  25.264  0.00  0.00    +0.204 C 
BRANCH  18  19
ATOM     19  O   UNL     1       6.374  -6.290  26.191  0.00  0.00    -0.308 OA
BRANCH  19  20
ATOM     20  P   UNL     1       5.838  -5.818  27.766  0.00  0.00    +0.303 P 
ATOM     21  S   UNL     1       5.251  -5.299  29.494  0.00  0.00    +0.022 S 
BRANCH  20  22
ATOM     22  O   UNL     1       7.346  -6.223  28.265  0.00  0.00    -0.327 OA
ATOM     23  H   UNL     1       8.026  -5.696  27.806  0.00  0.00    +0.219 HD
ENDBRANCH  20  22
BRANCH  20  24
ATOM     24  O   UNL     1       5.214  -7.327  27.825  0.00  0.00    -0.327 OA
ATOM     25  H   UNL     1       5.821  -7.875  28.356  0.00  0.00    +0.219 HD
ENDBRANCH  20  24
ENDBRANCH  19  20
ENDBRANCH  18  19
ENDBRANCH   2  18
TORSDOF 7
ENDMDL
