MODEL 1
REMARK VINA RESULT:      -6.6      0.000      0.000
REMARK  Name = 
REMARK  4 active torsions:
REMARK  status: ('A' for Active; 'I' for Inactive)
REMARK    1  A    between atoms: C_6  and  N_7
REMARK    2  A    between atoms: N_7  and  C_8
REMARK    3  A    between atoms: C_11  and  S_14
REMARK    4  A    between atoms: S_14  and  N_15
REMARK                            x       y       z     vdW  Elec       q    Type
REMARK                         _______ _______ _______ _____ _____    ______ ____
ROOT
ATOM      1  C   UNL     1       8.605  -2.991  23.245  0.00  0.00    +0.032 A 
ATOM      2  C   UNL     1       8.459  -4.104  24.088  0.00  0.00    +0.025 A 
ATOM      3  C   UNL     1       7.302  -4.881  24.060  0.00  0.00    +0.030 A 
ATOM      4  C   UNL     1       6.286  -4.559  23.163  0.00  0.00    +0.105 A 
ATOM      5  C   UNL     1       6.412  -3.470  22.304  0.00  0.00    +0.030 A 
ATOM      6  C   UNL     1       7.570  -2.697  22.336  0.00  0.00    +0.025 A 
ENDROOT
BRANCH   4   7
ATOM      7  S   UNL     1       4.884  -5.615  23.012  0.00  0.00    +0.056 S 
ATOM      8  O   UNL     1       3.700  -4.805  22.836  0.00  0.00    -0.153 OA
ATOM      9  O   UNL     1       4.971  -6.671  23.991  0.00  0.00    -0.153 OA
BRANCH   7  10
ATOM     10  N   UNL     1       5.261  -6.283  21.528  0.00  0.00    -0.204 NA
ATOM     11  H   UNL     1       5.630  -5.641  20.833  0.00  0.00    +0.144 HD
ATOM     12  H   UNL     1       4.681  -7.069  21.245  0.00  0.00    +0.144 HD
ENDBRANCH   7  10
ENDBRANCH   4   7
BRANCH   1  13
ATOM     13  N   UNL     1       9.789  -2.224  23.201  0.00  0.00    -0.299 N 
ATOM     14  H   UNL     1      10.438  -2.535  22.488  0.00  0.00    +0.154 HD
BRANCH  13  20
ATOM     15  N   UNL     1      10.123   2.273  21.568  0.00  0.00    -0.343 N 
ATOM     16  H   UNL     1      10.735   1.986  20.812  0.00  0.00    +0.144 HD
ATOM     17  H   UNL     1      10.403   3.171  21.955  0.00  0.00    +0.144 HD
ATOM     18  C   UNL     1      10.137   1.352  22.616  0.00  0.00    +0.121 A 
ATOM     19  C   UNL     1       9.878   0.022  22.376  0.00  0.00    +0.087 A 
ATOM     20  C   UNL     1       9.948  -0.840  23.456  0.00  0.00    +0.128 A 
ATOM     21  N   UNL     1      10.213  -0.385  24.689  0.00  0.00    -0.221 NA
ATOM     22  C   UNL     1      10.406   0.932  24.821  0.00  0.00    +0.225 A 
ATOM     23  N   UNL     1      10.389   1.835  23.834  0.00  0.00    -0.221 NA
ENDBRANCH  13  20
ENDBRANCH   1  13
TORSDOF 4
ENDMDL
MODEL 2
REMARK VINA RESULT:      -6.6      4.644      7.138
REMARK  Name = 
REMARK  4 active torsions:
REMARK  status: ('A' for Active; 'I' for Inactive)
REMARK    1  A    between atoms: C_6  and  N_7
REMARK    2  A    between atoms: N_7  and  C_8
REMARK    3  A    between atoms: C_11  and  S_14
REMARK    4  A    between atoms: S_14  and  N_15
REMARK                            x       y       z     vdW  Elec       q    Type
REMARK                         _______ _______ _______ _____ _____    ______ ____
ROOT
ATOM      1  C   UNL     1       9.749  -1.841  24.053  0.00  0.00    +0.032 A 
ATOM      2  C   UNL     1       9.414  -0.945  25.080  0.00  0.00    +0.025 A 
ATOM      3  C   UNL     1       9.463   0.434  24.879  0.00  0.00    +0.030 A 
ATOM      4  C   UNL     1       9.828   0.927  23.627  0.00  0.00    +0.105 A 
ATOM      5  C   UNL     1      10.150   0.060  22.586  0.00  0.00    +0.030 A 
ATOM      6  C   UNL     1      10.099  -1.316  22.792  0.00  0.00    +0.025 A 
ENDROOT
BRANCH   4   7
ATOM      7  S   UNL     1       9.753   2.659  23.312  0.00  0.00    +0.056 S 
ATOM      8  O   UNL     1      11.095   3.194  23.299  0.00  0.00    -0.153 OA
ATOM      9  O   UNL     1       8.686   3.241  24.090  0.00  0.00    -0.153 OA
BRANCH   7  10
ATOM     10  N   UNL     1       9.227   2.579  21.729  0.00  0.00    -0.204 NA
ATOM     11  H   UNL     1       8.770   3.412  21.370  0.00  0.00    +0.144 HD
ATOM     12  H   UNL     1       8.936   1.657  21.415  0.00  0.00    +0.144 HD
ENDBRANCH   7  10
ENDBRANCH   4   7
BRANCH   1  13
ATOM     13  N   UNL     1       9.646  -3.240  24.204  0.00  0.00    -0.299 N 
ATOM     14  H   UNL     1      10.513  -3.672  24.501  0.00  0.00    +0.154 HD
BRANCH  13  20
ATOM     15  N   UNL     1       7.571  -6.010  27.524  0.00  0.00    -0.343 N 
ATOM     16  H   UNL     1       8.426  -6.539  27.662  0.00  0.00    +0.144 HD
ATOM     17  H   UNL     1       6.750  -6.610  27.564  0.00  0.00    +0.144 HD
ATOM     18  C   UNL     1       7.555  -5.377  26.281  0.00  0.00    +0.121 A 
ATOM     19  C   UNL     1       8.595  -4.559  25.905  0.00  0.00    +0.087 A 
ATOM     20  C   UNL     1       8.532  -3.996  24.641  0.00  0.00    +0.128 A 
ATOM     21  N   UNL     1       7.476  -4.207  23.842  0.00  0.00    -0.221 NA
ATOM     22  C   UNL     1       6.498  -4.984  24.321  0.00  0.00    +0.225 A 
ATOM     23  N   UNL     1       6.486  -5.593  25.512  0.00  0.00    -0.221 NA
ENDBRANCH  13  20
ENDBRANCH   1  13
TORSDOF 4
ENDMDL
MODEL 3
REMARK VINA RESULT:      -6.6      2.357      2.837
REMARK  Name = 
REMARK  4 active torsions:
REMARK  status: ('A' for Active; 'I' for Inactive)
REMARK    1  A    between atoms: C_6  and  N_7
REMARK    2  A    between atoms: N_7  and  C_8
REMARK    3  A    between atoms: C_11  and  S_14
REMARK    4  A    between atoms: S_14  and  N_15
REMARK                            x       y       z     vdW  Elec       q    Type
REMARK                         _______ _______ _______ _____ _____    ______ ____
ROOT
ATOM      1  C   UNL     1       8.504  -3.064  23.978  0.00  0.00    +0.032 A 
ATOM      2  C   UNL     1       7.109  -2.951  24.085  0.00  0.00    +0.025 A 
ATOM      3  C   UNL     1       6.388  -3.748  24.973  0.00  0.00    +0.030 A 
ATOM      4  C   UNL     1       7.070  -4.653  25.785  0.00  0.00    +0.105 A 
ATOM      5  C   UNL     1       8.455  -4.773  25.711  0.00  0.00    +0.030 A 
ATOM      6  C   UNL     1       9.170  -3.975  24.822  0.00  0.00    +0.025 A 
ENDROOT
BRANCH   4   7
ATOM      7  S   UNL     1       6.193  -5.559  27.015  0.00  0.00    +0.056 S 
ATOM      8  O   UNL     1       5.545  -6.692  26.393  0.00  0.00    -0.153 OA
ATOM      9  O   UNL     1       5.498  -4.641  27.883  0.00  0.00    -0.153 OA
BRANCH   7  10
ATOM     10  N   UNL     1       7.515  -6.136  27.858  0.00  0.00    -0.204 NA
ATOM     11  H   UNL     1       8.354  -5.566  27.811  0.00  0.00    +0.144 HD
ATOM     12  H   UNL     1       7.582  -7.149  27.919  0.00  0.00    +0.144 HD
ENDBRANCH   7  10
ENDBRANCH   4   7
BRANCH   1  13
ATOM     13  N   UNL     1       9.269  -2.227  23.138  0.00  0.00    -0.299 N 
ATOM     14  H   UNL     1       9.079  -2.373  22.153  0.00  0.00    +0.154 HD
BRANCH  13  20
ATOM     15  N   UNL     1      10.015   2.231  21.535  0.00  0.00    -0.343 N 
ATOM     16  H   UNL     1      10.416   1.886  20.670  0.00  0.00    +0.144 HD
ATOM     17  H   UNL     1      10.508   3.055  21.873  0.00  0.00    +0.144 HD
ATOM     18  C   UNL     1      10.079   1.272  22.547  0.00  0.00    +0.121 A 
ATOM     19  C   UNL     1       9.565   0.013  22.343  0.00  0.00    +0.087 A 
ATOM     20  C   UNL     1       9.699  -0.899  23.376  0.00  0.00    +0.128 A 
ATOM     21  N   UNL     1      10.266  -0.549  24.540  0.00  0.00    -0.221 NA
ATOM     22  C   UNL     1      10.694   0.714  24.649  0.00  0.00    +0.225 A 
ATOM     23  N   UNL     1      10.635   1.653  23.699  0.00  0.00    -0.221 NA
ENDBRANCH  13  20
ENDBRANCH   1  13
TORSDOF 4
ENDMDL
MODEL 4
REMARK VINA RESULT:      -6.4      4.276      6.904
REMARK  Name = 
REMARK  4 active torsions:
REMARK  status: ('A' for Active; 'I' for Inactive)
REMARK    1  A    between atoms: C_6  and  N_7
REMARK    2  A    between atoms: N_7  and  C_8
REMARK    3  A    between atoms: C_11  and  S_14
REMARK    4  A    between atoms: S_14  and  N_15
REMARK                            x       y       z     vdW  Elec       q    Type
REMARK                         _______ _______ _______ _____ _____    ______ ____
ROOT
ATOM      1  C   UNL     1       7.957  -2.216  22.539  0.00  0.00    +0.032 A 
ATOM      2  C   UNL     1       9.129  -1.693  21.969  0.00  0.00    +0.025 A 
ATOM      3  C   UNL     1       9.365  -0.319  21.940  0.00  0.00    +0.030 A 
ATOM      4  C   UNL     1       8.431   0.545  22.509  0.00  0.00    +0.105 A 
ATOM      5  C   UNL     1       7.268   0.052  23.095  0.00  0.00    +0.030 A 
ATOM      6  C   UNL     1       7.037  -1.321  23.122  0.00  0.00    +0.025 A 
ENDROOT
BRANCH   4   7
ATOM      7  S   UNL     1       8.783   2.268  22.613  0.00  0.00    +0.056 S 
ATOM      8  O   UNL     1       9.191   2.585  23.963  0.00  0.00    -0.153 OA
ATOM      9  O   UNL     1       7.764   3.008  21.910  0.00  0.00    -0.153 OA
BRANCH   7  10
ATOM     10  N   UNL     1      10.152   2.279  21.657  0.00  0.00    -0.204 NA
ATOM     11  H   UNL     1      11.018   2.535  22.123  0.00  0.00    +0.144 HD
ATOM     12  H   UNL     1      10.000   2.527  20.683  0.00  0.00    +0.144 HD
ENDBRANCH   7  10
ENDBRANCH   4   7
BRANCH   1  13
ATOM     13  N   UNL     1       7.718  -3.603  22.643  0.00  0.00    -0.299 N 
ATOM     14  H   UNL     1       8.427  -4.163  22.185  0.00  0.00    +0.154 HD
BRANCH  13  20
ATOM     15  N   UNL     1       8.131  -5.682  26.945  0.00  0.00    -0.343 N 
ATOM     16  H   UNL     1       9.017  -6.106  26.690  0.00  0.00    +0.144 HD
ATOM     17  H   UNL     1       7.565  -6.312  27.509  0.00  0.00    +0.144 HD
ATOM     18  C   UNL     1       7.378  -5.351  25.818  0.00  0.00    +0.121 A 
ATOM     19  C   UNL     1       7.922  -4.570  24.825  0.00  0.00    +0.087 A 
ATOM     20  C   UNL     1       7.131  -4.314  23.718  0.00  0.00    +0.128 A 
ATOM     21  N   UNL     1       5.873  -4.773  23.645  0.00  0.00    -0.221 NA
ATOM     22  C   UNL     1       5.427  -5.486  24.685  0.00  0.00    +0.225 A 
ATOM     23  N   UNL     1       6.126  -5.808  25.779  0.00  0.00    -0.221 NA
ENDBRANCH  13  20
ENDBRANCH   1  13
TORSDOF 4
ENDMDL
MODEL 5
REMARK VINA RESULT:      -6.4      4.457      6.958
REMARK  Name = 
REMARK  4 active torsions:
REMARK  status: ('A' for Active; 'I' for Inactive)
REMARK    1  A    between atoms: C_6  and  N_7
REMARK    2  A    between atoms: N_7  and  C_8
REMARK    3  A    between atoms: C_11  and  S_14
REMARK    4  A    between atoms: S_14  and  N_15
REMARK                            x       y       z     vdW  Elec       q    Type
REMARK                         _______ _______ _______ _____ _____    ______ ____
ROOT
ATOM      1  C   UNL     1       9.650  -2.187  24.084  0.00  0.00    +0.032 A 
ATOM      2  C   UNL     1      10.132  -1.718  22.851  0.00  0.00    +0.025 A 
ATOM      3  C   UNL     1      10.113  -0.358  22.541  0.00  0.00    +0.030 A 
ATOM      4  C   UNL     1       9.631   0.549  23.482  0.00  0.00    +0.105 A 
ATOM      5  C   UNL     1       9.161   0.112  24.719  0.00  0.00    +0.030 A 
ATOM      6  C   UNL     1       9.183  -1.246  25.023  0.00  0.00    +0.025 A 
ENDROOT
BRANCH   4   7
ATOM      7  S   UNL     1       9.737   2.279  23.166  0.00  0.00    +0.056 S 
ATOM      8  O   UNL     1      11.026   2.760  23.608  0.00  0.00    -0.153 OA
ATOM      9  O   UNL     1       8.496   2.912  23.539  0.00  0.00    -0.153 OA
BRANCH   7  10
ATOM     10  N   UNL     1       9.774   2.203  21.498  0.00  0.00    -0.204 NA
ATOM     11  H   UNL     1       9.185   2.871  21.009  0.00  0.00    +0.144 HD
ATOM     12  H   UNL     1       9.933   1.277  21.109  0.00  0.00    +0.144 HD
ENDBRANCH   7  10
ENDBRANCH   4   7
BRANCH   1  13
ATOM     13  N   UNL     1       9.715  -3.547  24.455  0.00  0.00    -0.299 N 
ATOM     14  H   UNL     1      10.646  -3.840  24.727  0.00  0.00    +0.154 HD
BRANCH  13  20
ATOM     15  N   UNL     1       5.449  -5.737  24.384  0.00  0.00    -0.343 N 
ATOM     16  H   UNL     1       5.015  -4.945  23.922  0.00  0.00    +0.144 HD
ATOM     17  H   UNL     1       4.829  -6.151  25.078  0.00  0.00    +0.144 HD
ATOM     18  C   UNL     1       6.618  -5.365  25.049  0.00  0.00    +0.121 A 
ATOM     19  C   UNL     1       7.617  -4.699  24.377  0.00  0.00    +0.087 A 
ATOM     20  C   UNL     1       8.731  -4.326  25.110  0.00  0.00    +0.128 A 
ATOM     21  N   UNL     1       8.844  -4.644  26.407  0.00  0.00    -0.221 NA
ATOM     22  C   UNL     1       7.835  -5.331  26.954  0.00  0.00    +0.225 A 
ATOM     23  N   UNL     1       6.710  -5.707  26.336  0.00  0.00    -0.221 NA
ENDBRANCH  13  20
ENDBRANCH   1  13
TORSDOF 4
ENDMDL
MODEL 6
REMARK VINA RESULT:      -6.4      4.229      6.906
REMARK  Name = 
REMARK  4 active torsions:
REMARK  status: ('A' for Active; 'I' for Inactive)
REMARK    1  A    between atoms: C_6  and  N_7
REMARK    2  A    between atoms: N_7  and  C_8
REMARK    3  A    between atoms: C_11  and  S_14
REMARK    4  A    between atoms: S_14  and  N_15
REMARK                            x       y       z     vdW  Elec       q    Type
REMARK                         _______ _______ _______ _____ _____    ______ ____
ROOT
ATOM      1  C   UNL     1       9.456  -2.255  24.079  0.00  0.00    +0.032 A 
ATOM      2  C   UNL     1       9.149  -1.305  25.065  0.00  0.00    +0.025 A 
ATOM      3  C   UNL     1       9.298   0.060  24.822  0.00  0.00    +0.030 A 
ATOM      4  C   UNL     1       9.736   0.485  23.569  0.00  0.00    +0.105 A 
ATOM      5  C   UNL     1      10.032  -0.436  22.567  0.00  0.00    +0.030 A 
ATOM      6  C   UNL     1       9.881  -1.798  22.816  0.00  0.00    +0.025 A 
ENDROOT
BRANCH   4   7
ATOM      7  S   UNL     1       9.787   2.206  23.197  0.00  0.00    +0.056 S 
ATOM      8  O   UNL     1      11.050   2.747  23.644  0.00  0.00    -0.153 OA
ATOM      9  O   UNL     1       8.518   2.806  23.527  0.00  0.00    -0.153 OA
BRANCH   7  10
ATOM     10  N   UNL     1       9.857   2.077  21.533  0.00  0.00    -0.204 NA
ATOM     11  H   UNL     1      10.407   2.784  21.054  0.00  0.00    +0.144 HD
ATOM     12  H   UNL     1       9.028   1.685  21.093  0.00  0.00    +0.144 HD
ENDBRANCH   7  10
ENDBRANCH   4   7
BRANCH   1  13
ATOM     13  N   UNL     1       9.254  -3.639  24.271  0.00  0.00    -0.299 N 
ATOM     14  H   UNL     1       9.916  -4.051  24.918  0.00  0.00    +0.154 HD
BRANCH  13  20
ATOM     15  N   UNL     1       5.978  -6.252  21.939  0.00  0.00    -0.343 N 
ATOM     16  H   UNL     1       6.017  -5.639  21.132  0.00  0.00    +0.144 HD
ATOM     17  H   UNL     1       5.028  -6.566  22.125  0.00  0.00    +0.144 HD
ATOM     18  C   UNL     1       6.431  -5.611  23.093  0.00  0.00    +0.121 A 
ATOM     19  C   UNL     1       7.666  -5.006  23.112  0.00  0.00    +0.087 A 
ATOM     20  C   UNL     1       8.033  -4.355  24.277  0.00  0.00    +0.128 A 
ATOM     21  N   UNL     1       7.232  -4.358  25.353  0.00  0.00    -0.221 NA
ATOM     22  C   UNL     1       6.071  -5.013  25.243  0.00  0.00    +0.225 A 
ATOM     23  N   UNL     1       5.620  -5.642  24.152  0.00  0.00    -0.221 NA
ENDBRANCH  13  20
ENDBRANCH   1  13
TORSDOF 4
ENDMDL
MODEL 7
REMARK VINA RESULT:      -6.3      3.907      5.707
REMARK  Name = 
REMARK  4 active torsions:
REMARK  status: ('A' for Active; 'I' for Inactive)
REMARK    1  A    between atoms: C_6  and  N_7
REMARK    2  A    between atoms: N_7  and  C_8
REMARK    3  A    between atoms: C_11  and  S_14
REMARK    4  A    between atoms: S_14  and  N_15
REMARK                            x       y       z     vdW  Elec       q    Type
REMARK                         _______ _______ _______ _____ _____    ______ ____
ROOT
ATOM      1  C   UNL     1       9.410   2.495  23.301  0.00  0.00    +0.032 A 
ATOM      2  C   UNL     1       9.584   1.799  22.094  0.00  0.00    +0.025 A 
ATOM      3  C   UNL     1       9.594   0.405  22.062  0.00  0.00    +0.030 A 
ATOM      4  C   UNL     1       9.403  -0.306  23.245  0.00  0.00    +0.105 A 
ATOM      5  C   UNL     1       9.213   0.360  24.454  0.00  0.00    +0.030 A 
ATOM      6  C   UNL     1       9.204   1.752  24.480  0.00  0.00    +0.025 A 
ENDROOT
BRANCH   4   7
ATOM      7  S   UNL     1       9.266  -2.061  23.200  0.00  0.00    +0.056 S 
ATOM      8  O   UNL     1      10.590  -2.637  23.145  0.00  0.00    -0.153 OA
ATOM      9  O   UNL     1       8.211  -2.436  22.290  0.00  0.00    -0.153 OA
BRANCH   7  10
ATOM     10  N   UNL     1       8.685  -2.283  24.750  0.00  0.00    -0.204 NA
ATOM     11  H   UNL     1       9.324  -2.045  25.503  0.00  0.00    +0.144 HD
ATOM     12  H   UNL     1       8.022  -3.047  24.861  0.00  0.00    +0.144 HD
ENDBRANCH   7  10
ENDBRANCH   4   7
BRANCH   1  13
ATOM     13  N   UNL     1       9.329   3.903  23.358  0.00  0.00    -0.299 N 
ATOM     14  H   UNL     1       8.421   4.237  23.657  0.00  0.00    +0.154 HD
BRANCH  13  20
ATOM     15  N   UNL     1      13.927   5.258  23.192  0.00  0.00    -0.343 N 
ATOM     16  H   UNL     1      14.245   4.310  23.364  0.00  0.00    +0.144 HD
ATOM     17  H   UNL     1      14.505   5.940  23.678  0.00  0.00    +0.144 HD
ATOM     18  C   UNL     1      12.615   5.446  23.629  0.00  0.00    +0.121 A 
ATOM     19  C   UNL     1      11.614   4.605  23.202  0.00  0.00    +0.087 A 
ATOM     20  C   UNL     1      10.344   4.826  23.708  0.00  0.00    +0.128 A 
ATOM     21  N   UNL     1      10.100   5.847  24.543  0.00  0.00    -0.221 NA
ATOM     22  C   UNL     1      11.136   6.631  24.861  0.00  0.00    +0.225 A 
ATOM     23  N   UNL     1      12.399   6.477  24.448  0.00  0.00    -0.221 NA
ENDBRANCH  13  20
ENDBRANCH   1  13
TORSDOF 4
ENDMDL
MODEL 8
REMARK VINA RESULT:      -6.3      3.205      3.929
REMARK  Name = 
REMARK  4 active torsions:
REMARK  status: ('A' for Active; 'I' for Inactive)
REMARK    1  A    between atoms: C_6  and  N_7
REMARK    2  A    between atoms: N_7  and  C_8
REMARK    3  A    between atoms: C_11  and  S_14
REMARK    4  A    between atoms: S_14  and  N_15
REMARK                            x       y       z     vdW  Elec       q    Type
REMARK                         _______ _______ _______ _____ _____    ______ ____
ROOT
ATOM      1  C   UNL     1       9.383  -0.504  25.148  0.00  0.00    +0.032 A 
ATOM      2  C   UNL     1       9.886  -1.274  24.087  0.00  0.00    +0.025 A 
ATOM      3  C   UNL     1       9.728  -2.659  24.064  0.00  0.00    +0.030 A 
ATOM      4  C   UNL     1       9.036  -3.284  25.100  0.00  0.00    +0.105 A 
ATOM      5  C   UNL     1       8.513  -2.542  26.157  0.00  0.00    +0.030 A 
ATOM      6  C   UNL     1       8.674  -1.159  26.175  0.00  0.00    +0.025 A 
ENDROOT
BRANCH   4   7
ATOM      7  S   UNL     1       8.699  -5.011  25.012  0.00  0.00    +0.056 S 
ATOM      8  O   UNL     1       8.412  -5.365  23.641  0.00  0.00    -0.153 OA
ATOM      9  O   UNL     1       7.848  -5.389  26.113  0.00  0.00    -0.153 OA
BRANCH   7  10
ATOM     10  N   UNL     1      10.237  -5.561  25.363  0.00  0.00    -0.204 NA
ATOM     11  H   UNL     1      10.599  -6.288  24.753  0.00  0.00    +0.144 HD
ATOM     12  H   UNL     1      10.491  -5.541  26.347  0.00  0.00    +0.144 HD
ENDBRANCH   7  10
ENDBRANCH   4   7
BRANCH   1  13
ATOM     13  N   UNL     1       9.469   0.904  25.169  0.00  0.00    -0.299 N 
ATOM     14  H   UNL     1      10.383   1.242  25.449  0.00  0.00    +0.154 HD
BRANCH  13  20
ATOM     15  N   UNL     1       9.250   5.299  23.263  0.00  0.00    -0.343 N 
ATOM     16  H   UNL     1       9.458   5.731  24.157  0.00  0.00    +0.144 HD
ATOM     17  H   UNL     1       8.559   5.835  22.741  0.00  0.00    +0.144 HD
ATOM     18  C   UNL     1       8.734   4.012  23.423  0.00  0.00    +0.121 A 
ATOM     19  C   UNL     1       9.418   3.079  24.168  0.00  0.00    +0.087 A 
ATOM     20  C   UNL     1       8.828   1.835  24.318  0.00  0.00    +0.128 A 
ATOM     21  N   UNL     1       7.662   1.546  23.721  0.00  0.00    -0.221 NA
ATOM     22  C   UNL     1       7.102   2.512  22.983  0.00  0.00    +0.225 A 
ATOM     23  N   UNL     1       7.581   3.748  22.807  0.00  0.00    -0.221 NA
ENDBRANCH  13  20
ENDBRANCH   1  13
TORSDOF 4
ENDMDL
MODEL 9
REMARK VINA RESULT:      -6.3      2.526      3.100
REMARK  Name = 
REMARK  4 active torsions:
REMARK  status: ('A' for Active; 'I' for Inactive)
REMARK    1  A    between atoms: C_6  and  N_7
REMARK    2  A    between atoms: N_7  and  C_8
REMARK    3  A    between atoms: C_11  and  S_14
REMARK    4  A    between atoms: S_14  and  N_15
REMARK                            x       y       z     vdW  Elec       q    Type
REMARK                         _______ _______ _______ _____ _____    ______ ____
ROOT
ATOM      1  C   UNL     1       8.514  -2.843  23.466  0.00  0.00    +0.032 A 
ATOM      2  C   UNL     1       7.631  -3.892  23.164  0.00  0.00    +0.025 A 
ATOM      3  C   UNL     1       7.085  -4.686  24.171  0.00  0.00    +0.030 A 
ATOM      4  C   UNL     1       7.403  -4.416  25.501  0.00  0.00    +0.105 A 
ATOM      5  C   UNL     1       8.264  -3.371  25.829  0.00  0.00    +0.030 A 
ATOM      6  C   UNL     1       8.807  -2.581  24.819  0.00  0.00    +0.025 A 
ENDROOT
BRANCH   4   7
ATOM      7  S   UNL     1       6.608  -5.313  26.792  0.00  0.00    +0.056 S 
ATOM      8  O   UNL     1       5.877  -6.418  26.216  0.00  0.00    -0.153 OA
ATOM      9  O   UNL     1       6.017  -4.385  27.725  0.00  0.00    -0.153 OA
BRANCH   7  10
ATOM     10  N   UNL     1       7.979  -5.936  27.513  0.00  0.00    -0.204 NA
ATOM     11  H   UNL     1       8.779  -5.312  27.562  0.00  0.00    +0.144 HD
ATOM     12  H   UNL     1       8.114  -6.938  27.396  0.00  0.00    +0.144 HD
ENDBRANCH   7  10
ENDBRANCH   4   7
BRANCH   1  13
ATOM     13  N   UNL     1       9.033  -1.980  22.477  0.00  0.00    -0.299 N 
ATOM     14  H   UNL     1       9.187  -2.442  21.588  0.00  0.00    +0.154 HD
BRANCH  13  20
ATOM     15  N   UNL     1      10.640   2.489  21.816  0.00  0.00    -0.343 N 
ATOM     16  H   UNL     1      11.362   2.367  22.517  0.00  0.00    +0.144 HD
ATOM     17  H   UNL     1      10.237   3.423  21.853  0.00  0.00    +0.144 HD
ATOM     18  C   UNL     1       9.594   1.584  21.993  0.00  0.00    +0.121 A 
ATOM     19  C   UNL     1       9.850   0.234  22.071  0.00  0.00    +0.087 A 
ATOM     20  C   UNL     1       8.768  -0.602  22.288  0.00  0.00    +0.128 A 
ATOM     21  N   UNL     1       7.522  -0.115  22.372  0.00  0.00    -0.221 NA
ATOM     22  C   UNL     1       7.378   1.209  22.239  0.00  0.00    +0.225 A 
ATOM     23  N   UNL     1       8.363   2.096  22.058  0.00  0.00    -0.221 NA
ENDBRANCH  13  20
ENDBRANCH   1  13
TORSDOF 4
ENDMDL
