MODEL 1
REMARK VINA RESULT:      -3.2      0.000      0.000
REMARK  Name = 
REMARK  5 active torsions:
REMARK  status: ('A' for Active; 'I' for Inactive)
REMARK    1  A    between atoms: C_1  and  N_2
REMARK    2  A    between atoms: N_2  and  C_3
REMARK    3  A    between atoms: N_2  and  C_4
REMARK    4  A    between atoms: C_4  and  C_5
REMARK    5  A    between atoms: C_5  and  O_6
REMARK                            x       y       z     vdW  Elec       q    Type
REMARK                         _______ _______ _______ _____ _____    ______ ____
ROOT
ATOM      1  C   UNL     1       8.498  -4.552  26.438  0.00  0.00    +0.205 C 
ENDROOT
BRANCH   1   3
ATOM      2  C   UNL     1       6.741  -5.526  27.759  0.00  0.00    +0.105 C 
ATOM      3  N   UNL     1       7.433  -5.601  26.461  0.00  0.00    -0.299 NA
ATOM      4  C   UNL     1       6.442  -5.354  25.397  0.00  0.00    +0.105 C 
ENDBRANCH   1   3
BRANCH   1   5
ATOM      5  C   UNL     1       9.449  -4.761  25.263  0.00  0.00    +0.319 C 
ATOM      6  O   UNL     1       9.804  -3.882  24.491  0.00  0.00    -0.250 OA
BRANCH   5   7
ATOM      7  O   UNL     1       9.914  -6.037  25.199  0.00  0.00    -0.480 OA
ATOM      8  H   UNL     1      10.601  -6.125  25.902  0.00  0.00    +0.295 HD
ENDBRANCH   5   7
ENDBRANCH   1   5
TORSDOF 3
ENDMDL
MODEL 2
REMARK VINA RESULT:      -3.2      2.273      3.265
REMARK  Name = 
REMARK  5 active torsions:
REMARK  status: ('A' for Active; 'I' for Inactive)
REMARK    1  A    between atoms: C_1  and  N_2
REMARK    2  A    between atoms: N_2  and  C_3
REMARK    3  A    between atoms: N_2  and  C_4
REMARK    4  A    between atoms: C_4  and  C_5
REMARK    5  A    between atoms: C_5  and  O_6
REMARK                            x       y       z     vdW  Elec       q    Type
REMARK                         _______ _______ _______ _____ _____    ______ ____
ROOT
ATOM      1  C   UNL     1       8.821  -3.822  25.509  0.00  0.00    +0.205 C 
ENDROOT
BRANCH   1   3
ATOM      2  C   UNL     1       7.924  -3.717  23.281  0.00  0.00    +0.105 C 
ATOM      3  N   UNL     1       9.173  -3.706  24.061  0.00  0.00    -0.299 NA
ATOM      4  C   UNL     1       9.867  -2.430  23.799  0.00  0.00    +0.105 C 
ENDBRANCH   1   3
BRANCH   1   5
ATOM      5  C   UNL     1       8.729  -5.283  25.937  0.00  0.00    +0.319 C 
ATOM      6  O   UNL     1       7.777  -5.777  26.524  0.00  0.00    -0.250 OA
BRANCH   5   7
ATOM      7  O   UNL     1       9.810  -6.004  25.536  0.00  0.00    -0.480 OA
ATOM      8  H   UNL     1      10.171  -5.555  24.735  0.00  0.00    +0.295 HD
ENDBRANCH   5   7
ENDBRANCH   1   5
TORSDOF 3
ENDMDL
MODEL 3
REMARK VINA RESULT:      -3.1      5.963      6.969
REMARK  Name = 
REMARK  5 active torsions:
REMARK  status: ('A' for Active; 'I' for Inactive)
REMARK    1  A    between atoms: C_1  and  N_2
REMARK    2  A    between atoms: N_2  and  C_3
REMARK    3  A    between atoms: N_2  and  C_4
REMARK    4  A    between atoms: C_4  and  C_5
REMARK    5  A    between atoms: C_5  and  O_6
REMARK                            x       y       z     vdW  Elec       q    Type
REMARK                         _______ _______ _______ _____ _____    ______ ____
ROOT
ATOM      1  C   UNL     1       9.858  -0.124  21.927  0.00  0.00    +0.205 C 
ENDROOT
BRANCH   1   3
ATOM      2  C   UNL     1       9.945  -2.041  23.376  0.00  0.00    +0.105 C 
ATOM      3  N   UNL     1       9.593  -0.612  23.315  0.00  0.00    -0.299 NA
ATOM      4  C   UNL     1      10.436   0.111  24.286  0.00  0.00    +0.105 C 
ENDBRANCH   1   3
BRANCH   1   5
ATOM      5  C   UNL     1       9.221   1.243  21.695  0.00  0.00    +0.319 C 
ATOM      6  O   UNL     1       8.018   1.459  21.702  0.00  0.00    -0.250 OA
BRANCH   5   7
ATOM      7  O   UNL     1      10.151   2.223  21.537  0.00  0.00    -0.480 OA
ATOM      8  H   UNL     1       9.892   2.734  20.734  0.00  0.00    +0.295 HD
ENDBRANCH   5   7
ENDBRANCH   1   5
TORSDOF 3
ENDMDL
MODEL 4
REMARK VINA RESULT:      -3.1      5.474      6.530
REMARK  Name = 
REMARK  5 active torsions:
REMARK  status: ('A' for Active; 'I' for Inactive)
REMARK    1  A    between atoms: C_1  and  N_2
REMARK    2  A    between atoms: N_2  and  C_3
REMARK    3  A    between atoms: N_2  and  C_4
REMARK    4  A    between atoms: C_4  and  C_5
REMARK    5  A    between atoms: C_5  and  O_6
REMARK                            x       y       z     vdW  Elec       q    Type
REMARK                         _______ _______ _______ _____ _____    ______ ____
ROOT
ATOM      1  C   UNL     1       9.424  -0.395  23.295  0.00  0.00    +0.205 C 
ENDROOT
BRANCH   1   3
ATOM      2  C   UNL     1       9.557   1.661  22.056  0.00  0.00    +0.105 C 
ATOM      3  N   UNL     1      10.304   0.764  22.954  0.00  0.00    -0.299 NA
ATOM      4  C   UNL     1      10.656   1.520  24.170  0.00  0.00    +0.105 C 
ENDBRANCH   1   3
BRANCH   1   5
ATOM      5  C   UNL     1      10.041  -1.709  22.827  0.00  0.00    +0.319 C 
ATOM      6  O   UNL     1      10.233  -2.680  23.544  0.00  0.00    -0.250 OA
BRANCH   5   7
ATOM      7  O   UNL     1      10.304  -1.707  21.493  0.00  0.00    -0.480 OA
ATOM      8  H   UNL     1      11.046  -2.341  21.348  0.00  0.00    +0.295 HD
ENDBRANCH   5   7
ENDBRANCH   1   5
TORSDOF 3
ENDMDL
MODEL 5
REMARK VINA RESULT:      -3.0      4.873      5.536
REMARK  Name = 
REMARK  5 active torsions:
REMARK  status: ('A' for Active; 'I' for Inactive)
REMARK    1  A    between atoms: C_1  and  N_2
REMARK    2  A    between atoms: N_2  and  C_3
REMARK    3  A    between atoms: N_2  and  C_4
REMARK    4  A    between atoms: C_4  and  C_5
REMARK    5  A    between atoms: C_5  and  O_6
REMARK                            x       y       z     vdW  Elec       q    Type
REMARK                         _______ _______ _______ _____ _____    ______ ____
ROOT
ATOM      1  C   UNL     1       9.140  -0.639  23.420  0.00  0.00    +0.205 C 
ENDROOT
BRANCH   1   3
ATOM      2  C   UNL     1      10.797   0.573  24.672  0.00  0.00    +0.105 C 
ATOM      3  N   UNL     1       9.521  -0.154  24.782  0.00  0.00    -0.299 NA
ATOM      4  C   UNL     1       8.503   0.779  25.301  0.00  0.00    +0.105 C 
ENDBRANCH   1   3
BRANCH   1   5
ATOM      5  C   UNL     1      10.018  -1.809  22.988  0.00  0.00    +0.319 C 
ATOM      6  O   UNL     1      10.239  -2.800  23.670  0.00  0.00    -0.250 OA
BRANCH   5   7
ATOM      7  O   UNL     1      10.488  -1.659  21.722  0.00  0.00    -0.480 OA
ATOM      8  H   UNL     1      11.473  -1.680  21.778  0.00  0.00    +0.295 HD
ENDBRANCH   5   7
ENDBRANCH   1   5
TORSDOF 3
ENDMDL
MODEL 6
REMARK VINA RESULT:      -3.0      6.113      6.940
REMARK  Name = 
REMARK  5 active torsions:
REMARK  status: ('A' for Active; 'I' for Inactive)
REMARK    1  A    between atoms: C_1  and  N_2
REMARK    2  A    between atoms: N_2  and  C_3
REMARK    3  A    between atoms: N_2  and  C_4
REMARK    4  A    between atoms: C_4  and  C_5
REMARK    5  A    between atoms: C_5  and  O_6
REMARK                            x       y       z     vdW  Elec       q    Type
REMARK                         _______ _______ _______ _____ _____    ______ ____
ROOT
ATOM      1  C   UNL     1       9.249   0.738  23.179  0.00  0.00    +0.205 C 
ENDROOT
BRANCH   1   3
ATOM      2  C   UNL     1       9.809  -1.374  24.182  0.00  0.00    +0.105 C 
ATOM      3  N   UNL     1       9.987  -0.546  22.977  0.00  0.00    -0.299 NA
ATOM      4  C   UNL     1       9.433  -1.284  21.826  0.00  0.00    +0.105 C 
ENDBRANCH   1   3
BRANCH   1   5
ATOM      5  C   UNL     1      10.134   1.937  22.851  0.00  0.00    +0.319 C 
ATOM      6  O   UNL     1      10.824   2.534  23.664  0.00  0.00    -0.250 OA
BRANCH   5   7
ATOM      7  O   UNL     1      10.120   2.238  21.525  0.00  0.00    -0.480 OA
ATOM      8  H   UNL     1      10.652   1.543  21.069  0.00  0.00    +0.295 HD
ENDBRANCH   5   7
ENDBRANCH   1   5
TORSDOF 3
ENDMDL
MODEL 7
REMARK VINA RESULT:      -3.0      1.943      2.365
REMARK  Name = 
REMARK  5 active torsions:
REMARK  status: ('A' for Active; 'I' for Inactive)
REMARK    1  A    between atoms: C_1  and  N_2
REMARK    2  A    between atoms: N_2  and  C_3
REMARK    3  A    between atoms: N_2  and  C_4
REMARK    4  A    between atoms: C_4  and  C_5
REMARK    5  A    between atoms: C_5  and  O_6
REMARK                            x       y       z     vdW  Elec       q    Type
REMARK                         _______ _______ _______ _____ _____    ______ ____
ROOT
ATOM      1  C   UNL     1       8.586  -4.172  24.362  0.00  0.00    +0.205 C 
ENDROOT
BRANCH   1   3
ATOM      2  C   UNL     1       6.421  -5.203  24.538  0.00  0.00    +0.105 C 
ATOM      3  N   UNL     1       7.630  -5.113  23.702  0.00  0.00    -0.299 NA
ATOM      4  C   UNL     1       7.234  -4.601  22.376  0.00  0.00    +0.105 C 
ENDBRANCH   1   3
BRANCH   1   5
ATOM      5  C   UNL     1       9.261  -4.828  25.562  0.00  0.00    +0.319 C 
ATOM      6  O   UNL     1       9.129  -4.461  26.720  0.00  0.00    -0.250 OA
BRANCH   5   7
ATOM      7  O   UNL     1       9.990  -5.920  25.208  0.00  0.00    -0.480 OA
ATOM      8  H   UNL     1      10.420  -6.255  26.031  0.00  0.00    +0.295 HD
ENDBRANCH   5   7
ENDBRANCH   1   5
TORSDOF 3
ENDMDL
MODEL 8
REMARK VINA RESULT:      -2.8      4.979      5.790
REMARK  Name = 
REMARK  5 active torsions:
REMARK  status: ('A' for Active; 'I' for Inactive)
REMARK    1  A    between atoms: C_1  and  N_2
REMARK    2  A    between atoms: N_2  and  C_3
REMARK    3  A    between atoms: N_2  and  C_4
REMARK    4  A    between atoms: C_4  and  C_5
REMARK    5  A    between atoms: C_5  and  O_6
REMARK                            x       y       z     vdW  Elec       q    Type
REMARK                         _______ _______ _______ _____ _____    ______ ____
ROOT
ATOM      1  C   UNL     1       8.787  -0.372  23.108  0.00  0.00    +0.205 C 
ENDROOT
BRANCH   1   3
ATOM      2  C   UNL     1       9.354  -0.554  25.437  0.00  0.00    +0.105 C 
ATOM      3  N   UNL     1       9.753  -0.967  24.081  0.00  0.00    -0.299 NA
ATOM      4  C   UNL     1       9.710  -2.440  24.017  0.00  0.00    +0.105 C 
ENDBRANCH   1   3
BRANCH   1   5
ATOM      5  C   UNL     1       9.506   0.140  21.863  0.00  0.00    +0.319 C 
ATOM      6  O   UNL     1      10.009   1.249  21.759  0.00  0.00    -0.250 OA
BRANCH   5   7
ATOM      7  O   UNL     1       9.581  -0.804  20.888  0.00  0.00    -0.480 OA
ATOM      8  H   UNL     1       9.154  -0.420  20.086  0.00  0.00    +0.295 HD
ENDBRANCH   5   7
ENDBRANCH   1   5
TORSDOF 3
ENDMDL
MODEL 9
REMARK VINA RESULT:      -2.8      2.417      3.263
REMARK  Name = 
REMARK  5 active torsions:
REMARK  status: ('A' for Active; 'I' for Inactive)
REMARK    1  A    between atoms: C_1  and  N_2
REMARK    2  A    between atoms: N_2  and  C_3
REMARK    3  A    between atoms: N_2  and  C_4
REMARK    4  A    between atoms: C_4  and  C_5
REMARK    5  A    between atoms: C_5  and  O_6
REMARK                            x       y       z     vdW  Elec       q    Type
REMARK                         _______ _______ _______ _____ _____    ______ ____
ROOT
ATOM      1  C   UNL     1       7.186  -4.267  25.660  0.00  0.00    +0.205 C 
ENDROOT
BRANCH   1   3
ATOM      2  C   UNL     1       7.605  -5.088  23.440  0.00  0.00    +0.105 C 
ATOM      3  N   UNL     1       8.252  -4.692  24.702  0.00  0.00    -0.299 NA
ATOM      4  C   UNL     1       9.167  -3.570  24.417  0.00  0.00    +0.105 C 
ENDBRANCH   1   3
BRANCH   1   5
ATOM      5  C   UNL     1       7.325  -4.996  26.993  0.00  0.00    +0.319 C 
ATOM      6  O   UNL     1       6.626  -4.789  27.974  0.00  0.00    -0.250 OA
BRANCH   5   7
ATOM      7  O   UNL     1       8.285  -5.958  26.955  0.00  0.00    -0.480 OA
ATOM      8  H   UNL     1       7.912  -6.713  26.440  0.00  0.00    +0.295 HD
ENDBRANCH   5   7
ENDBRANCH   1   5
TORSDOF 3
ENDMDL
