MODEL 1
REMARK VINA RESULT:      -8.0      0.000      0.000
REMARK  Name = 
REMARK  6 active torsions:
REMARK  status: ('A' for Active; 'I' for Inactive)
REMARK    1  A    between atoms: C_2  and  C_3
REMARK    2  A    between atoms: C_2  and  C_18
REMARK    3  A    between atoms: C_3  and  C_4
REMARK    4  A    between atoms: C_4  and  C_5
REMARK    5  A    between atoms: N_8  and  C_9
REMARK    6  A    between atoms: C_9  and  C_10
REMARK                            x       y       z     vdW  Elec       q    Type
REMARK                         _______ _______ _______ _____ _____    ______ ____
ROOT
ATOM      1  C   UNL     1       8.411  -2.592  24.217  0.00  0.00    +0.080 C 
ENDROOT
BRANCH   1   3
ATOM      2  O   UNL     1       9.747  -4.575  24.552  0.00  0.00    -0.292 OA
ATOM      3  C   UNL     1       8.633  -4.059  24.532  0.00  0.00    +0.163 C 
BRANCH   3   4
ATOM      4  C   UNL     1       7.417  -4.875  24.842  0.00  0.00    +0.019 A 
ATOM      5  C   UNL     1       7.148  -5.217  26.166  0.00  0.00    +0.012 A 
ATOM      6  C   UNL     1       5.994  -5.940  26.480  0.00  0.00    +0.006 A 
ATOM      7  C   UNL     1       5.088  -6.325  25.477  0.00  0.00    -0.026 A 
ATOM      8  C   UNL     1       3.840  -7.083  25.856  0.00  0.00    +0.037 C 
ATOM      9  C   UNL     1       2.559  -6.328  25.496  0.00  0.00    +0.006 C 
ATOM     10  C   UNL     1       2.219  -6.386  24.007  0.00  0.00    +0.019 C 
ATOM     11  C   UNL     1       3.227  -5.670  23.112  0.00  0.00    +0.101 C 
ATOM     12  N   UNL     1       4.523  -6.353  23.072  0.00  0.00    -0.344 N 
ATOM     13  H   UNL     1       4.385  -7.364  23.079  0.00  0.00    +0.146 HD
ATOM     14  C   UNL     1       5.367  -6.000  24.141  0.00  0.00    +0.031 A 
ATOM     15  C   UNL     1       6.529  -5.281  23.837  0.00  0.00    +0.034 A 
ENDBRANCH   3   4
ENDBRANCH   1   3
BRANCH   1  16
ATOM     16  C   UNL     1       8.548  -2.223  22.741  0.00  0.00    +0.011 C 
BRANCH  16  17
ATOM     17  C   UNL     1       9.720  -1.242  22.514  0.00  0.00    -0.008 C 
ATOM     18  C   UNL     1      10.124  -0.560  23.832  0.00  0.00    +0.019 C 
ATOM     19  C   UNL     1       9.276   0.674  24.155  0.00  0.00    +0.085 C 
ATOM     20  N   UNL     1       9.238   1.661  23.063  0.00  0.00    -0.298 NA
ATOM     21  C   UNL     1       8.679   1.024  21.864  0.00  0.00    +0.085 C 
ATOM     22  C   UNL     1       9.466  -0.203  21.401  0.00  0.00    +0.019 C 
BRANCH  20  23
ATOM     23  C   UNL     1      10.566   2.267  22.846  0.00  0.00    +0.119 C 
BRANCH  23  24
ATOM     24  C   UNL     1      10.714   3.675  23.385  0.00  0.00    -0.033 A 
ATOM     25  C   UNL     1       9.607   4.338  23.939  0.00  0.00    +0.005 A 
ATOM     26  C   UNL     1       9.728   5.647  24.407  0.00  0.00    +0.000 A 
ATOM     27  C   UNL     1      10.953   6.306  24.322  0.00  0.00    +0.000 A 
ATOM     28  C   UNL     1      12.057   5.658  23.774  0.00  0.00    +0.000 A 
ATOM     29  C   UNL     1      11.940   4.348  23.306  0.00  0.00    +0.005 A 
ENDBRANCH  23  24
ENDBRANCH  20  23
ENDBRANCH  16  17
ENDBRANCH   1  16
TORSDOF 6
ENDMDL
MODEL 2
REMARK VINA RESULT:      -7.8      0.976      1.854
REMARK  Name = 
REMARK  6 active torsions:
REMARK  status: ('A' for Active; 'I' for Inactive)
REMARK    1  A    between atoms: C_2  and  C_3
REMARK    2  A    between atoms: C_2  and  C_18
REMARK    3  A    between atoms: C_3  and  C_4
REMARK    4  A    between atoms: C_4  and  C_5
REMARK    5  A    between atoms: N_8  and  C_9
REMARK    6  A    between atoms: C_9  and  C_10
REMARK                            x       y       z     vdW  Elec       q    Type
REMARK                         _______ _______ _______ _____ _____    ______ ____
ROOT
ATOM      1  C   UNL     1       9.319  -2.819  24.507  0.00  0.00    +0.080 C 
ENDROOT
BRANCH   1   3
ATOM      2  O   UNL     1       9.957  -5.122  24.851  0.00  0.00    -0.292 OA
ATOM      3  C   UNL     1       9.072  -4.313  24.589  0.00  0.00    +0.163 C 
BRANCH   3   4
ATOM      4  C   UNL     1       7.670  -4.780  24.347  0.00  0.00    +0.019 A 
ATOM      5  C   UNL     1       7.325  -5.271  23.089  0.00  0.00    +0.012 A 
ATOM      6  C   UNL     1       6.035  -5.754  22.858  0.00  0.00    +0.006 A 
ATOM      7  C   UNL     1       5.070  -5.759  23.881  0.00  0.00    -0.026 A 
ATOM      8  C   UNL     1       3.695  -6.310  23.602  0.00  0.00    +0.037 C 
ATOM      9  C   UNL     1       3.354  -7.517  24.477  0.00  0.00    +0.006 C 
ATOM     10  C   UNL     1       2.982  -7.141  25.912  0.00  0.00    +0.019 C 
ATOM     11  C   UNL     1       4.130  -6.531  26.711  0.00  0.00    +0.101 C 
ATOM     12  N   UNL     1       4.507  -5.201  26.221  0.00  0.00    -0.344 N 
ATOM     13  H   UNL     1       3.675  -4.685  25.936  0.00  0.00    +0.146 HD
ATOM     14  C   UNL     1       5.409  -5.245  25.142  0.00  0.00    +0.031 A 
ATOM     15  C   UNL     1       6.703  -4.759  25.361  0.00  0.00    +0.034 A 
ENDBRANCH   3   4
ENDBRANCH   1   3
BRANCH   1  16
ATOM     16  C   UNL     1       9.098  -2.204  23.126  0.00  0.00    +0.011 C 
BRANCH  16  17
ATOM     17  C   UNL     1      10.149  -1.113  22.824  0.00  0.00    -0.008 C 
ATOM     18  C   UNL     1      10.480  -0.306  24.091  0.00  0.00    +0.019 C 
ATOM     19  C   UNL     1       9.497   0.842  24.345  0.00  0.00    +0.085 C 
ATOM     20  N   UNL     1       9.342   1.746  23.193  0.00  0.00    -0.298 NA
ATOM     21  C   UNL     1       8.854   0.974  22.043  0.00  0.00    +0.085 C 
ATOM     22  C   UNL     1       9.773  -0.184  21.649  0.00  0.00    +0.019 C 
BRANCH  20  23
ATOM     23  C   UNL     1      10.591   2.484  22.922  0.00  0.00    +0.119 C 
BRANCH  23  24
ATOM     24  C   UNL     1      10.615   3.902  23.452  0.00  0.00    -0.033 A 
ATOM     25  C   UNL     1      11.788   4.669  23.362  0.00  0.00    +0.005 A 
ATOM     26  C   UNL     1      11.828   5.965  23.878  0.00  0.00    +0.000 A 
ATOM     27  C   UNL     1      10.699   6.504  24.490  0.00  0.00    +0.000 A 
ATOM     28  C   UNL     1       9.530   5.753  24.585  0.00  0.00    +0.000 A 
ATOM     29  C   UNL     1       9.487   4.456  24.070  0.00  0.00    +0.005 A 
ENDBRANCH  23  24
ENDBRANCH  20  23
ENDBRANCH  16  17
ENDBRANCH   1  16
TORSDOF 6
ENDMDL
MODEL 3
REMARK VINA RESULT:      -7.6      1.234      1.800
REMARK  Name = 
REMARK  6 active torsions:
REMARK  status: ('A' for Active; 'I' for Inactive)
REMARK    1  A    between atoms: C_2  and  C_3
REMARK    2  A    between atoms: C_2  and  C_18
REMARK    3  A    between atoms: C_3  and  C_4
REMARK    4  A    between atoms: C_4  and  C_5
REMARK    5  A    between atoms: N_8  and  C_9
REMARK    6  A    between atoms: C_9  and  C_10
REMARK                            x       y       z     vdW  Elec       q    Type
REMARK                         _______ _______ _______ _____ _____    ______ ____
ROOT
ATOM      1  C   UNL     1       8.601  -3.112  23.680  0.00  0.00    +0.080 C 
ENDROOT
BRANCH   1   3
ATOM      2  O   UNL     1       9.775  -4.886  24.822  0.00  0.00    -0.292 OA
ATOM      3  C   UNL     1       8.704  -4.408  24.462  0.00  0.00    +0.163 C 
BRANCH   3   4
ATOM      4  C   UNL     1       7.418  -5.095  24.801  0.00  0.00    +0.019 A 
ATOM      5  C   UNL     1       7.135  -5.388  26.135  0.00  0.00    +0.012 A 
ATOM      6  C   UNL     1       5.921  -5.988  26.476  0.00  0.00    +0.006 A 
ATOM      7  C   UNL     1       4.967  -6.300  25.491  0.00  0.00    -0.026 A 
ATOM      8  C   UNL     1       3.657  -6.925  25.899  0.00  0.00    +0.037 C 
ATOM      9  C   UNL     1       2.451  -6.054  25.541  0.00  0.00    +0.006 C 
ATOM     10  C   UNL     1       2.086  -6.104  24.057  0.00  0.00    +0.019 C 
ATOM     11  C   UNL     1       3.146  -5.505  23.137  0.00  0.00    +0.101 C 
ATOM     12  N   UNL     1       4.369  -6.313  23.094  0.00  0.00    -0.344 N 
ATOM     13  H   UNL     1       4.134  -7.305  23.121  0.00  0.00    +0.146 HD
ATOM     14  C   UNL     1       5.258  -6.027  24.146  0.00  0.00    +0.031 A 
ATOM     15  C   UNL     1       6.481  -5.430  23.815  0.00  0.00    +0.034 A 
ENDBRANCH   3   4
ENDBRANCH   1   3
BRANCH   1  16
ATOM     16  C   UNL     1       9.786  -2.163  23.850  0.00  0.00    +0.011 C 
BRANCH  16  17
ATOM     17  C   UNL     1       9.381  -0.895  24.633  0.00  0.00    -0.008 C 
ATOM     18  C   UNL     1       8.067  -0.311  24.088  0.00  0.00    +0.019 C 
ATOM     19  C   UNL     1       8.274   0.612  22.883  0.00  0.00    +0.085 C 
ATOM     20  N   UNL     1       9.244   1.691  23.132  0.00  0.00    -0.298 NA
ATOM     21  C   UNL     1      10.541   1.097  23.479  0.00  0.00    +0.085 C 
ATOM     22  C   UNL     1      10.486   0.182  24.704  0.00  0.00    +0.019 C 
BRANCH  20  23
ATOM     23  C   UNL     1       8.739   2.639  24.144  0.00  0.00    +0.119 C 
BRANCH  23  24
ATOM     24  C   UNL     1       8.486   4.040  23.628  0.00  0.00    -0.033 A 
ATOM     25  C   UNL     1       7.459   4.275  22.699  0.00  0.00    +0.005 A 
ATOM     26  C   UNL     1       7.242   5.557  22.194  0.00  0.00    +0.000 A 
ATOM     27  C   UNL     1       8.048   6.615  22.609  0.00  0.00    +0.000 A 
ATOM     28  C   UNL     1       9.069   6.394  23.530  0.00  0.00    +0.000 A 
ATOM     29  C   UNL     1       9.289   5.112  24.038  0.00  0.00    +0.005 A 
ENDBRANCH  23  24
ENDBRANCH  20  23
ENDBRANCH  16  17
ENDBRANCH   1  16
TORSDOF 6
ENDMDL
MODEL 4
REMARK VINA RESULT:      -7.6      2.156      3.207
REMARK  Name = 
REMARK  6 active torsions:
REMARK  status: ('A' for Active; 'I' for Inactive)
REMARK    1  A    between atoms: C_2  and  C_3
REMARK    2  A    between atoms: C_2  and  C_18
REMARK    3  A    between atoms: C_3  and  C_4
REMARK    4  A    between atoms: C_4  and  C_5
REMARK    5  A    between atoms: N_8  and  C_9
REMARK    6  A    between atoms: C_9  and  C_10
REMARK                            x       y       z     vdW  Elec       q    Type
REMARK                         _______ _______ _______ _____ _____    ______ ____
ROOT
ATOM      1  C   UNL     1       9.445  -2.537  24.578  0.00  0.00    +0.080 C 
ENDROOT
BRANCH   1   3
ATOM      2  O   UNL     1      10.168  -4.830  24.809  0.00  0.00    -0.292 OA
ATOM      3  C   UNL     1       9.250  -4.041  24.601  0.00  0.00    +0.163 C 
BRANCH   3   4
ATOM      4  C   UNL     1       7.860  -4.545  24.370  0.00  0.00    +0.019 A 
ATOM      5  C   UNL     1       7.513  -5.030  23.109  0.00  0.00    +0.012 A 
ATOM      6  C   UNL     1       6.234  -5.547  22.888  0.00  0.00    +0.006 A 
ATOM      7  C   UNL     1       5.284  -5.594  23.923  0.00  0.00    -0.026 A 
ATOM      8  C   UNL     1       3.921  -6.181  23.653  0.00  0.00    +0.037 C 
ATOM      9  C   UNL     1       3.627  -7.409  24.516  0.00  0.00    +0.006 C 
ATOM     10  C   UNL     1       3.262  -7.063  25.960  0.00  0.00    +0.019 C 
ATOM     11  C   UNL     1       4.402  -6.430  26.753  0.00  0.00    +0.101 C 
ATOM     12  N   UNL     1       4.734  -5.084  26.277  0.00  0.00    -0.344 N 
ATOM     13  H   UNL     1       3.884  -4.588  26.009  0.00  0.00    +0.146 HD
ATOM     14  C   UNL     1       5.623  -5.087  25.186  0.00  0.00    +0.031 A 
ATOM     15  C   UNL     1       6.906  -4.566  25.396  0.00  0.00    +0.034 A 
ENDBRANCH   3   4
ENDBRANCH   1   3
BRANCH   1  16
ATOM     16  C   UNL     1       9.985  -1.979  23.262  0.00  0.00    +0.011 C 
BRANCH  16  17
ATOM     17  C   UNL     1       8.877  -1.260  22.462  0.00  0.00    -0.008 C 
ATOM     18  C   UNL     1       9.486  -0.314  21.412  0.00  0.00    +0.019 C 
ATOM     19  C   UNL     1       9.841   1.063  21.980  0.00  0.00    +0.085 C 
ATOM     20  N   UNL     1       8.717   1.722  22.665  0.00  0.00    -0.298 NA
ATOM     21  C   UNL     1       8.271   0.873  23.777  0.00  0.00    +0.085 C 
ATOM     22  C   UNL     1       7.839  -0.528  23.340  0.00  0.00    +0.019 C 
BRANCH  20  23
ATOM     23  C   UNL     1       7.640   2.065  21.716  0.00  0.00    +0.119 C 
BRANCH  23  24
ATOM     24  C   UNL     1       6.765   3.225  22.143  0.00  0.00    -0.033 A 
ATOM     25  C   UNL     1       7.308   4.516  22.252  0.00  0.00    +0.005 A 
ATOM     26  C   UNL     1       6.516   5.583  22.678  0.00  0.00    +0.000 A 
ATOM     27  C   UNL     1       5.178   5.371  23.000  0.00  0.00    +0.000 A 
ATOM     28  C   UNL     1       4.629   4.095  22.895  0.00  0.00    +0.000 A 
ATOM     29  C   UNL     1       5.418   3.025  22.470  0.00  0.00    +0.005 A 
ENDBRANCH  23  24
ENDBRANCH  20  23
ENDBRANCH  16  17
ENDBRANCH   1  16
TORSDOF 6
ENDMDL
MODEL 5
REMARK VINA RESULT:      -7.6      1.618     10.224
REMARK  Name = 
REMARK  6 active torsions:
REMARK  status: ('A' for Active; 'I' for Inactive)
REMARK    1  A    between atoms: C_2  and  C_3
REMARK    2  A    between atoms: C_2  and  C_18
REMARK    3  A    between atoms: C_3  and  C_4
REMARK    4  A    between atoms: C_4  and  C_5
REMARK    5  A    between atoms: N_8  and  C_9
REMARK    6  A    between atoms: C_9  and  C_10
REMARK                            x       y       z     vdW  Elec       q    Type
REMARK                         _______ _______ _______ _____ _____    ______ ____
ROOT
ATOM      1  C   UNL     1       9.647  -1.266  24.051  0.00  0.00    +0.080 C 
ENDROOT
BRANCH   1   3
ATOM      2  O   UNL     1       9.118  -0.625  26.318  0.00  0.00    -0.292 OA
ATOM      3  C   UNL     1       9.323  -0.281  25.157  0.00  0.00    +0.163 C 
BRANCH   3   4
ATOM      4  C   UNL     1       9.276   1.167  24.780  0.00  0.00    +0.019 A 
ATOM      5  C   UNL     1       8.287   1.981  25.332  0.00  0.00    +0.012 A 
ATOM      6  C   UNL     1       8.254   3.344  25.027  0.00  0.00    +0.006 A 
ATOM      7  C   UNL     1       9.212   3.917  24.172  0.00  0.00    -0.026 A 
ATOM      8  C   UNL     1       9.160   5.396  23.884  0.00  0.00    +0.037 C 
ATOM      9  C   UNL     1      10.418   6.131  24.348  0.00  0.00    +0.006 C 
ATOM     10  C   UNL     1      11.616   5.929  23.420  0.00  0.00    +0.019 C 
ATOM     11  C   UNL     1      12.131   4.493  23.376  0.00  0.00    +0.101 C 
ATOM     12  N   UNL     1      11.186   3.580  22.725  0.00  0.00    -0.344 N 
ATOM     13  H   UNL     1      10.735   4.047  21.939  0.00  0.00    +0.146 HD
ATOM     14  C   UNL     1      10.195   3.096  23.599  0.00  0.00    +0.031 A 
ATOM     15  C   UNL     1      10.215   1.730  23.906  0.00  0.00    +0.034 A 
ENDBRANCH   3   4
ENDBRANCH   1   3
BRANCH   1  16
ATOM     16  C   UNL     1       8.563  -1.417  22.986  0.00  0.00    +0.011 C 
BRANCH  16  17
ATOM     17  C   UNL     1       8.235  -2.905  22.727  0.00  0.00    -0.008 C 
ATOM     18  C   UNL     1       6.817  -3.060  22.151  0.00  0.00    +0.019 C 
ATOM     19  C   UNL     1       5.732  -3.105  23.231  0.00  0.00    +0.085 C 
ATOM     20  N   UNL     1       5.975  -4.125  24.264  0.00  0.00    -0.298 NA
ATOM     21  C   UNL     1       7.259  -3.845  24.919  0.00  0.00    +0.085 C 
ATOM     22  C   UNL     1       8.445  -3.819  23.954  0.00  0.00    +0.019 C 
BRANCH  20  23
ATOM     23  C   UNL     1       5.884  -5.487  23.701  0.00  0.00    +0.119 C 
BRANCH  23  24
ATOM     24  C   UNL     1       4.552  -6.173  23.919  0.00  0.00    -0.033 A 
ATOM     25  C   UNL     1       3.480  -5.929  23.046  0.00  0.00    +0.005 A 
ATOM     26  C   UNL     1       2.240  -6.532  23.260  0.00  0.00    +0.000 A 
ATOM     27  C   UNL     1       2.059  -7.382  24.348  0.00  0.00    +0.000 A 
ATOM     28  C   UNL     1       3.115  -7.632  25.222  0.00  0.00    +0.000 A 
ATOM     29  C   UNL     1       4.357  -7.030  25.010  0.00  0.00    +0.005 A 
ENDBRANCH  23  24
ENDBRANCH  20  23
ENDBRANCH  16  17
ENDBRANCH   1  16
TORSDOF 6
ENDMDL
MODEL 6
REMARK VINA RESULT:      -7.5      1.593      2.438
REMARK  Name = 
REMARK  6 active torsions:
REMARK  status: ('A' for Active; 'I' for Inactive)
REMARK    1  A    between atoms: C_2  and  C_3
REMARK    2  A    between atoms: C_2  and  C_18
REMARK    3  A    between atoms: C_3  and  C_4
REMARK    4  A    between atoms: C_4  and  C_5
REMARK    5  A    between atoms: N_8  and  C_9
REMARK    6  A    between atoms: C_9  and  C_10
REMARK                            x       y       z     vdW  Elec       q    Type
REMARK                         _______ _______ _______ _____ _____    ______ ____
ROOT
ATOM      1  C   UNL     1       6.997  -2.990  22.713  0.00  0.00    +0.080 C 
ENDROOT
BRANCH   1   3
ATOM      2  O   UNL     1       7.129  -5.320  22.095  0.00  0.00    -0.292 OA
ATOM      3  C   UNL     1       6.982  -4.482  22.980  0.00  0.00    +0.163 C 
BRANCH   3   4
ATOM      4  C   UNL     1       6.790  -4.912  24.401  0.00  0.00    +0.019 A 
ATOM      5  C   UNL     1       7.640  -4.407  25.384  0.00  0.00    +0.012 A 
ATOM      6  C   UNL     1       7.448  -4.761  26.722  0.00  0.00    +0.006 A 
ATOM      7  C   UNL     1       6.402  -5.621  27.100  0.00  0.00    -0.026 A 
ATOM      8  C   UNL     1       6.211  -5.962  28.556  0.00  0.00    +0.037 C 
ATOM      9  C   UNL     1       4.854  -5.505  29.096  0.00  0.00    +0.006 C 
ATOM     10  C   UNL     1       3.696  -6.406  28.667  0.00  0.00    +0.019 C 
ATOM     11  C   UNL     1       3.420  -6.390  27.166  0.00  0.00    +0.101 C 
ATOM     12  N   UNL     1       4.494  -7.022  26.394  0.00  0.00    -0.344 N 
ATOM     13  H   UNL     1       4.856  -7.832  26.897  0.00  0.00    +0.146 HD
ATOM     14  C   UNL     1       5.559  -6.148  26.110  0.00  0.00    +0.031 A 
ATOM     15  C   UNL     1       5.764  -5.791  24.772  0.00  0.00    +0.034 A 
ENDBRANCH   3   4
ENDBRANCH   1   3
BRANCH   1  16
ATOM     16  C   UNL     1       8.327  -2.442  22.198  0.00  0.00    +0.011 C 
BRANCH  16  17
ATOM     17  C   UNL     1       8.994  -1.517  23.240  0.00  0.00    -0.008 C 
ATOM     18  C   UNL     1       7.950  -0.611  23.914  0.00  0.00    +0.019 C 
ATOM     19  C   UNL     1       7.651   0.660  23.113  0.00  0.00    +0.085 C 
ATOM     20  N   UNL     1       8.855   1.437  22.776  0.00  0.00    -0.298 NA
ATOM     21  C   UNL     1       9.757   0.597  21.978  0.00  0.00    +0.085 C 
ATOM     22  C   UNL     1      10.176  -0.693  22.685  0.00  0.00    +0.019 C 
BRANCH  20  23
ATOM     23  C   UNL     1       9.486   1.996  23.988  0.00  0.00    +0.119 C 
BRANCH  23  24
ATOM     24  C   UNL     1      10.077   3.379  23.813  0.00  0.00    -0.033 A 
ATOM     25  C   UNL     1      11.428   3.529  23.459  0.00  0.00    +0.005 A 
ATOM     26  C   UNL     1      11.988   4.800  23.328  0.00  0.00    +0.000 A 
ATOM     27  C   UNL     1      11.207   5.931  23.552  0.00  0.00    +0.000 A 
ATOM     28  C   UNL     1       9.866   5.795  23.904  0.00  0.00    +0.000 A 
ATOM     29  C   UNL     1       9.302   4.524  24.036  0.00  0.00    +0.005 A 
ENDBRANCH  23  24
ENDBRANCH  20  23
ENDBRANCH  16  17
ENDBRANCH   1  16
TORSDOF 6
ENDMDL
MODEL 7
REMARK VINA RESULT:      -7.4      2.054      9.901
REMARK  Name = 
REMARK  6 active torsions:
REMARK  status: ('A' for Active; 'I' for Inactive)
REMARK    1  A    between atoms: C_2  and  C_3
REMARK    2  A    between atoms: C_2  and  C_18
REMARK    3  A    between atoms: C_3  and  C_4
REMARK    4  A    between atoms: C_4  and  C_5
REMARK    5  A    between atoms: N_8  and  C_9
REMARK    6  A    between atoms: C_9  and  C_10
REMARK                            x       y       z     vdW  Elec       q    Type
REMARK                         _______ _______ _______ _____ _____    ______ ____
ROOT
ATOM      1  C   UNL     1      10.184   0.188  22.720  0.00  0.00    +0.080 C 
ENDROOT
BRANCH   1   3
ATOM      2  O   UNL     1      10.956   0.382  24.999  0.00  0.00    -0.292 OA
ATOM      3  C   UNL     1      10.467   0.926  24.014  0.00  0.00    +0.163 C 
BRANCH   3   4
ATOM      4  C   UNL     1      10.135   2.385  24.045  0.00  0.00    +0.019 A 
ATOM      5  C   UNL     1      11.028   3.298  23.485  0.00  0.00    +0.012 A 
ATOM      6  C   UNL     1      10.714   4.659  23.464  0.00  0.00    +0.006 A 
ATOM      7  C   UNL     1       9.501   5.130  23.997  0.00  0.00    -0.026 A 
ATOM      8  C   UNL     1       9.185   6.603  23.935  0.00  0.00    +0.037 C 
ATOM      9  C   UNL     1       7.928   6.903  23.117  0.00  0.00    +0.006 C 
ATOM     10  C   UNL     1       6.630   6.591  23.863  0.00  0.00    +0.019 C 
ATOM     11  C   UNL     1       6.425   5.108  24.158  0.00  0.00    +0.101 C 
ATOM     12  N   UNL     1       7.380   4.597  25.146  0.00  0.00    -0.344 N 
ATOM     13  H   UNL     1       7.550   5.302  25.864  0.00  0.00    +0.146 HD
ATOM     14  C   UNL     1       8.611   4.216  24.580  0.00  0.00    +0.031 A 
ATOM     15  C   UNL     1       8.938   2.855  24.601  0.00  0.00    +0.034 A 
ENDBRANCH   3   4
ENDBRANCH   1   3
BRANCH   1  16
ATOM     16  C   UNL     1       8.755  -0.329  22.573  0.00  0.00    +0.011 C 
BRANCH  16  17
ATOM     17  C   UNL     1       8.717  -1.874  22.546  0.00  0.00    -0.008 C 
ATOM     18  C   UNL     1       7.267  -2.385  22.504  0.00  0.00    +0.019 C 
ATOM     19  C   UNL     1       6.625  -2.485  23.892  0.00  0.00    +0.085 C 
ATOM     20  N   UNL     1       7.416  -3.280  24.846  0.00  0.00    -0.298 NA
ATOM     21  C   UNL     1       8.739  -2.662  25.000  0.00  0.00    +0.085 C 
ATOM     22  C   UNL     1       9.514  -2.543  23.686  0.00  0.00    +0.019 C 
BRANCH  20  23
ATOM     23  C   UNL     1       7.469  -4.699  24.444  0.00  0.00    +0.119 C 
BRANCH  23  24
ATOM     24  C   UNL     1       6.253  -5.512  24.833  0.00  0.00    -0.033 A 
ATOM     25  C   UNL     1       6.016  -5.827  26.181  0.00  0.00    +0.005 A 
ATOM     26  C   UNL     1       4.915  -6.604  26.544  0.00  0.00    +0.000 A 
ATOM     27  C   UNL     1       4.044  -7.076  25.565  0.00  0.00    +0.000 A 
ATOM     28  C   UNL     1       4.269  -6.770  24.224  0.00  0.00    +0.000 A 
ATOM     29  C   UNL     1       5.370  -5.993  23.859  0.00  0.00    +0.005 A 
ENDBRANCH  23  24
ENDBRANCH  20  23
ENDBRANCH  16  17
ENDBRANCH   1  16
TORSDOF 6
ENDMDL
MODEL 8
REMARK VINA RESULT:      -7.4      1.436      2.561
REMARK  Name = 
REMARK  6 active torsions:
REMARK  status: ('A' for Active; 'I' for Inactive)
REMARK    1  A    between atoms: C_2  and  C_3
REMARK    2  A    between atoms: C_2  and  C_18
REMARK    3  A    between atoms: C_3  and  C_4
REMARK    4  A    between atoms: C_4  and  C_5
REMARK    5  A    between atoms: N_8  and  C_9
REMARK    6  A    between atoms: C_9  and  C_10
REMARK                            x       y       z     vdW  Elec       q    Type
REMARK                         _______ _______ _______ _____ _____    ______ ____
ROOT
ATOM      1  C   UNL     1       8.478  -4.721  24.511  0.00  0.00    +0.080 C 
ENDROOT
BRANCH   1   3
ATOM      2  O   UNL     1       7.680  -5.774  26.532  0.00  0.00    -0.292 OA
ATOM      3  C   UNL     1       7.423  -5.319  25.421  0.00  0.00    +0.163 C 
BRANCH   3   4
ATOM      4  C   UNL     1       6.015  -5.323  24.912  0.00  0.00    +0.019 A 
ATOM      5  C   UNL     1       5.671  -4.477  23.858  0.00  0.00    +0.012 A 
ATOM      6  C   UNL     1       4.374  -4.500  23.341  0.00  0.00    +0.006 A 
ATOM      7  C   UNL     1       3.401  -5.372  23.862  0.00  0.00    -0.026 A 
ATOM      8  C   UNL     1       2.018  -5.386  23.261  0.00  0.00    +0.037 C 
ATOM      9  C   UNL     1       1.650  -6.744  22.662  0.00  0.00    +0.006 C 
ATOM     10  C   UNL     1       1.273  -7.789  23.713  0.00  0.00    +0.019 C 
ATOM     11  C   UNL     1       2.425  -8.191  24.629  0.00  0.00    +0.101 C 
ATOM     12  N   UNL     1       2.830  -7.105  25.527  0.00  0.00    -0.344 N 
ATOM     13  H   UNL     1       2.010  -6.586  25.840  0.00  0.00    +0.146 HD
ATOM     14  C   UNL     1       3.739  -6.208  24.936  0.00  0.00    +0.031 A 
ATOM     15  C   UNL     1       5.041  -6.174  25.451  0.00  0.00    +0.034 A 
ENDBRANCH   3   4
ENDBRANCH   1   3
BRANCH   1  16
ATOM     16  C   UNL     1       9.115  -3.431  25.025  0.00  0.00    +0.011 C 
BRANCH  16  17
ATOM     17  C   UNL     1       8.525  -2.193  24.314  0.00  0.00    -0.008 C 
ATOM     18  C   UNL     1       8.959  -2.150  22.839  0.00  0.00    +0.019 C 
ATOM     19  C   UNL     1      10.330  -1.499  22.635  0.00  0.00    +0.085 C 
ATOM     20  N   UNL     1      10.437  -0.159  23.235  0.00  0.00    -0.298 NA
ATOM     21  C   UNL     1      10.191  -0.261  24.679  0.00  0.00    +0.085 C 
ATOM     22  C   UNL     1       8.825  -0.855  25.025  0.00  0.00    +0.019 C 
BRANCH  20  23
ATOM     23  C   UNL     1       9.551   0.804  22.551  0.00  0.00    +0.119 C 
BRANCH  23  24
ATOM     24  C   UNL     1       9.592   2.210  23.112  0.00  0.00    -0.033 A 
ATOM     25  C   UNL     1       8.413   2.820  23.572  0.00  0.00    +0.005 A 
ATOM     26  C   UNL     1       8.437   4.127  24.059  0.00  0.00    +0.000 A 
ATOM     27  C   UNL     1       9.635   4.836  24.089  0.00  0.00    +0.000 A 
ATOM     28  C   UNL     1      10.810   4.242  23.636  0.00  0.00    +0.000 A 
ATOM     29  C   UNL     1      10.790   2.934  23.148  0.00  0.00    +0.005 A 
ENDBRANCH  23  24
ENDBRANCH  20  23
ENDBRANCH  16  17
ENDBRANCH   1  16
TORSDOF 6
ENDMDL
MODEL 9
REMARK VINA RESULT:      -7.3      1.744     10.238
REMARK  Name = 
REMARK  6 active torsions:
REMARK  status: ('A' for Active; 'I' for Inactive)
REMARK    1  A    between atoms: C_2  and  C_3
REMARK    2  A    between atoms: C_2  and  C_18
REMARK    3  A    between atoms: C_3  and  C_4
REMARK    4  A    between atoms: C_4  and  C_5
REMARK    5  A    between atoms: N_8  and  C_9
REMARK    6  A    between atoms: C_9  and  C_10
REMARK                            x       y       z     vdW  Elec       q    Type
REMARK                         _______ _______ _______ _____ _____    ______ ____
ROOT
ATOM      1  C   UNL     1       7.696  -4.009  23.950  0.00  0.00    +0.080 C 
ENDROOT
BRANCH   1   3
ATOM      2  O   UNL     1      10.036  -4.203  24.514  0.00  0.00    -0.292 OA
ATOM      3  C   UNL     1       9.120  -3.504  24.089  0.00  0.00    +0.163 C 
BRANCH   3   4
ATOM      4  C   UNL     1       9.381  -2.093  23.666  0.00  0.00    +0.019 A 
ATOM      5  C   UNL     1       9.653  -1.825  22.325  0.00  0.00    +0.012 A 
ATOM      6  C   UNL     1       9.854  -0.509  21.903  0.00  0.00    +0.006 A 
ATOM      7  C   UNL     1       9.780   0.562  22.812  0.00  0.00    -0.026 A 
ATOM      8  C   UNL     1       9.979   1.972  22.316  0.00  0.00    +0.037 C 
ATOM      9  C   UNL     1       8.747   2.852  22.532  0.00  0.00    +0.006 C 
ATOM     10  C   UNL     1       8.581   3.317  23.979  0.00  0.00    +0.019 C 
ATOM     11  C   UNL     1       8.294   2.187  24.965  0.00  0.00    +0.101 C 
ATOM     12  N   UNL     1       9.446   1.298  25.146  0.00  0.00    -0.344 N 
ATOM     13  H   UNL     1      10.310   1.840  25.137  0.00  0.00    +0.146 HD
ATOM     14  C   UNL     1       9.528   0.293  24.165  0.00  0.00    +0.031 A 
ATOM     15  C   UNL     1       9.333  -1.031  24.578  0.00  0.00    +0.034 A 
ENDBRANCH   3   4
ENDBRANCH   1   3
BRANCH   1  16
ATOM     16  C   UNL     1       7.207  -4.880  25.105  0.00  0.00    +0.011 C 
BRANCH  16  17
ATOM     17  C   UNL     1       5.673  -4.789  25.265  0.00  0.00    -0.008 C 
ATOM     18  C   UNL     1       5.026  -6.179  25.141  0.00  0.00    +0.019 C 
ATOM     19  C   UNL     1       4.757  -6.589  23.690  0.00  0.00    +0.085 C 
ATOM     20  N   UNL     1       3.974  -5.595  22.936  0.00  0.00    -0.298 NA
ATOM     21  C   UNL     1       4.705  -4.322  22.922  0.00  0.00    +0.085 C 
ATOM     22  C   UNL     1       5.000  -3.771  24.319  0.00  0.00    +0.019 C 
BRANCH  20  23
ATOM     23  C   UNL     1       2.602  -5.483  23.468  0.00  0.00    +0.119 C 
BRANCH  23  24
ATOM     24  C   UNL     1       1.824  -6.782  23.489  0.00  0.00    -0.033 A 
ATOM     25  C   UNL     1       1.462  -7.368  24.713  0.00  0.00    +0.005 A 
ATOM     26  C   UNL     1       0.774  -8.581  24.741  0.00  0.00    +0.000 A 
ATOM     27  C   UNL     1       0.444  -9.221  23.549  0.00  0.00    +0.000 A 
ATOM     28  C   UNL     1       0.797  -8.650  22.329  0.00  0.00    +0.000 A 
ATOM     29  C   UNL     1       1.486  -7.436  22.298  0.00  0.00    +0.005 A 
ENDBRANCH  23  24
ENDBRANCH  20  23
ENDBRANCH  16  17
ENDBRANCH   1  16
TORSDOF 6
ENDMDL
