MODEL 1
REMARK VINA RESULT:      -6.1      0.000      0.000
REMARK  Name = 
REMARK  7 active torsions:
REMARK  status: ('A' for Active; 'I' for Inactive)
REMARK    1  A    between atoms: C_1  and  C_2
REMARK    2  A    between atoms: C_2  and  C_3
REMARK    3  A    between atoms: C_3  and  C_10
REMARK    4  A    between atoms: C_4  and  C_6
REMARK    5  A    between atoms: N_12  and  C_13
REMARK    6  A    between atoms: C_13  and  C_15
REMARK    7  A    between atoms: C_13  and  C_16
REMARK                            x       y       z     vdW  Elec       q    Type
REMARK                         _______ _______ _______ _____ _____    ______ ____
ROOT
ATOM      1  C   UNL     1       9.096  -2.529  24.051  0.00  0.00    +0.223 C 
ATOM      2  N   UNL     1       8.690  -1.319  23.546  0.00  0.00    -0.308 N 
ATOM      3  H   UNL     1       7.834  -0.925  23.908  0.00  0.00    +0.149 HD
ATOM      4  O   UNL     1      10.209  -3.011  23.909  0.00  0.00    -0.275 OA
ENDROOT
BRANCH   1   5
ATOM      5  C   UNL     1       8.072  -3.202  24.919  0.00  0.00    +0.085 C 
ATOM      6  C   UNL     1       7.813  -2.547  26.283  0.00  0.00    +0.136 C 
ATOM      7 CL   UNL     1       6.174  -2.478  26.927  0.00  0.00    -0.099 Cl
ATOM      8 CL   UNL     1       8.796  -1.201  26.895  0.00  0.00    -0.099 Cl
ATOM      9  C   UNL     1       8.563  -3.857  26.218  0.00  0.00    +0.040 C 
ATOM     10  C   UNL     1       7.997  -5.110  26.801  0.00  0.00    +0.011 C 
BRANCH   5  12
ATOM     11  C   UNL     1       7.453  -4.630  22.884  0.00  0.00    +0.005 C 
ATOM     12  C   UNL     1       6.976  -3.961  24.163  0.00  0.00    +0.016 C 
ENDBRANCH   5  12
ENDBRANCH   1   5
BRANCH   2  13
ATOM     13  C   UNL     1       9.638  -0.410  22.918  0.00  0.00    +0.100 C 
ATOM     14  C   UNL     1       9.437  -0.422  21.403  0.00  0.00    +0.033 C 
BRANCH  13  15
ATOM     15  C   UNL     1       9.496   0.987  23.501  0.00  0.00    -0.027 A 
ATOM     16  C   UNL     1      10.324   2.045  23.085  0.00  0.00    +0.007 A 
ATOM     17  C   UNL     1      10.131   3.338  23.579  0.00  0.00    +0.020 A 
ATOM     18  C   UNL     1       9.116   3.585  24.500  0.00  0.00    +0.041 A 
ATOM     19 CL   UNL     1       8.858   5.184  25.079  0.00  0.00    -0.084 Cl
ATOM     20  C   UNL     1       8.303   2.546  24.944  0.00  0.00    +0.020 A 
ATOM     21  C   UNL     1       8.491   1.253  24.445  0.00  0.00    +0.007 A 
ENDBRANCH  13  15
ENDBRANCH   2  13
TORSDOF 4
ENDMDL
MODEL 2
REMARK VINA RESULT:      -6.1      2.619      6.575
REMARK  Name = 
REMARK  7 active torsions:
REMARK  status: ('A' for Active; 'I' for Inactive)
REMARK    1  A    between atoms: C_1  and  C_2
REMARK    2  A    between atoms: C_2  and  C_3
REMARK    3  A    between atoms: C_3  and  C_10
REMARK    4  A    between atoms: C_4  and  C_6
REMARK    5  A    between atoms: N_12  and  C_13
REMARK    6  A    between atoms: C_13  and  C_15
REMARK    7  A    between atoms: C_13  and  C_16
REMARK                            x       y       z     vdW  Elec       q    Type
REMARK                         _______ _______ _______ _____ _____    ______ ____
ROOT
ATOM      1  C   UNL     1       9.510   0.198  24.804  0.00  0.00    +0.223 C 
ATOM      2  N   UNL     1       8.528  -0.747  24.646  0.00  0.00    -0.308 N 
ATOM      3  H   UNL     1       7.763  -0.528  24.024  0.00  0.00    +0.149 HD
ATOM      4  O   UNL     1      10.603  -0.003  25.310  0.00  0.00    -0.275 OA
ENDROOT
BRANCH   1   5
ATOM      5  C   UNL     1       9.181   1.528  24.190  0.00  0.00    +0.085 C 
ATOM      6  C   UNL     1       9.195   1.582  22.656  0.00  0.00    +0.136 C 
ATOM      7 CL   UNL     1       7.984   2.534  21.800  0.00  0.00    -0.099 Cl
ATOM      8 CL   UNL     1       9.760   0.225  21.661  0.00  0.00    -0.099 Cl
ATOM      9  C   UNL     1      10.300   2.258  23.433  0.00  0.00    +0.040 C 
ATOM     10  C   UNL     1      10.479   3.740  23.408  0.00  0.00    +0.011 C 
BRANCH   5  12
ATOM     11  C   UNL     1       6.799   1.967  25.027  0.00  0.00    +0.005 C 
ATOM     12  C   UNL     1       8.251   2.417  25.024  0.00  0.00    +0.016 C 
ENDBRANCH   5  12
ENDBRANCH   1   5
BRANCH   2  13
ATOM     13  C   UNL     1       8.782  -2.152  24.931  0.00  0.00    +0.100 C 
ATOM     14  C   UNL     1       8.377  -2.467  26.370  0.00  0.00    +0.033 C 
BRANCH  13  15
ATOM     15  C   UNL     1       8.057  -3.035  23.928  0.00  0.00    -0.027 A 
ATOM     16  C   UNL     1       7.280  -2.488  22.892  0.00  0.00    +0.007 A 
ATOM     17  C   UNL     1       6.681  -3.314  21.937  0.00  0.00    +0.020 A 
ATOM     18  C   UNL     1       6.844  -4.695  22.014  0.00  0.00    +0.041 A 
ATOM     19 CL   UNL     1       6.135  -5.707  20.817  0.00  0.00    -0.084 Cl
ATOM     20  C   UNL     1       7.587  -5.259  23.048  0.00  0.00    +0.020 A 
ATOM     21  C   UNL     1       8.193  -4.432  23.999  0.00  0.00    +0.007 A 
ENDBRANCH  13  15
ENDBRANCH   2  13
TORSDOF 4
ENDMDL
MODEL 3
REMARK VINA RESULT:      -6.1      2.427      6.722
REMARK  Name = 
REMARK  7 active torsions:
REMARK  status: ('A' for Active; 'I' for Inactive)
REMARK    1  A    between atoms: C_1  and  C_2
REMARK    2  A    between atoms: C_2  and  C_3
REMARK    3  A    between atoms: C_3  and  C_10
REMARK    4  A    between atoms: C_4  and  C_6
REMARK    5  A    between atoms: N_12  and  C_13
REMARK    6  A    between atoms: C_13  and  C_15
REMARK    7  A    between atoms: C_13  and  C_16
REMARK                            x       y       z     vdW  Elec       q    Type
REMARK                         _______ _______ _______ _____ _____    ______ ____
ROOT
ATOM      1  C   UNL     1       9.470  -1.999  23.849  0.00  0.00    +0.223 C 
ATOM      2  N   UNL     1       8.852  -2.667  24.876  0.00  0.00    -0.308 N 
ATOM      3  H   UNL     1       8.069  -2.214  25.326  0.00  0.00    +0.149 HD
ATOM      4  O   UNL     1      10.249  -2.500  23.054  0.00  0.00    -0.275 OA
ENDROOT
BRANCH   1   5
ATOM      5  C   UNL     1       9.023  -0.574  23.693  0.00  0.00    +0.085 C 
ATOM      6  C   UNL     1       7.589  -0.372  23.182  0.00  0.00    +0.136 C 
ATOM      7 CL   UNL     1       6.597   0.926  23.841  0.00  0.00    -0.099 Cl
ATOM      8 CL   UNL     1       6.582  -1.719  22.615  0.00  0.00    -0.099 Cl
ATOM      9  C   UNL     1       8.753  -0.067  22.269  0.00  0.00    +0.040 C 
ATOM     10  C   UNL     1       9.032   1.322  21.797  0.00  0.00    +0.011 C 
BRANCH   5  12
ATOM     11  C   UNL     1      11.213   0.419  24.577  0.00  0.00    +0.005 C 
ATOM     12  C   UNL     1       9.694   0.426  24.640  0.00  0.00    +0.016 C 
ENDBRANCH   5  12
ENDBRANCH   1   5
BRANCH   2  13
ATOM     13  C   UNL     1       8.956  -4.114  25.003  0.00  0.00    +0.100 C 
ATOM     14  C   UNL     1       9.358  -4.479  26.431  0.00  0.00    +0.033 C 
BRANCH  13  15
ATOM     15  C   UNL     1       7.651  -4.776  24.591  0.00  0.00    -0.027 A 
ATOM     16  C   UNL     1       6.597  -4.957  25.504  0.00  0.00    +0.007 A 
ATOM     17  C   UNL     1       5.379  -5.502  25.088  0.00  0.00    +0.020 A 
ATOM     18  C   UNL     1       5.205  -5.880  23.759  0.00  0.00    +0.041 A 
ATOM     19 CL   UNL     1       3.693  -6.517  23.242  0.00  0.00    -0.084 Cl
ATOM     20  C   UNL     1       6.246  -5.734  22.845  0.00  0.00    +0.020 A 
ATOM     21  C   UNL     1       7.462  -5.183  23.259  0.00  0.00    +0.007 A 
ENDBRANCH  13  15
ENDBRANCH   2  13
TORSDOF 4
ENDMDL
MODEL 4
REMARK VINA RESULT:      -5.7      1.374      1.651
REMARK  Name = 
REMARK  7 active torsions:
REMARK  status: ('A' for Active; 'I' for Inactive)
REMARK    1  A    between atoms: C_1  and  C_2
REMARK    2  A    between atoms: C_2  and  C_3
REMARK    3  A    between atoms: C_3  and  C_10
REMARK    4  A    between atoms: C_4  and  C_6
REMARK    5  A    between atoms: N_12  and  C_13
REMARK    6  A    between atoms: C_13  and  C_15
REMARK    7  A    between atoms: C_13  and  C_16
REMARK                            x       y       z     vdW  Elec       q    Type
REMARK                         _______ _______ _______ _____ _____    ______ ____
ROOT
ATOM      1  C   UNL     1       8.295  -3.528  24.076  0.00  0.00    +0.223 C 
ATOM      2  N   UNL     1       8.396  -2.225  23.657  0.00  0.00    -0.308 N 
ATOM      3  H   UNL     1       7.552  -1.672  23.641  0.00  0.00    +0.149 HD
ATOM      4  O   UNL     1       9.237  -4.241  24.387  0.00  0.00    -0.275 OA
ENDROOT
BRANCH   1   5
ATOM      5  C   UNL     1       6.882  -4.009  24.238  0.00  0.00    +0.085 C 
ATOM      6  C   UNL     1       6.103  -3.416  25.420  0.00  0.00    +0.136 C 
ATOM      7 CL   UNL     1       4.396  -3.018  25.236  0.00  0.00    -0.099 Cl
ATOM      8 CL   UNL     1       6.870  -2.385  26.645  0.00  0.00    -0.099 Cl
ATOM      9  C   UNL     1       6.558  -4.855  25.477  0.00  0.00    +0.040 C 
ATOM     10  C   UNL     1       5.580  -5.983  25.500  0.00  0.00    +0.011 C 
BRANCH   5  12
ATOM     11  C   UNL     1       7.094  -5.156  21.957  0.00  0.00    +0.005 C 
ATOM     12  C   UNL     1       6.187  -4.433  22.940  0.00  0.00    +0.016 C 
ENDBRANCH   5  12
ENDBRANCH   1   5
BRANCH   2  13
ATOM     13  C   UNL     1       9.666  -1.515  23.708  0.00  0.00    +0.100 C 
ATOM     14  C   UNL     1      10.390  -1.656  22.371  0.00  0.00    +0.033 C 
BRANCH  13  15
ATOM     15  C   UNL     1       9.443  -0.059  24.085  0.00  0.00    -0.027 A 
ATOM     16  C   UNL     1      10.383   0.936  23.766  0.00  0.00    +0.007 A 
ATOM     17  C   UNL     1      10.127   2.279  24.055  0.00  0.00    +0.020 A 
ATOM     18  C   UNL     1       8.933   2.640  24.676  0.00  0.00    +0.041 A 
ATOM     19 CL   UNL     1       8.605   4.297  24.999  0.00  0.00    -0.084 Cl
ATOM     20  C   UNL     1       8.001   1.666  25.025  0.00  0.00    +0.020 A 
ATOM     21  C   UNL     1       8.254   0.324  24.728  0.00  0.00    +0.007 A 
ENDBRANCH  13  15
ENDBRANCH   2  13
TORSDOF 4
ENDMDL
MODEL 5
REMARK VINA RESULT:      -5.7      2.340      6.514
REMARK  Name = 
REMARK  7 active torsions:
REMARK  status: ('A' for Active; 'I' for Inactive)
REMARK    1  A    between atoms: C_1  and  C_2
REMARK    2  A    between atoms: C_2  and  C_3
REMARK    3  A    between atoms: C_3  and  C_10
REMARK    4  A    between atoms: C_4  and  C_6
REMARK    5  A    between atoms: N_12  and  C_13
REMARK    6  A    between atoms: C_13  and  C_15
REMARK    7  A    between atoms: C_13  and  C_16
REMARK                            x       y       z     vdW  Elec       q    Type
REMARK                         _______ _______ _______ _____ _____    ______ ____
ROOT
ATOM      1  C   UNL     1       9.039   0.783  24.391  0.00  0.00    +0.223 C 
ATOM      2  N   UNL     1       8.133  -0.240  24.524  0.00  0.00    -0.308 N 
ATOM      3  H   UNL     1       7.347  -0.254  23.890  0.00  0.00    +0.149 HD
ATOM      4  O   UNL     1      10.150   0.807  24.898  0.00  0.00    -0.275 OA
ENDROOT
BRANCH   1   5
ATOM      5  C   UNL     1       8.600   1.868  23.451  0.00  0.00    +0.085 C 
ATOM      6  C   UNL     1       8.138   3.177  24.105  0.00  0.00    +0.136 C 
ATOM      7 CL   UNL     1       8.551   4.722  23.366  0.00  0.00    -0.099 Cl
ATOM      8 CL   UNL     1       7.937   3.344  25.862  0.00  0.00    -0.099 Cl
ATOM      9  C   UNL     1       7.117   2.265  23.468  0.00  0.00    +0.040 C 
ATOM     10  C   UNL     1       6.338   2.684  22.265  0.00  0.00    +0.011 C 
BRANCH   5  12
ATOM     11  C   UNL     1       9.447   0.448  21.493  0.00  0.00    +0.005 C 
ATOM     12  C   UNL     1       9.267   1.843  22.071  0.00  0.00    +0.016 C 
ENDBRANCH   5  12
ENDBRANCH   1   5
BRANCH   2  13
ATOM     13  C   UNL     1       8.501  -1.491  25.170  0.00  0.00    +0.100 C 
ATOM     14  C   UNL     1       7.825  -1.584  26.537  0.00  0.00    +0.033 C 
BRANCH  13  15
ATOM     15  C   UNL     1       8.148  -2.671  24.277  0.00  0.00    -0.027 A 
ATOM     16  C   UNL     1       8.443  -3.993  24.654  0.00  0.00    +0.007 A 
ATOM     17  C   UNL     1       8.046  -5.068  23.854  0.00  0.00    +0.020 A 
ATOM     18  C   UNL     1       7.359  -4.832  22.666  0.00  0.00    +0.041 A 
ATOM     19 CL   UNL     1       6.839  -6.158  21.701  0.00  0.00    -0.084 Cl
ATOM     20  C   UNL     1       7.080  -3.529  22.262  0.00  0.00    +0.020 A 
ATOM     21  C   UNL     1       7.472  -2.454  23.065  0.00  0.00    +0.007 A 
ENDBRANCH  13  15
ENDBRANCH   2  13
TORSDOF 4
ENDMDL
MODEL 6
REMARK VINA RESULT:      -5.7      1.560      2.381
REMARK  Name = 
REMARK  7 active torsions:
REMARK  status: ('A' for Active; 'I' for Inactive)
REMARK    1  A    between atoms: C_1  and  C_2
REMARK    2  A    between atoms: C_2  and  C_3
REMARK    3  A    between atoms: C_3  and  C_10
REMARK    4  A    between atoms: C_4  and  C_6
REMARK    5  A    between atoms: N_12  and  C_13
REMARK    6  A    between atoms: C_13  and  C_15
REMARK    7  A    between atoms: C_13  and  C_16
REMARK                            x       y       z     vdW  Elec       q    Type
REMARK                         _______ _______ _______ _____ _____    ______ ____
ROOT
ATOM      1  C   UNL     1       8.943  -2.393  23.991  0.00  0.00    +0.223 C 
ATOM      2  N   UNL     1       8.630  -1.171  23.450  0.00  0.00    -0.308 N 
ATOM      3  H   UNL     1       7.777  -0.728  23.758  0.00  0.00    +0.149 HD
ATOM      4  O   UNL     1      10.035  -2.934  23.917  0.00  0.00    -0.275 OA
ENDROOT
BRANCH   1   5
ATOM      5  C   UNL     1       7.839  -2.999  24.808  0.00  0.00    +0.085 C 
ATOM      6  C   UNL     1       7.124  -4.205  24.183  0.00  0.00    +0.136 C 
ATOM      7 CL   UNL     1       6.635  -5.559  25.199  0.00  0.00    -0.099 Cl
ATOM      8 CL   UNL     1       7.432  -4.736  22.517  0.00  0.00    -0.099 Cl
ATOM      9  C   UNL     1       6.407  -2.878  24.268  0.00  0.00    +0.040 C 
ATOM     10  C   UNL     1       5.193  -2.700  25.118  0.00  0.00    +0.011 C 
BRANCH   5  12
ATOM     11  C   UNL     1       8.440  -1.461  26.768  0.00  0.00    +0.005 C 
ATOM     12  C   UNL     1       7.993  -2.845  26.325  0.00  0.00    +0.016 C 
ENDBRANCH   5  12
ENDBRANCH   1   5
BRANCH   2  13
ATOM     13  C   UNL     1       9.658  -0.322  22.865  0.00  0.00    +0.100 C 
ATOM     14  C   UNL     1       9.526  -0.327  21.343  0.00  0.00    +0.033 C 
BRANCH  13  15
ATOM     15  C   UNL     1       9.573   1.083  23.440  0.00  0.00    -0.027 A 
ATOM     16  C   UNL     1      10.386   2.125  22.960  0.00  0.00    +0.007 A 
ATOM     17  C   UNL     1      10.243   3.426  23.450  0.00  0.00    +0.020 A 
ATOM     18  C   UNL     1       9.293   3.696  24.433  0.00  0.00    +0.041 A 
ATOM     19 CL   UNL     1       9.094   5.305  25.009  0.00  0.00    -0.084 Cl
ATOM     20  C   UNL     1       8.496   2.673  24.940  0.00  0.00    +0.020 A 
ATOM     21  C   UNL     1       8.635   1.373  24.445  0.00  0.00    +0.007 A 
ENDBRANCH  13  15
ENDBRANCH   2  13
TORSDOF 4
ENDMDL
MODEL 7
REMARK VINA RESULT:      -5.6      2.664      6.655
REMARK  Name = 
REMARK  7 active torsions:
REMARK  status: ('A' for Active; 'I' for Inactive)
REMARK    1  A    between atoms: C_1  and  C_2
REMARK    2  A    between atoms: C_2  and  C_3
REMARK    3  A    between atoms: C_3  and  C_10
REMARK    4  A    between atoms: C_4  and  C_6
REMARK    5  A    between atoms: N_12  and  C_13
REMARK    6  A    between atoms: C_13  and  C_15
REMARK    7  A    between atoms: C_13  and  C_16
REMARK                            x       y       z     vdW  Elec       q    Type
REMARK                         _______ _______ _______ _____ _____    ______ ____
ROOT
ATOM      1  C   UNL     1       9.712  -2.321  23.976  0.00  0.00    +0.223 C 
ATOM      2  N   UNL     1       8.793  -3.132  24.594  0.00  0.00    -0.308 N 
ATOM      3  H   UNL     1       7.980  -2.693  25.001  0.00  0.00    +0.149 HD
ATOM      4  O   UNL     1      10.600  -2.706  23.232  0.00  0.00    -0.275 OA
ENDROOT
BRANCH   1   5
ATOM      5  C   UNL     1       9.477  -0.855  24.198  0.00  0.00    +0.085 C 
ATOM      6  C   UNL     1       9.138  -0.032  22.947  0.00  0.00    +0.136 C 
ATOM      7 CL   UNL     1       7.939   1.256  23.041  0.00  0.00    -0.099 Cl
ATOM      8 CL   UNL     1       9.215  -0.714  21.309  0.00  0.00    -0.099 Cl
ATOM      9  C   UNL     1      10.493   0.126  23.595  0.00  0.00    +0.040 C 
ATOM     10  C   UNL     1      10.909   1.411  24.231  0.00  0.00    +0.011 C 
BRANCH   5  12
ATOM     11  C   UNL     1       7.421  -0.576  25.701  0.00  0.00    +0.005 C 
ATOM     12  C   UNL     1       8.934  -0.485  25.582  0.00  0.00    +0.016 C 
ENDBRANCH   5  12
ENDBRANCH   1   5
BRANCH   2  13
ATOM     13  C   UNL     1       8.702  -4.548  24.270  0.00  0.00    +0.100 C 
ATOM     14  C   UNL     1       9.215  -5.380  25.444  0.00  0.00    +0.033 C 
BRANCH  13  15
ATOM     15  C   UNL     1       7.274  -4.914  23.893  0.00  0.00    -0.027 A 
ATOM     16  C   UNL     1       6.944  -5.352  22.599  0.00  0.00    +0.007 A 
ATOM     17  C   UNL     1       5.640  -5.753  22.292  0.00  0.00    +0.020 A 
ATOM     18  C   UNL     1       4.653  -5.710  23.273  0.00  0.00    +0.041 A 
ATOM     19 CL   UNL     1       3.058  -6.238  22.903  0.00  0.00    -0.084 Cl
ATOM     20  C   UNL     1       4.953  -5.254  24.554  0.00  0.00    +0.020 A 
ATOM     21  C   UNL     1       6.259  -4.860  24.863  0.00  0.00    +0.007 A 
ENDBRANCH  13  15
ENDBRANCH   2  13
TORSDOF 4
ENDMDL
MODEL 8
REMARK VINA RESULT:      -5.6      2.299      6.422
REMARK  Name = 
REMARK  7 active torsions:
REMARK  status: ('A' for Active; 'I' for Inactive)
REMARK    1  A    between atoms: C_1  and  C_2
REMARK    2  A    between atoms: C_2  and  C_3
REMARK    3  A    between atoms: C_3  and  C_10
REMARK    4  A    between atoms: C_4  and  C_6
REMARK    5  A    between atoms: N_12  and  C_13
REMARK    6  A    between atoms: C_13  and  C_15
REMARK    7  A    between atoms: C_13  and  C_16
REMARK                            x       y       z     vdW  Elec       q    Type
REMARK                         _______ _______ _______ _____ _____    ______ ____
ROOT
ATOM      1  C   UNL     1       9.299  -1.091  23.374  0.00  0.00    +0.223 C 
ATOM      2  N   UNL     1       8.543  -2.025  24.036  0.00  0.00    -0.308 N 
ATOM      3  H   UNL     1       7.690  -1.711  24.476  0.00  0.00    +0.149 HD
ATOM      4  O   UNL     1      10.204  -1.344  22.594  0.00  0.00    -0.275 OA
ENDROOT
BRANCH   1   5
ATOM      5  C   UNL     1       8.851   0.325  23.597  0.00  0.00    +0.085 C 
ATOM      6  C   UNL     1       9.881   1.263  24.241  0.00  0.00    +0.136 C 
ATOM      7 CL   UNL     1      10.006   2.935  23.700  0.00  0.00    -0.099 Cl
ATOM      8 CL   UNL     1      11.434   0.680  24.874  0.00  0.00    -0.099 Cl
ATOM      9  C   UNL     1       8.692   0.799  25.048  0.00  0.00    +0.040 C 
ATOM     10  C   UNL     1       7.646   1.756  25.517  0.00  0.00    +0.011 C 
BRANCH   5  12
ATOM     11  C   UNL     1       8.358   1.253  21.260  0.00  0.00    +0.005 C 
ATOM     12  C   UNL     1       7.795   0.836  22.610  0.00  0.00    +0.016 C 
ENDBRANCH   5  12
ENDBRANCH   1   5
BRANCH   2  13
ATOM     13  C   UNL     1       8.658  -3.443  23.724  0.00  0.00    +0.100 C 
ATOM     14  C   UNL     1       9.390  -4.162  24.856  0.00  0.00    +0.033 C 
BRANCH  13  15
ATOM     15  C   UNL     1       7.284  -4.040  23.464  0.00  0.00    -0.027 A 
ATOM     16  C   UNL     1       7.116  -5.172  22.646  0.00  0.00    +0.007 A 
ATOM     17  C   UNL     1       5.855  -5.749  22.479  0.00  0.00    +0.020 A 
ATOM     18  C   UNL     1       4.747  -5.196  23.117  0.00  0.00    +0.041 A 
ATOM     19 CL   UNL     1       3.202  -5.931  22.937  0.00  0.00    -0.084 Cl
ATOM     20  C   UNL     1       4.888  -4.060  23.909  0.00  0.00    +0.020 A 
ATOM     21  C   UNL     1       6.151  -3.486  24.083  0.00  0.00    +0.007 A 
ENDBRANCH  13  15
ENDBRANCH   2  13
TORSDOF 4
ENDMDL
MODEL 9
REMARK VINA RESULT:      -5.6      2.852      4.196
REMARK  Name = 
REMARK  7 active torsions:
REMARK  status: ('A' for Active; 'I' for Inactive)
REMARK    1  A    between atoms: C_1  and  C_2
REMARK    2  A    between atoms: C_2  and  C_3
REMARK    3  A    between atoms: C_3  and  C_10
REMARK    4  A    between atoms: C_4  and  C_6
REMARK    5  A    between atoms: N_12  and  C_13
REMARK    6  A    between atoms: C_13  and  C_15
REMARK    7  A    between atoms: C_13  and  C_16
REMARK                            x       y       z     vdW  Elec       q    Type
REMARK                         _______ _______ _______ _____ _____    ______ ____
ROOT
ATOM      1  C   UNL     1       7.291   0.711  24.146  0.00  0.00    +0.223 C 
ATOM      2  N   UNL     1       8.242   1.583  24.611  0.00  0.00    -0.308 N 
ATOM      3  H   UNL     1       9.196   1.253  24.661  0.00  0.00    +0.149 HD
ATOM      4  O   UNL     1       6.164   1.023  23.795  0.00  0.00    -0.275 OA
ENDROOT
BRANCH   1   5
ATOM      5  C   UNL     1       7.781  -0.699  23.988  0.00  0.00    +0.085 C 
ATOM      6  C   UNL     1       8.821  -0.930  22.883  0.00  0.00    +0.136 C 
ATOM      7 CL   UNL     1      10.156  -2.048  23.151  0.00  0.00    -0.099 Cl
ATOM      8 CL   UNL     1       9.274   0.337  21.723  0.00  0.00    -0.099 Cl
ATOM      9  C   UNL     1       7.412  -1.440  22.695  0.00  0.00    +0.040 C 
ATOM     10  C   UNL     1       7.115  -2.900  22.610  0.00  0.00    +0.011 C 
BRANCH   5  12
ATOM     11  C   UNL     1       8.770  -1.106  26.318  0.00  0.00    +0.005 C 
ATOM     12  C   UNL     1       7.759  -1.543  25.268  0.00  0.00    +0.016 C 
ENDBRANCH   5  12
ENDBRANCH   1   5
BRANCH   2  13
ATOM     13  C   UNL     1       8.029   3.022  24.566  0.00  0.00    +0.100 C 
ATOM     14  C   UNL     1       7.570   3.519  25.936  0.00  0.00    +0.033 C 
BRANCH  13  15
ATOM     15  C   UNL     1       9.291   3.730  24.097  0.00  0.00    -0.027 A 
ATOM     16  C   UNL     1       9.412   5.129  24.146  0.00  0.00    +0.007 A 
ATOM     17  C   UNL     1      10.606   5.756  23.779  0.00  0.00    +0.020 A 
ATOM     18  C   UNL     1      11.687   4.991  23.348  0.00  0.00    +0.041 A 
ATOM     19 CL   UNL     1      13.167   5.762  22.931  0.00  0.00    -0.084 Cl
ATOM     20  C   UNL     1      11.579   3.605  23.267  0.00  0.00    +0.020 A 
ATOM     21  C   UNL     1      10.387   2.978  23.642  0.00  0.00    +0.007 A 
ENDBRANCH  13  15
ENDBRANCH   2  13
TORSDOF 4
ENDMDL
