MODEL 1
REMARK VINA RESULT:      -7.2      0.000      0.000
REMARK  Name = 
REMARK  4 active torsions:
REMARK  status: ('A' for Active; 'I' for Inactive)
REMARK    1  A    between atoms: C_1  and  N_2
REMARK    2  A    between atoms: C_4  and  O_5
REMARK    3  A    between atoms: C_4  and  N_6
REMARK    4  A    between atoms: N_6  and  C_7
REMARK                            x       y       z     vdW  Elec       q    Type
REMARK                         _______ _______ _______ _____ _____    ______ ____
ROOT
ATOM      1  C   UNL     1       9.595  -4.697  26.462  0.00  0.00    +0.158 C 
ATOM      2  N   UNL     1       8.301  -3.979  26.353  0.00  0.00    -0.197 N 
ATOM      3  S   UNL     1       6.944  -4.803  26.981  0.00  0.00    +0.076 S 
ATOM      4  O   UNL     1       6.007  -3.819  27.464  0.00  0.00    -0.150 OA
ATOM      5  O   UNL     1       7.384  -5.933  27.770  0.00  0.00    -0.150 OA
ATOM      6  C   UNL     1       6.111  -5.510  25.650  0.00  0.00    +0.127 A 
ATOM      7  C   UNL     1       5.031  -6.428  25.748  0.00  0.00    +0.037 A 
ATOM      8  C   UNL     1       4.539  -6.748  24.501  0.00  0.00    +0.048 A 
ATOM      9  S   UNL     1       5.400  -5.958  23.244  0.00  0.00    -0.091 S 
ATOM     10  C   UNL     1       6.392  -5.128  24.359  0.00  0.00    +0.087 A 
ATOM     11  C   UNL     1       7.336  -4.110  23.942  0.00  0.00    +0.222 C 
ATOM     12  O   UNL     1       7.573  -3.814  22.773  0.00  0.00    -0.284 OA
ATOM     13  C   UNL     1       8.018  -3.367  25.062  0.00  0.00    +0.156 C 
ATOM     14  C   UNL     1       8.340  -2.059  25.013  0.00  0.00    +0.210 C 
ENDROOT
BRANCH  14  15
ATOM     15  N   UNL     1       8.139  -1.223  23.943  0.00  0.00    -0.269 N 
ATOM     16  H   UNL     1       7.308  -1.378  23.374  0.00  0.00    +0.156 HD
BRANCH  15  17
ATOM     17  C   UNL     1       8.819  -0.090  23.494  0.00  0.00    +0.125 A 
ATOM     18  N   UNL     1       9.184   0.781  24.462  0.00  0.00    -0.240 NA
ATOM     19  C   UNL     1       9.845   1.905  24.096  0.00  0.00    +0.113 A 
ATOM     20  C   UNL     1      10.167   2.226  22.791  0.00  0.00    +0.020 A 
ATOM     21  C   UNL     1       9.797   1.333  21.803  0.00  0.00    +0.005 A 
ATOM     22  C   UNL     1       9.123   0.166  22.159  0.00  0.00    +0.044 A 
ENDBRANCH  15  17
ENDBRANCH  14  15
BRANCH  14  23
ATOM     23  O   UNL     1       8.882  -1.490  26.160  0.00  0.00    -0.494 OA
ATOM     24  H   UNL     1       9.659  -2.035  26.389  0.00  0.00    +0.294 HD
ENDBRANCH  14  23
TORSDOF 3
ENDMDL
MODEL 2
REMARK VINA RESULT:      -6.9      3.396      6.812
REMARK  Name = 
REMARK  4 active torsions:
REMARK  status: ('A' for Active; 'I' for Inactive)
REMARK    1  A    between atoms: C_1  and  N_2
REMARK    2  A    between atoms: C_4  and  O_5
REMARK    3  A    between atoms: C_4  and  N_6
REMARK    4  A    between atoms: N_6  and  C_7
REMARK                            x       y       z     vdW  Elec       q    Type
REMARK                         _______ _______ _______ _____ _____    ______ ____
ROOT
ATOM      1  C   UNL     1      10.950   0.398  24.549  0.00  0.00    +0.158 C 
ATOM      2  N   UNL     1       9.990  -0.128  23.548  0.00  0.00    -0.197 N 
ATOM      3  S   UNL     1       9.569   0.950  22.292  0.00  0.00    +0.076 S 
ATOM      4  O   UNL     1       9.282   0.173  21.112  0.00  0.00    -0.150 OA
ATOM      5  O   UNL     1      10.474   2.078  22.296  0.00  0.00    -0.150 OA
ATOM      6  C   UNL     1       8.038   1.630  22.690  0.00  0.00    +0.127 A 
ATOM      7  C   UNL     1       7.409   2.702  22.002  0.00  0.00    +0.037 A 
ATOM      8  C   UNL     1       6.159   2.960  22.524  0.00  0.00    +0.048 A 
ATOM      9  S   UNL     1       5.782   1.922  23.839  0.00  0.00    -0.091 S 
ATOM     10  C   UNL     1       7.256   1.077  23.678  0.00  0.00    +0.087 A 
ATOM     11  C   UNL     1       7.554  -0.108  24.457  0.00  0.00    +0.222 C 
ATOM     12  O   UNL     1       6.836  -0.557  25.348  0.00  0.00    -0.284 OA
ATOM     13  C   UNL     1       8.827  -0.822  24.082  0.00  0.00    +0.156 C 
ATOM     14  C   UNL     1       8.978  -2.162  24.113  0.00  0.00    +0.210 C 
ENDROOT
BRANCH  14  15
ATOM     15  N   UNL     1       8.030  -3.067  24.522  0.00  0.00    -0.269 N 
ATOM     16  H   UNL     1       7.716  -3.014  25.490  0.00  0.00    +0.156 HD
BRANCH  15  17
ATOM     17  C   UNL     1       7.300  -4.039  23.837  0.00  0.00    +0.125 A 
ATOM     18  N   UNL     1       7.548  -4.112  22.509  0.00  0.00    -0.240 NA
ATOM     19  C   UNL     1       6.870  -5.032  21.781  0.00  0.00    +0.113 A 
ATOM     20  C   UNL     1       5.935  -5.902  22.307  0.00  0.00    +0.020 A 
ATOM     21  C   UNL     1       5.687  -5.830  23.665  0.00  0.00    +0.005 A 
ATOM     22  C   UNL     1       6.378  -4.895  24.433  0.00  0.00    +0.044 A 
ENDBRANCH  15  17
ENDBRANCH  14  15
BRANCH  14  23
ATOM     23  O   UNL     1      10.181  -2.681  23.649  0.00  0.00    -0.494 OA
ATOM     24  H   UNL     1      10.881  -2.112  24.023  0.00  0.00    +0.294 HD
ENDBRANCH  14  23
TORSDOF 3
ENDMDL
MODEL 3
REMARK VINA RESULT:      -6.6      2.003      2.709
REMARK  Name = 
REMARK  4 active torsions:
REMARK  status: ('A' for Active; 'I' for Inactive)
REMARK    1  A    between atoms: C_1  and  N_2
REMARK    2  A    between atoms: C_4  and  O_5
REMARK    3  A    between atoms: C_4  and  N_6
REMARK    4  A    between atoms: N_6  and  C_7
REMARK                            x       y       z     vdW  Elec       q    Type
REMARK                         _______ _______ _______ _____ _____    ______ ____
ROOT
ATOM      1  C   UNL     1       6.883  -5.141  23.805  0.00  0.00    +0.158 C 
ATOM      2  N   UNL     1       7.513  -4.635  25.050  0.00  0.00    -0.197 N 
ATOM      3  S   UNL     1       6.862  -5.247  26.506  0.00  0.00    +0.076 S 
ATOM      4  O   UNL     1       7.919  -5.286  27.486  0.00  0.00    -0.150 OA
ATOM      5  O   UNL     1       6.006  -6.377  26.219  0.00  0.00    -0.150 OA
ATOM      6  C   UNL     1       5.795  -4.051  27.134  0.00  0.00    +0.127 A 
ATOM      7  C   UNL     1       4.916  -4.229  28.236  0.00  0.00    +0.037 A 
ATOM      8  C   UNL     1       4.251  -3.058  28.533  0.00  0.00    +0.048 A 
ATOM      9  S   UNL     1       4.683  -1.782  27.469  0.00  0.00    -0.091 S 
ATOM     10  C   UNL     1       5.812  -2.765  26.646  0.00  0.00    +0.087 A 
ATOM     11  C   UNL     1       6.697  -2.235  25.628  0.00  0.00    +0.222 C 
ATOM     12  O   UNL     1       6.663  -1.082  25.204  0.00  0.00    -0.284 OA
ATOM     13  C   UNL     1       7.736  -3.198  25.115  0.00  0.00    +0.156 C 
ATOM     14  C   UNL     1       8.987  -2.840  24.761  0.00  0.00    +0.210 C 
ENDROOT
BRANCH  14  15
ATOM     15  N   UNL     1       9.490  -1.562  24.774  0.00  0.00    -0.269 N 
ATOM     16  H   UNL     1       9.919  -1.234  25.638  0.00  0.00    +0.156 HD
BRANCH  15  17
ATOM     17  C   UNL     1       9.625  -0.595  23.778  0.00  0.00    +0.125 A 
ATOM     18  N   UNL     1      10.061   0.612  24.207  0.00  0.00    -0.240 NA
ATOM     19  C   UNL     1      10.212   1.600  23.293  0.00  0.00    +0.113 A 
ATOM     20  C   UNL     1       9.943   1.458  21.945  0.00  0.00    +0.020 A 
ATOM     21  C   UNL     1       9.503   0.223  21.507  0.00  0.00    +0.005 A 
ATOM     22  C   UNL     1       9.348  -0.809  22.430  0.00  0.00    +0.044 A 
ENDBRANCH  15  17
ENDBRANCH  14  15
BRANCH  14  23
ATOM     23  O   UNL     1       9.863  -3.855  24.394  0.00  0.00    -0.494 OA
ATOM     24  H   UNL     1      10.028  -3.735  23.439  0.00  0.00    +0.294 HD
ENDBRANCH  14  23
TORSDOF 3
ENDMDL
MODEL 4
REMARK VINA RESULT:      -6.4      3.701      7.018
REMARK  Name = 
REMARK  4 active torsions:
REMARK  status: ('A' for Active; 'I' for Inactive)
REMARK    1  A    between atoms: C_1  and  N_2
REMARK    2  A    between atoms: C_4  and  O_5
REMARK    3  A    between atoms: C_4  and  N_6
REMARK    4  A    between atoms: N_6  and  C_7
REMARK                            x       y       z     vdW  Elec       q    Type
REMARK                         _______ _______ _______ _____ _____    ______ ____
ROOT
ATOM      1  C   UNL     1      10.425   0.155  24.980  0.00  0.00    +0.158 C 
ATOM      2  N   UNL     1       9.996   0.344  23.573  0.00  0.00    -0.197 N 
ATOM      3  S   UNL     1       9.999   1.957  23.011  0.00  0.00    +0.076 S 
ATOM      4  O   UNL     1      10.281   1.937  21.597  0.00  0.00    -0.150 OA
ATOM      5  O   UNL     1      10.711   2.796  23.949  0.00  0.00    -0.150 OA
ATOM      6  C   UNL     1       8.376   2.526  23.075  0.00  0.00    +0.127 A 
ATOM      7  C   UNL     1       7.966   3.870  22.863  0.00  0.00    +0.037 A 
ATOM      8  C   UNL     1       6.592   3.982  22.911  0.00  0.00    +0.048 A 
ATOM      9  S   UNL     1       5.832   2.477  23.231  0.00  0.00    -0.091 S 
ATOM     10  C   UNL     1       7.327   1.651  23.239  0.00  0.00    +0.087 A 
ATOM     11  C   UNL     1       7.410   0.207  23.335  0.00  0.00    +0.222 C 
ATOM     12  O   UNL     1       6.447  -0.537  23.504  0.00  0.00    -0.284 OA
ATOM     13  C   UNL     1       8.792  -0.370  23.171  0.00  0.00    +0.156 C 
ATOM     14  C   UNL     1       9.052  -1.543  22.559  0.00  0.00    +0.210 C 
ENDROOT
BRANCH  14  15
ATOM     15  N   UNL     1       8.115  -2.399  22.035  0.00  0.00    -0.269 N 
ATOM     16  H   UNL     1       7.903  -2.314  21.041  0.00  0.00    +0.156 HD
BRANCH  15  17
ATOM     17  C   UNL     1       7.416  -3.477  22.580  0.00  0.00    +0.125 A 
ATOM     18  N   UNL     1       7.768  -3.809  23.842  0.00  0.00    -0.240 NA
ATOM     19  C   UNL     1       7.132  -4.849  24.432  0.00  0.00    +0.113 A 
ATOM     20  C   UNL     1       6.146  -5.601  23.824  0.00  0.00    +0.020 A 
ATOM     21  C   UNL     1       5.783  -5.259  22.535  0.00  0.00    +0.005 A 
ATOM     22  C   UNL     1       6.421  -4.187  21.912  0.00  0.00    +0.044 A 
ENDBRANCH  15  17
ENDBRANCH  14  15
BRANCH  14  23
ATOM     23  O   UNL     1      10.385  -1.901  22.401  0.00  0.00    -0.494 OA
ATOM     24  H   UNL     1      10.773  -1.896  23.297  0.00  0.00    +0.294 HD
ENDBRANCH  14  23
TORSDOF 3
ENDMDL
MODEL 5
REMARK VINA RESULT:      -6.4      2.080      3.137
REMARK  Name = 
REMARK  4 active torsions:
REMARK  status: ('A' for Active; 'I' for Inactive)
REMARK    1  A    between atoms: C_1  and  N_2
REMARK    2  A    between atoms: C_4  and  O_5
REMARK    3  A    between atoms: C_4  and  N_6
REMARK    4  A    between atoms: N_6  and  C_7
REMARK                            x       y       z     vdW  Elec       q    Type
REMARK                         _______ _______ _______ _____ _____    ______ ____
ROOT
ATOM      1  C   UNL     1       6.405  -3.256  21.797  0.00  0.00    +0.158 C 
ATOM      2  N   UNL     1       7.449  -3.595  22.795  0.00  0.00    -0.197 N 
ATOM      3  S   UNL     1       7.288  -5.123  23.541  0.00  0.00    +0.076 S 
ATOM      4  O   UNL     1       8.608  -5.603  23.866  0.00  0.00    -0.150 OA
ATOM      5  O   UNL     1       6.312  -5.913  22.824  0.00  0.00    -0.150 OA
ATOM      6  C   UNL     1       6.578  -4.867  25.088  0.00  0.00    +0.127 A 
ATOM      7  C   UNL     1       6.111  -5.888  25.960  0.00  0.00    +0.037 A 
ATOM      8  C   UNL     1       5.665  -5.356  27.151  0.00  0.00    +0.048 A 
ATOM      9  S   UNL     1       5.798  -3.645  27.185  0.00  0.00    -0.091 S 
ATOM     10  C   UNL     1       6.515  -3.606  25.636  0.00  0.00    +0.087 A 
ATOM     11  C   UNL     1       7.038  -2.384  25.059  0.00  0.00    +0.222 C 
ATOM     12  O   UNL     1       6.941  -1.272  25.573  0.00  0.00    -0.284 OA
ATOM     13  C   UNL     1       7.777  -2.552  23.756  0.00  0.00    +0.156 C 
ATOM     14  C   UNL     1       8.857  -1.826  23.402  0.00  0.00    +0.210 C 
ENDROOT
BRANCH  14  15
ATOM     15  N   UNL     1       9.419  -0.812  24.139  0.00  0.00    -0.269 N 
ATOM     16  H   UNL     1       9.956  -1.073  24.965  0.00  0.00    +0.156 HD
BRANCH  15  17
ATOM     17  C   UNL     1       9.489   0.567  23.941  0.00  0.00    +0.125 A 
ATOM     18  N   UNL     1      10.137   0.952  22.817  0.00  0.00    -0.240 NA
ATOM     19  C   UNL     1      10.247   2.278  22.564  0.00  0.00    +0.113 A 
ATOM     20  C   UNL     1       9.743   3.269  23.385  0.00  0.00    +0.020 A 
ATOM     21  C   UNL     1       9.077   2.875  24.530  0.00  0.00    +0.005 A 
ATOM     22  C   UNL     1       8.947   1.514  24.805  0.00  0.00    +0.044 A 
ENDBRANCH  15  17
ENDBRANCH  14  15
BRANCH  14  23
ATOM     23  O   UNL     1       9.488  -2.158  22.209  0.00  0.00    -0.494 OA
ATOM     24  H   UNL     1       9.805  -1.316  21.829  0.00  0.00    +0.294 HD
ENDBRANCH  14  23
TORSDOF 3
ENDMDL
MODEL 6
REMARK VINA RESULT:      -6.3      3.434      6.994
REMARK  Name = 
REMARK  4 active torsions:
REMARK  status: ('A' for Active; 'I' for Inactive)
REMARK    1  A    between atoms: C_1  and  N_2
REMARK    2  A    between atoms: C_4  and  O_5
REMARK    3  A    between atoms: C_4  and  N_6
REMARK    4  A    between atoms: N_6  and  C_7
REMARK                            x       y       z     vdW  Elec       q    Type
REMARK                         _______ _______ _______ _____ _____    ______ ____
ROOT
ATOM      1  C   UNL     1      10.646   0.538  24.750  0.00  0.00    +0.158 C 
ATOM      2  N   UNL     1       9.784   0.171  23.600  0.00  0.00    -0.197 N 
ATOM      3  S   UNL     1       9.543   1.399  22.437  0.00  0.00    +0.076 S 
ATOM      4  O   UNL     1       9.360   0.769  21.153  0.00  0.00    -0.150 OA
ATOM      5  O   UNL     1      10.482   2.475  22.665  0.00  0.00    -0.150 OA
ATOM      6  C   UNL     1       8.003   2.103  22.746  0.00  0.00    +0.127 A 
ATOM      7  C   UNL     1       7.493   3.274  22.122  0.00  0.00    +0.037 A 
ATOM      8  C   UNL     1       6.203   3.532  22.535  0.00  0.00    +0.048 A 
ATOM      9  S   UNL     1       5.646   2.377  23.676  0.00  0.00    -0.091 S 
ATOM     10  C   UNL     1       7.098   1.484  23.576  0.00  0.00    +0.087 A 
ATOM     11  C   UNL     1       7.265   0.208  24.244  0.00  0.00    +0.222 C 
ATOM     12  O   UNL     1       6.438  -0.299  24.997  0.00  0.00    -0.284 OA
ATOM     13  C   UNL     1       8.545  -0.521  23.926  0.00  0.00    +0.156 C 
ATOM     14  C   UNL     1       8.643  -1.861  23.821  0.00  0.00    +0.210 C 
ENDROOT
BRANCH  14  15
ATOM     15  N   UNL     1       7.624  -2.759  24.022  0.00  0.00    -0.269 N 
ATOM     16  H   UNL     1       6.906  -2.823  23.302  0.00  0.00    +0.156 HD
BRANCH  15  17
ATOM     17  C   UNL     1       7.394  -3.716  25.011  0.00  0.00    +0.125 A 
ATOM     18  N   UNL     1       8.435  -3.941  25.844  0.00  0.00    -0.240 NA
ATOM     19  C   UNL     1       8.283  -4.861  26.826  0.00  0.00    +0.113 A 
ATOM     20  C   UNL     1       7.128  -5.592  27.031  0.00  0.00    +0.020 A 
ATOM     21  C   UNL     1       6.063  -5.358  26.183  0.00  0.00    +0.005 A 
ATOM     22  C   UNL     1       6.197  -4.410  25.170  0.00  0.00    +0.044 A 
ENDBRANCH  15  17
ENDBRANCH  14  15
BRANCH  14  23
ATOM     23  O   UNL     1       9.871  -2.384  23.431  0.00  0.00    -0.494 OA
ATOM     24  H   UNL     1      10.418  -2.418  24.239  0.00  0.00    +0.294 HD
ENDBRANCH  14  23
TORSDOF 3
ENDMDL
MODEL 7
REMARK VINA RESULT:      -6.1      3.487      6.841
REMARK  Name = 
REMARK  4 active torsions:
REMARK  status: ('A' for Active; 'I' for Inactive)
REMARK    1  A    between atoms: C_1  and  N_2
REMARK    2  A    between atoms: C_4  and  O_5
REMARK    3  A    between atoms: C_4  and  N_6
REMARK    4  A    between atoms: N_6  and  C_7
REMARK                            x       y       z     vdW  Elec       q    Type
REMARK                         _______ _______ _______ _____ _____    ______ ____
ROOT
ATOM      1  C   UNL     1      10.409   2.261  22.558  0.00  0.00    +0.158 C 
ATOM      2  N   UNL     1       9.201   1.400  22.601  0.00  0.00    -0.197 N 
ATOM      3  S   UNL     1       7.713   2.226  22.739  0.00  0.00    +0.076 S 
ATOM      4  O   UNL     1       6.703   1.441  22.073  0.00  0.00    -0.150 OA
ATOM      5  O   UNL     1       7.914   3.636  22.488  0.00  0.00    -0.150 OA
ATOM      6  C   UNL     1       7.234   2.150  24.391  0.00  0.00    +0.127 A 
ATOM      7  C   UNL     1       6.146   2.860  24.967  0.00  0.00    +0.037 A 
ATOM      8  C   UNL     1       5.984   2.525  26.295  0.00  0.00    +0.048 A 
ATOM      9  S   UNL     1       7.153   1.384  26.821  0.00  0.00    -0.091 S 
ATOM     10  C   UNL     1       7.844   1.278  25.263  0.00  0.00    +0.087 A 
ATOM     11  C   UNL     1       8.883   0.318  24.944  0.00  0.00    +0.222 C 
ATOM     12  O   UNL     1       9.416  -0.430  25.760  0.00  0.00    -0.284 OA
ATOM     13  C   UNL     1       9.269   0.249  23.489  0.00  0.00    +0.156 C 
ATOM     14  C   UNL     1       9.619  -0.889  22.855  0.00  0.00    +0.210 C 
ENDROOT
BRANCH  14  15
ATOM     15  N   UNL     1       9.716  -2.131  23.431  0.00  0.00    -0.269 N 
ATOM     16  H   UNL     1      10.591  -2.367  23.898  0.00  0.00    +0.156 HD
BRANCH  15  17
ATOM     17  C   UNL     1       8.793  -3.164  23.601  0.00  0.00    +0.125 A 
ATOM     18  N   UNL     1       7.913  -3.318  22.586  0.00  0.00    -0.240 NA
ATOM     19  C   UNL     1       6.985  -4.300  22.686  0.00  0.00    +0.113 A 
ATOM     20  C   UNL     1       6.875  -5.156  23.766  0.00  0.00    +0.020 A 
ATOM     21  C   UNL     1       7.779  -5.001  24.800  0.00  0.00    +0.005 A 
ATOM     22  C   UNL     1       8.746  -4.001  24.713  0.00  0.00    +0.044 A 
ENDBRANCH  15  17
ENDBRANCH  14  15
BRANCH  14  23
ATOM     23  O   UNL     1       9.861  -0.811  21.489  0.00  0.00    -0.494 OA
ATOM     24  H   UNL     1       9.078  -0.377  21.101  0.00  0.00    +0.294 HD
ENDBRANCH  14  23
TORSDOF 3
ENDMDL
MODEL 8
REMARK VINA RESULT:      -6.1      3.075      6.366
REMARK  Name = 
REMARK  4 active torsions:
REMARK  status: ('A' for Active; 'I' for Inactive)
REMARK    1  A    between atoms: C_1  and  N_2
REMARK    2  A    between atoms: C_4  and  O_5
REMARK    3  A    between atoms: C_4  and  N_6
REMARK    4  A    between atoms: N_6  and  C_7
REMARK                            x       y       z     vdW  Elec       q    Type
REMARK                         _______ _______ _______ _____ _____    ______ ____
ROOT
ATOM      1  C   UNL     1      11.359   0.692  24.477  0.00  0.00    +0.158 C 
ATOM      2  N   UNL     1      10.015   0.269  24.009  0.00  0.00    -0.197 N 
ATOM      3  S   UNL     1       8.834   1.502  23.949  0.00  0.00    +0.076 S 
ATOM      4  O   UNL     1       7.915   1.188  22.884  0.00  0.00    -0.150 OA
ATOM      5  O   UNL     1       9.471   2.792  24.092  0.00  0.00    -0.150 OA
ATOM      6  C   UNL     1       7.859   1.348  25.360  0.00  0.00    +0.127 A 
ATOM      7  C   UNL     1       6.875   2.280  25.787  0.00  0.00    +0.037 A 
ATOM      8  C   UNL     1       6.222   1.828  26.914  0.00  0.00    +0.048 A 
ATOM      9  S   UNL     1       6.819   0.308  27.442  0.00  0.00    -0.091 S 
ATOM     10  C   UNL     1       7.909   0.210  26.131  0.00  0.00    +0.087 A 
ATOM     11  C   UNL     1       8.702  -0.977  25.875  0.00  0.00    +0.222 C 
ATOM     12  O   UNL     1       8.733  -1.966  26.604  0.00  0.00    -0.284 OA
ATOM     13  C   UNL     1       9.493  -0.958  24.593  0.00  0.00    +0.156 C 
ATOM     14  C   UNL     1       9.709  -2.044  23.823  0.00  0.00    +0.210 C 
ENDROOT
BRANCH  14  15
ATOM     15  N   UNL     1       9.285  -3.321  24.100  0.00  0.00    -0.269 N 
ATOM     16  H   UNL     1       9.887  -3.899  24.685  0.00  0.00    +0.156 HD
BRANCH  15  17
ATOM     17  C   UNL     1       8.104  -4.004  23.811  0.00  0.00    +0.125 A 
ATOM     18  N   UNL     1       7.554  -4.665  24.854  0.00  0.00    -0.240 NA
ATOM     19  C   UNL     1       6.407  -5.354  24.643  0.00  0.00    +0.113 A 
ATOM     20  C   UNL     1       5.762  -5.431  23.423  0.00  0.00    +0.020 A 
ATOM     21  C   UNL     1       6.322  -4.751  22.359  0.00  0.00    +0.005 A 
ATOM     22  C   UNL     1       7.499  -4.030  22.557  0.00  0.00    +0.044 A 
ENDBRANCH  15  17
ENDBRANCH  14  15
BRANCH  14  23
ATOM     23  O   UNL     1      10.379  -1.853  22.620  0.00  0.00    -0.494 OA
ATOM     24  H   UNL     1      11.114  -1.241  22.816  0.00  0.00    +0.294 HD
ENDBRANCH  14  23
TORSDOF 3
ENDMDL
MODEL 9
REMARK VINA RESULT:      -6.1      2.541      3.364
REMARK  Name = 
REMARK  4 active torsions:
REMARK  status: ('A' for Active; 'I' for Inactive)
REMARK    1  A    between atoms: C_1  and  N_2
REMARK    2  A    between atoms: C_4  and  O_5
REMARK    3  A    between atoms: C_4  and  N_6
REMARK    4  A    between atoms: N_6  and  C_7
REMARK                            x       y       z     vdW  Elec       q    Type
REMARK                         _______ _______ _______ _____ _____    ______ ____
ROOT
ATOM      1  C   UNL     1       5.467  -5.985  22.627  0.00  0.00    +0.158 C 
ATOM      2  N   UNL     1       5.826  -5.657  24.029  0.00  0.00    -0.197 N 
ATOM      3  S   UNL     1       4.887  -6.428  25.230  0.00  0.00    +0.076 S 
ATOM      4  O   UNL     1       5.719  -6.618  26.393  0.00  0.00    -0.150 OA
ATOM      5  O   UNL     1       4.108  -7.489  24.631  0.00  0.00    -0.150 OA
ATOM      6  C   UNL     1       3.715  -5.291  25.774  0.00  0.00    +0.127 A 
ATOM      7  C   UNL     1       2.626  -5.582  26.640  0.00  0.00    +0.037 A 
ATOM      8  C   UNL     1       1.915  -4.440  26.941  0.00  0.00    +0.048 A 
ATOM      9  S   UNL     1       2.559  -3.053  26.161  0.00  0.00    -0.091 S 
ATOM     10  C   UNL     1       3.833  -3.955  25.469  0.00  0.00    +0.087 A 
ATOM     11  C   UNL     1       4.910  -3.327  24.730  0.00  0.00    +0.222 C 
ATOM     12  O   UNL     1       4.965  -2.129  24.460  0.00  0.00    -0.284 OA
ATOM     13  C   UNL     1       6.032  -4.246  24.322  0.00  0.00    +0.156 C 
ATOM     14  C   UNL     1       7.330  -3.881  24.282  0.00  0.00    +0.210 C 
ENDROOT
BRANCH  14  15
ATOM     15  N   UNL     1       7.820  -2.629  24.561  0.00  0.00    -0.269 N 
ATOM     16  H   UNL     1       7.698  -2.277  25.510  0.00  0.00    +0.156 HD
BRANCH  15  17
ATOM     17  C   UNL     1       8.567  -1.721  23.809  0.00  0.00    +0.125 A 
ATOM     18  N   UNL     1       8.568  -1.947  22.475  0.00  0.00    -0.240 NA
ATOM     19  C   UNL     1       9.277  -1.107  21.685  0.00  0.00    +0.113 A 
ATOM     20  C   UNL     1      10.006  -0.031  22.153  0.00  0.00    +0.020 A 
ATOM     21  C   UNL     1      10.000   0.202  23.516  0.00  0.00    +0.005 A 
ATOM     22  C   UNL     1       9.271  -0.647  24.346  0.00  0.00    +0.044 A 
ENDBRANCH  15  17
ENDBRANCH  14  15
BRANCH  14  23
ATOM     23  O   UNL     1       8.262  -4.865  23.975  0.00  0.00    -0.494 OA
ATOM     24  H   UNL     1       9.112  -4.401  23.850  0.00  0.00    +0.294 HD
ENDBRANCH  14  23
TORSDOF 3
ENDMDL
