MODEL 1
REMARK VINA RESULT:      -7.3      0.000      0.000
REMARK  Name = 
REMARK  9 active torsions:
REMARK  status: ('A' for Active; 'I' for Inactive)
REMARK    1  A    between atoms: C_2  and  C_3
REMARK    2  A    between atoms: C_2  and  N_4
REMARK    3  A    between atoms: C_2  and  C_25
REMARK    4  A    between atoms: N_4  and  C_5
REMARK    5  A    between atoms: C_11  and  C_12
REMARK    6  A    between atoms: C_17  and  C_18
REMARK    7  A    between atoms: C_18  and  C_19
REMARK    8  A    between atoms: C_19  and  C_20
REMARK    9  A    between atoms: C_20  and  O_21
REMARK                            x       y       z     vdW  Elec       q    Type
REMARK                         _______ _______ _______ _____ _____    ______ ____
ROOT
ATOM      1  C   UNL     1       7.701   2.412  22.624  0.00  0.00    +0.120 A 
ATOM      2  N   UNL     1       7.044   3.488  23.119  0.00  0.00    -0.237 NA
ATOM      3  C   UNL     1       6.010   3.317  23.989  0.00  0.00    +0.162 A 
ATOM      4  C   UNL     1       5.693   2.034  24.387  0.00  0.00    +0.186 A 
ATOM      5  O   UNL     1       4.732   1.658  25.265  0.00  0.00    -0.353 OA
ATOM      6  N   UNL     1       4.746   0.280  25.407  0.00  0.00    -0.077 NA
ATOM      7  C   UNL     1       5.732  -0.174  24.611  0.00  0.00    +0.121 A 
ATOM      8  C   UNL     1       6.346   0.915  23.917  0.00  0.00    +0.054 A 
ATOM      9  C   UNL     1       7.356   1.103  22.960  0.00  0.00    +0.057 A 
ENDROOT
BRANCH   7  10
ATOM     10  C   UNL     1       6.051  -1.602  24.523  0.00  0.00    +0.006 A 
ATOM     11  C   UNL     1       6.465  -2.309  25.663  0.00  0.00    +0.014 A 
ATOM     12  C   UNL     1       6.677  -3.698  25.620  0.00  0.00    -0.045 A 
ATOM     13  C   UNL     1       6.518  -4.369  24.402  0.00  0.00    +0.023 A 
ATOM     14  C   UNL     1       6.152  -3.665  23.258  0.00  0.00    +0.042 A 
ATOM     15 CL   UNL     1       5.956  -4.503  21.767  0.00  0.00    -0.084 Cl
ATOM     16  C   UNL     1       5.925  -2.291  23.310  0.00  0.00    +0.030 A 
BRANCH  12  17
ATOM     17  C   UNL     1       7.066  -4.466  26.862  0.00  0.00    +0.037 C 
BRANCH  17  18
ATOM     18  C   UNL     1       8.280  -5.382  26.685  0.00  0.00    +0.032 C 
BRANCH  18  19
ATOM     19  C   UNL     1       9.528  -4.646  26.212  0.00  0.00    +0.156 C 
BRANCH  19  20
ATOM     20  O   UNL     1      10.079  -5.313  25.083  0.00  0.00    -0.395 OA
ATOM     21  H   UNL     1      11.011  -5.511  25.280  0.00  0.00    +0.209 HD
ENDBRANCH  19  20
ENDBRANCH  18  19
ENDBRANCH  17  18
ENDBRANCH  12  17
ENDBRANCH   7  10
BRANCH   1  22
ATOM     22  N   UNL     1       8.766   2.565  21.728  0.00  0.00    -0.322 N 
ATOM     23  H   UNL     1       8.778   3.535  21.418  0.00  0.00    +0.148 HD
BRANCH  22  24
ATOM     24  C   UNL     1      10.092   2.134  22.172  0.00  0.00    +0.099 C 
ATOM     25  C   UNL     1      10.547   2.953  23.388  0.00  0.00    +0.033 C 
BRANCH  24  26
ATOM     26  C   UNL     1      10.011   0.657  22.557  0.00  0.00    -0.028 A 
ATOM     27  C   UNL     1      10.215   0.263  23.888  0.00  0.00    +0.005 A 
ATOM     28  C   UNL     1      10.082  -1.077  24.263  0.00  0.00    +0.000 A 
ATOM     29  C   UNL     1       9.749  -2.042  23.314  0.00  0.00    +0.000 A 
ATOM     30  C   UNL     1       9.567  -1.671  21.984  0.00  0.00    +0.000 A 
ATOM     31  C   UNL     1       9.704  -0.334  21.606  0.00  0.00    +0.005 A 
ENDBRANCH  24  26
ENDBRANCH  22  24
ENDBRANCH   1  22
TORSDOF 8
ENDMDL
MODEL 2
REMARK VINA RESULT:      -7.3      3.752      7.690
REMARK  Name = 
REMARK  9 active torsions:
REMARK  status: ('A' for Active; 'I' for Inactive)
REMARK    1  A    between atoms: C_2  and  C_3
REMARK    2  A    between atoms: C_2  and  N_4
REMARK    3  A    between atoms: C_2  and  C_25
REMARK    4  A    between atoms: N_4  and  C_5
REMARK    5  A    between atoms: C_11  and  C_12
REMARK    6  A    between atoms: C_17  and  C_18
REMARK    7  A    between atoms: C_18  and  C_19
REMARK    8  A    between atoms: C_19  and  C_20
REMARK    9  A    between atoms: C_20  and  O_21
REMARK                            x       y       z     vdW  Elec       q    Type
REMARK                         _______ _______ _______ _____ _____    ______ ____
ROOT
ATOM      1  C   UNL     1       8.169  -2.110  24.327  0.00  0.00    +0.120 A 
ATOM      2  N   UNL     1       8.450  -2.815  23.207  0.00  0.00    -0.237 NA
ATOM      3  C   UNL     1       8.857  -2.171  22.078  0.00  0.00    +0.162 A 
ATOM      4  C   UNL     1       9.023  -0.801  22.127  0.00  0.00    +0.186 A 
ATOM      5  O   UNL     1       9.451   0.013  21.132  0.00  0.00    -0.353 OA
ATOM      6  N   UNL     1       9.499   1.320  21.589  0.00  0.00    -0.077 NA
ATOM      7  C   UNL     1       9.101   1.287  22.875  0.00  0.00    +0.121 A 
ATOM      8  C   UNL     1       8.761  -0.050  23.252  0.00  0.00    +0.054 A 
ATOM      9  C   UNL     1       8.266  -0.719  24.382  0.00  0.00    +0.057 A 
ENDROOT
BRANCH   7  10
ATOM     10  C   UNL     1       9.047   2.502  23.693  0.00  0.00    +0.006 A 
ATOM     11  C   UNL     1       9.927   3.567  23.442  0.00  0.00    +0.014 A 
ATOM     12  C   UNL     1       9.822   4.778  24.148  0.00  0.00    -0.045 A 
ATOM     13  C   UNL     1       8.852   4.896  25.150  0.00  0.00    +0.023 A 
ATOM     14  C   UNL     1       8.007   3.826  25.434  0.00  0.00    +0.042 A 
ATOM     15 CL   UNL     1       6.815   3.984  26.666  0.00  0.00    -0.084 Cl
ATOM     16  C   UNL     1       8.103   2.634  24.719  0.00  0.00    +0.030 A 
BRANCH  12  17
ATOM     17  C   UNL     1      10.733   5.943  23.837  0.00  0.00    +0.037 C 
BRANCH  17  18
ATOM     18  C   UNL     1      12.221   5.661  24.061  0.00  0.00    +0.032 C 
BRANCH  18  19
ATOM     19  C   UNL     1      12.997   5.451  22.766  0.00  0.00    +0.156 C 
BRANCH  19  20
ATOM     20  O   UNL     1      14.362   5.181  23.063  0.00  0.00    -0.395 OA
ATOM     21  H   UNL     1      14.877   5.974  22.837  0.00  0.00    +0.209 HD
ENDBRANCH  19  20
ENDBRANCH  18  19
ENDBRANCH  17  18
ENDBRANCH  12  17
ENDBRANCH   7  10
BRANCH   1  22
ATOM     22  N   UNL     1       7.750  -2.752  25.499  0.00  0.00    -0.322 N 
ATOM     23  H   UNL     1       6.885  -2.310  25.806  0.00  0.00    +0.148 HD
BRANCH  22  24
ATOM     24  C   UNL     1       7.618  -4.208  25.463  0.00  0.00    +0.099 C 
ATOM     25  C   UNL     1       8.231  -4.836  26.723  0.00  0.00    +0.033 C 
BRANCH  24  26
ATOM     26  C   UNL     1       6.131  -4.554  25.395  0.00  0.00    -0.028 A 
ATOM     27  C   UNL     1       5.197  -3.578  25.015  0.00  0.00    +0.005 A 
ATOM     28  C   UNL     1       3.842  -3.899  24.889  0.00  0.00    +0.000 A 
ATOM     29  C   UNL     1       3.401  -5.195  25.146  0.00  0.00    +0.000 A 
ATOM     30  C   UNL     1       4.312  -6.170  25.548  0.00  0.00    +0.000 A 
ATOM     31  C   UNL     1       5.665  -5.851  25.679  0.00  0.00    +0.005 A 
ENDBRANCH  24  26
ENDBRANCH  22  24
ENDBRANCH   1  22
TORSDOF 8
ENDMDL
MODEL 3
REMARK VINA RESULT:      -7.2      1.853      2.365
REMARK  Name = 
REMARK  9 active torsions:
REMARK  status: ('A' for Active; 'I' for Inactive)
REMARK    1  A    between atoms: C_2  and  C_3
REMARK    2  A    between atoms: C_2  and  N_4
REMARK    3  A    between atoms: C_2  and  C_25
REMARK    4  A    between atoms: N_4  and  C_5
REMARK    5  A    between atoms: C_11  and  C_12
REMARK    6  A    between atoms: C_17  and  C_18
REMARK    7  A    between atoms: C_18  and  C_19
REMARK    8  A    between atoms: C_19  and  C_20
REMARK    9  A    between atoms: C_20  and  O_21
REMARK                            x       y       z     vdW  Elec       q    Type
REMARK                         _______ _______ _______ _____ _____    ______ ____
ROOT
ATOM      1  C   UNL     1       7.731   2.614  22.622  0.00  0.00    +0.120 A 
ATOM      2  N   UNL     1       7.181   3.781  23.032  0.00  0.00    -0.237 NA
ATOM      3  C   UNL     1       6.153   3.776  23.925  0.00  0.00    +0.162 A 
ATOM      4  C   UNL     1       5.731   2.563  24.433  0.00  0.00    +0.186 A 
ATOM      5  O   UNL     1       4.757   2.348  25.350  0.00  0.00    -0.353 OA
ATOM      6  N   UNL     1       4.652   0.990  25.607  0.00  0.00    -0.077 NA
ATOM      7  C   UNL     1       5.579   0.386  24.840  0.00  0.00    +0.121 A 
ATOM      8  C   UNL     1       6.274   1.355  24.051  0.00  0.00    +0.054 A 
ATOM      9  C   UNL     1       7.278   1.373  23.070  0.00  0.00    +0.057 A 
ENDROOT
BRANCH   7  10
ATOM     10  C   UNL     1       5.769  -1.067  24.867  0.00  0.00    +0.006 A 
ATOM     11  C   UNL     1       6.093  -1.763  23.692  0.00  0.00    +0.014 A 
ATOM     12  C   UNL     1       6.379  -3.140  23.717  0.00  0.00    -0.045 A 
ATOM     13  C   UNL     1       6.287  -3.827  24.933  0.00  0.00    +0.023 A 
ATOM     14  C   UNL     1       5.922  -3.150  26.094  0.00  0.00    +0.042 A 
ATOM     15 CL   UNL     1       5.816  -4.006  27.583  0.00  0.00    -0.084 Cl
ATOM     16  C   UNL     1       5.657  -1.782  26.066  0.00  0.00    +0.030 A 
BRANCH  12  17
ATOM     17  C   UNL     1       6.783  -3.875  22.461  0.00  0.00    +0.037 C 
BRANCH  17  18
ATOM     18  C   UNL     1       7.340  -5.281  22.702  0.00  0.00    +0.032 C 
BRANCH  18  19
ATOM     19  C   UNL     1       6.642  -6.355  21.876  0.00  0.00    +0.156 C 
BRANCH  19  20
ATOM     20  O   UNL     1       5.239  -6.299  22.104  0.00  0.00    -0.395 OA
ATOM     21  H   UNL     1       4.947  -5.387  21.941  0.00  0.00    +0.209 HD
ENDBRANCH  19  20
ENDBRANCH  18  19
ENDBRANCH  17  18
ENDBRANCH  12  17
ENDBRANCH   7  10
BRANCH   1  22
ATOM     22  N   UNL     1       8.788   2.597  21.704  0.00  0.00    -0.322 N 
ATOM     23  H   UNL     1       8.817   3.504  21.243  0.00  0.00    +0.148 HD
BRANCH  22  24
ATOM     24  C   UNL     1      10.109   2.210  22.199  0.00  0.00    +0.099 C 
ATOM     25  C   UNL     1      10.494   3.054  23.424  0.00  0.00    +0.033 C 
BRANCH  24  26
ATOM     26  C   UNL     1      10.060   0.735  22.595  0.00  0.00    -0.028 A 
ATOM     27  C   UNL     1      10.264   0.355  23.930  0.00  0.00    +0.005 A 
ATOM     28  C   UNL     1      10.160  -0.984  24.314  0.00  0.00    +0.000 A 
ATOM     29  C   UNL     1       9.855  -1.964  23.370  0.00  0.00    +0.000 A 
ATOM     30  C   UNL     1       9.673  -1.607  22.036  0.00  0.00    +0.000 A 
ATOM     31  C   UNL     1       9.781  -0.270  21.649  0.00  0.00    +0.005 A 
ENDBRANCH  24  26
ENDBRANCH  22  24
ENDBRANCH   1  22
TORSDOF 8
ENDMDL
MODEL 4
REMARK VINA RESULT:      -7.1      1.311      1.625
REMARK  Name = 
REMARK  9 active torsions:
REMARK  status: ('A' for Active; 'I' for Inactive)
REMARK    1  A    between atoms: C_2  and  C_3
REMARK    2  A    between atoms: C_2  and  N_4
REMARK    3  A    between atoms: C_2  and  C_25
REMARK    4  A    between atoms: N_4  and  C_5
REMARK    5  A    between atoms: C_11  and  C_12
REMARK    6  A    between atoms: C_17  and  C_18
REMARK    7  A    between atoms: C_18  and  C_19
REMARK    8  A    between atoms: C_19  and  C_20
REMARK    9  A    between atoms: C_20  and  O_21
REMARK                            x       y       z     vdW  Elec       q    Type
REMARK                         _______ _______ _______ _____ _____    ______ ____
ROOT
ATOM      1  C   UNL     1       6.566   2.669  23.635  0.00  0.00    +0.120 A 
ATOM      2  N   UNL     1       5.799   3.402  24.476  0.00  0.00    -0.237 NA
ATOM      3  C   UNL     1       4.972   2.783  25.363  0.00  0.00    +0.162 A 
ATOM      4  C   UNL     1       4.980   1.403  25.414  0.00  0.00    +0.186 A 
ATOM      5  O   UNL     1       4.264   0.605  26.243  0.00  0.00    -0.353 OA
ATOM      6  N   UNL     1       4.571  -0.722  25.990  0.00  0.00    -0.077 NA
ATOM      7  C   UNL     1       5.485  -0.719  25.002  0.00  0.00    +0.121 A 
ATOM      8  C   UNL     1       5.756   0.622  24.584  0.00  0.00    +0.054 A 
ATOM      9  C   UNL     1       6.542   1.274  23.622  0.00  0.00    +0.057 A 
ENDROOT
BRANCH   7  10
ATOM     10  C   UNL     1       6.059  -1.964  24.483  0.00  0.00    +0.006 A 
ATOM     11  C   UNL     1       7.431  -2.228  24.628  0.00  0.00    +0.014 A 
ATOM     12  C   UNL     1       7.980  -3.459  24.229  0.00  0.00    -0.045 A 
ATOM     13  C   UNL     1       7.145  -4.411  23.632  0.00  0.00    +0.023 A 
ATOM     14  C   UNL     1       5.793  -4.136  23.444  0.00  0.00    +0.042 A 
ATOM     15 CL   UNL     1       4.776  -5.316  22.713  0.00  0.00    -0.084 Cl
ATOM     16  C   UNL     1       5.250  -2.921  23.858  0.00  0.00    +0.030 A 
BRANCH  12  17
ATOM     17  C   UNL     1       9.445  -3.763  24.439  0.00  0.00    +0.037 C 
BRANCH  17  18
ATOM     18  C   UNL     1       9.722  -4.876  25.453  0.00  0.00    +0.032 C 
BRANCH  18  19
ATOM     19  C   UNL     1       8.892  -4.752  26.726  0.00  0.00    +0.156 C 
BRANCH  19  20
ATOM     20  O   UNL     1       8.087  -5.914  26.889  0.00  0.00    -0.395 OA
ATOM     21  H   UNL     1       7.750  -6.167  26.013  0.00  0.00    +0.209 HD
ENDBRANCH  19  20
ENDBRANCH  18  19
ENDBRANCH  17  18
ENDBRANCH  12  17
ENDBRANCH   7  10
BRANCH   1  22
ATOM     22  N   UNL     1       7.422   3.286  22.715  0.00  0.00    -0.322 N 
ATOM     23  H   UNL     1       7.048   4.210  22.508  0.00  0.00    +0.148 HD
BRANCH  22  24
ATOM     24  C   UNL     1       8.844   3.354  23.053  0.00  0.00    +0.099 C 
ATOM     25  C   UNL     1       9.034   3.886  24.481  0.00  0.00    +0.033 C 
BRANCH  24  26
ATOM     26  C   UNL     1       9.428   1.945  22.955  0.00  0.00    -0.028 A 
ATOM     27  C   UNL     1      10.024   1.348  24.076  0.00  0.00    +0.005 A 
ATOM     28  C   UNL     1      10.505   0.038  24.016  0.00  0.00    +0.000 A 
ATOM     29  C   UNL     1      10.402  -0.694  22.834  0.00  0.00    +0.000 A 
ATOM     30  C   UNL     1       9.835  -0.108  21.704  0.00  0.00    +0.000 A 
ATOM     31  C   UNL     1       9.358   1.202  21.761  0.00  0.00    +0.005 A 
ENDBRANCH  24  26
ENDBRANCH  22  24
ENDBRANCH   1  22
TORSDOF 8
ENDMDL
MODEL 5
REMARK VINA RESULT:      -7.1      2.500      4.553
REMARK  Name = 
REMARK  9 active torsions:
REMARK  status: ('A' for Active; 'I' for Inactive)
REMARK    1  A    between atoms: C_2  and  C_3
REMARK    2  A    between atoms: C_2  and  N_4
REMARK    3  A    between atoms: C_2  and  C_25
REMARK    4  A    between atoms: N_4  and  C_5
REMARK    5  A    between atoms: C_11  and  C_12
REMARK    6  A    between atoms: C_17  and  C_18
REMARK    7  A    between atoms: C_18  and  C_19
REMARK    8  A    between atoms: C_19  and  C_20
REMARK    9  A    between atoms: C_20  and  O_21
REMARK                            x       y       z     vdW  Elec       q    Type
REMARK                         _______ _______ _______ _____ _____    ______ ____
ROOT
ATOM      1  C   UNL     1       7.500   1.080  22.549  0.00  0.00    +0.120 A 
ATOM      2  N   UNL     1       8.647   1.588  22.041  0.00  0.00    -0.237 NA
ATOM      3  C   UNL     1       9.776   0.827  22.006  0.00  0.00    +0.162 A 
ATOM      4  C   UNL     1       9.700  -0.479  22.449  0.00  0.00    +0.186 A 
ATOM      5  O   UNL     1      10.692  -1.402  22.463  0.00  0.00    -0.353 OA
ATOM      6  N   UNL     1      10.206  -2.598  22.966  0.00  0.00    -0.077 NA
ATOM      7  C   UNL     1       8.906  -2.390  23.251  0.00  0.00    +0.121 A 
ATOM      8  C   UNL     1       8.548  -1.036  22.960  0.00  0.00    +0.054 A 
ATOM      9  C   UNL     1       7.416  -0.214  23.063  0.00  0.00    +0.057 A 
ENDROOT
BRANCH   7  10
ATOM     10  C   UNL     1       8.058  -3.457  23.791  0.00  0.00    +0.006 A 
ATOM     11  C   UNL     1       8.222  -3.892  25.115  0.00  0.00    +0.014 A 
ATOM     12  C   UNL     1       7.353  -4.841  25.682  0.00  0.00    -0.045 A 
ATOM     13  C   UNL     1       6.341  -5.391  24.886  0.00  0.00    +0.023 A 
ATOM     14  C   UNL     1       6.203  -4.997  23.557  0.00  0.00    +0.042 A 
ATOM     15 CL   UNL     1       4.953  -5.678  22.590  0.00  0.00    -0.084 Cl
ATOM     16  C   UNL     1       7.056  -4.042  23.007  0.00  0.00    +0.030 A 
BRANCH  12  17
ATOM     17  C   UNL     1       7.495  -5.266  27.124  0.00  0.00    +0.037 C 
BRANCH  17  18
ATOM     18  C   UNL     1       6.183  -5.276  27.914  0.00  0.00    +0.032 C 
BRANCH  18  19
ATOM     19  C   UNL     1       6.106  -6.401  28.940  0.00  0.00    +0.156 C 
BRANCH  19  20
ATOM     20  O   UNL     1       5.501  -7.547  28.351  0.00  0.00    -0.395 OA
ATOM     21  H   UNL     1       4.969  -7.986  29.036  0.00  0.00    +0.209 HD
ENDBRANCH  19  20
ENDBRANCH  18  19
ENDBRANCH  17  18
ENDBRANCH  12  17
ENDBRANCH   7  10
BRANCH   1  22
ATOM     22  N   UNL     1       6.329   1.846  22.595  0.00  0.00    -0.322 N 
ATOM     23  H   UNL     1       5.536   1.212  22.522  0.00  0.00    +0.148 HD
BRANCH  22  24
ATOM     24  C   UNL     1       6.168   2.771  23.717  0.00  0.00    +0.099 C 
ATOM     25  C   UNL     1       6.639   2.120  25.025  0.00  0.00    +0.033 C 
BRANCH  24  26
ATOM     26  C   UNL     1       7.010   4.016  23.437  0.00  0.00    -0.028 A 
ATOM     27  C   UNL     1       6.737   4.815  22.317  0.00  0.00    +0.005 A 
ATOM     28  C   UNL     1       7.459   5.988  22.085  0.00  0.00    +0.000 A 
ATOM     29  C   UNL     1       8.467   6.377  22.965  0.00  0.00    +0.000 A 
ATOM     30  C   UNL     1       8.767   5.583  24.069  0.00  0.00    +0.000 A 
ATOM     31  C   UNL     1       8.050   4.408  24.300  0.00  0.00    +0.005 A 
ENDBRANCH  24  26
ENDBRANCH  22  24
ENDBRANCH   1  22
TORSDOF 8
ENDMDL
MODEL 6
REMARK VINA RESULT:      -7.1      3.839      6.996
REMARK  Name = 
REMARK  9 active torsions:
REMARK  status: ('A' for Active; 'I' for Inactive)
REMARK    1  A    between atoms: C_2  and  C_3
REMARK    2  A    between atoms: C_2  and  N_4
REMARK    3  A    between atoms: C_2  and  C_25
REMARK    4  A    between atoms: N_4  and  C_5
REMARK    5  A    between atoms: C_11  and  C_12
REMARK    6  A    between atoms: C_17  and  C_18
REMARK    7  A    between atoms: C_18  and  C_19
REMARK    8  A    between atoms: C_19  and  C_20
REMARK    9  A    between atoms: C_20  and  O_21
REMARK                            x       y       z     vdW  Elec       q    Type
REMARK                         _______ _______ _______ _____ _____    ______ ____
ROOT
ATOM      1  C   UNL     1       8.592  -0.220  25.429  0.00  0.00    +0.120 A 
ATOM      2  N   UNL     1       7.882  -0.740  26.458  0.00  0.00    -0.237 NA
ATOM      3  C   UNL     1       7.105   0.069  27.230  0.00  0.00    +0.162 A 
ATOM      4  C   UNL     1       7.024   1.408  26.903  0.00  0.00    +0.186 A 
ATOM      5  O   UNL     1       6.286   2.364  27.518  0.00  0.00    -0.353 OA
ATOM      6  N   UNL     1       6.466   3.577  26.873  0.00  0.00    -0.077 NA
ATOM      7  C   UNL     1       7.317   3.344  25.857  0.00  0.00    +0.121 A 
ATOM      8  C   UNL     1       7.721   1.972  25.856  0.00  0.00    +0.054 A 
ATOM      9  C   UNL     1       8.578   1.140  25.120  0.00  0.00    +0.057 A 
ENDROOT
BRANCH   7  10
ATOM     10  C   UNL     1       7.723   4.410  24.937  0.00  0.00    +0.006 A 
ATOM     11  C   UNL     1       9.054   4.857  24.912  0.00  0.00    +0.014 A 
ATOM     12  C   UNL     1       9.485   5.806  23.968  0.00  0.00    -0.045 A 
ATOM     13  C   UNL     1       8.552   6.344  23.075  0.00  0.00    +0.023 A 
ATOM     14  C   UNL     1       7.221   5.937  23.125  0.00  0.00    +0.042 A 
ATOM     15 CL   UNL     1       6.083   6.604  22.019  0.00  0.00    -0.084 Cl
ATOM     16  C   UNL     1       6.803   4.984  24.051  0.00  0.00    +0.030 A 
BRANCH  12  17
ATOM     17  C   UNL     1      10.930   6.243  23.906  0.00  0.00    +0.037 C 
BRANCH  17  18
ATOM     18  C   UNL     1      11.911   5.136  23.512  0.00  0.00    +0.032 C 
BRANCH  18  19
ATOM     19  C   UNL     1      13.135   5.652  22.764  0.00  0.00    +0.156 C 
BRANCH  19  20
ATOM     20  O   UNL     1      14.279   4.891  23.133  0.00  0.00    -0.395 OA
ATOM     21  H   UNL     1      14.383   4.176  22.482  0.00  0.00    +0.209 HD
ENDBRANCH  19  20
ENDBRANCH  18  19
ENDBRANCH  17  18
ENDBRANCH  12  17
ENDBRANCH   7  10
BRANCH   1  22
ATOM     22  N   UNL     1       9.397  -1.035  24.623  0.00  0.00    -0.322 N 
ATOM     23  H   UNL     1       9.597  -1.889  25.141  0.00  0.00    +0.148 HD
BRANCH  22  24
ATOM     24  C   UNL     1       8.921  -1.332  23.272  0.00  0.00    +0.099 C 
ATOM     25  C   UNL     1      10.072  -1.235  22.261  0.00  0.00    +0.033 C 
BRANCH  24  26
ATOM     26  C   UNL     1       8.357  -2.753  23.265  0.00  0.00    -0.028 A 
ATOM     27  C   UNL     1       7.407  -3.130  22.303  0.00  0.00    +0.005 A 
ATOM     28  C   UNL     1       6.931  -4.442  22.247  0.00  0.00    +0.000 A 
ATOM     29  C   UNL     1       7.393  -5.395  23.153  0.00  0.00    +0.000 A 
ATOM     30  C   UNL     1       8.318  -5.032  24.130  0.00  0.00    +0.000 A 
ATOM     31  C   UNL     1       8.791  -3.721  24.190  0.00  0.00    +0.005 A 
ENDBRANCH  24  26
ENDBRANCH  22  24
ENDBRANCH   1  22
TORSDOF 8
ENDMDL
MODEL 7
REMARK VINA RESULT:      -7.0      3.486      7.508
REMARK  Name = 
REMARK  9 active torsions:
REMARK  status: ('A' for Active; 'I' for Inactive)
REMARK    1  A    between atoms: C_2  and  C_3
REMARK    2  A    between atoms: C_2  and  N_4
REMARK    3  A    between atoms: C_2  and  C_25
REMARK    4  A    between atoms: N_4  and  C_5
REMARK    5  A    between atoms: C_11  and  C_12
REMARK    6  A    between atoms: C_17  and  C_18
REMARK    7  A    between atoms: C_18  and  C_19
REMARK    8  A    between atoms: C_19  and  C_20
REMARK    9  A    between atoms: C_20  and  O_21
REMARK                            x       y       z     vdW  Elec       q    Type
REMARK                         _______ _______ _______ _____ _____    ______ ____
ROOT
ATOM      1  C   UNL     1       9.122  -2.089  24.231  0.00  0.00    +0.120 A 
ATOM      2  N   UNL     1       9.786  -2.446  23.106  0.00  0.00    -0.237 NA
ATOM      3  C   UNL     1      10.154  -1.499  22.199  0.00  0.00    +0.162 A 
ATOM      4  C   UNL     1       9.881  -0.176  22.485  0.00  0.00    +0.186 A 
ATOM      5  O   UNL     1      10.194   0.910  21.738  0.00  0.00    -0.353 OA
ATOM      6  N   UNL     1       9.762   2.058  22.382  0.00  0.00    -0.077 NA
ATOM      7  C   UNL     1       9.190   1.655  23.532  0.00  0.00    +0.121 A 
ATOM      8  C   UNL     1       9.220   0.228  23.625  0.00  0.00    +0.054 A 
ATOM      9  C   UNL     1       8.777  -0.767  24.510  0.00  0.00    +0.057 A 
ENDROOT
BRANCH   7  10
ATOM     10  C   UNL     1       8.631   2.615  24.488  0.00  0.00    +0.006 A 
ATOM     11  C   UNL     1       8.802   3.995  24.292  0.00  0.00    +0.014 A 
ATOM     12  C   UNL     1       8.188   4.932  25.141  0.00  0.00    -0.045 A 
ATOM     13  C   UNL     1       7.437   4.469  26.228  0.00  0.00    +0.023 A 
ATOM     14  C   UNL     1       7.303   3.102  26.454  0.00  0.00    +0.042 A 
ATOM     15 CL   UNL     1       6.374   2.546  27.793  0.00  0.00    -0.084 Cl
ATOM     16  C   UNL     1       7.898   2.177  25.599  0.00  0.00    +0.030 A 
BRANCH  12  17
ATOM     17  C   UNL     1       8.325   6.416  24.893  0.00  0.00    +0.037 C 
BRANCH  17  18
ATOM     18  C   UNL     1       8.655   6.789  23.446  0.00  0.00    +0.032 C 
BRANCH  18  19
ATOM     19  C   UNL     1       7.418   6.947  22.568  0.00  0.00    +0.156 C 
BRANCH  19  20
ATOM     20  O   UNL     1       7.540   6.123  21.415  0.00  0.00    -0.395 OA
ATOM     21  H   UNL     1       8.177   6.544  20.814  0.00  0.00    +0.209 HD
ENDBRANCH  19  20
ENDBRANCH  18  19
ENDBRANCH  17  18
ENDBRANCH  12  17
ENDBRANCH   7  10
BRANCH   1  22
ATOM     22  N   UNL     1       8.735  -3.048  25.175  0.00  0.00    -0.322 N 
ATOM     23  H   UNL     1       7.759  -2.879  25.411  0.00  0.00    +0.148 HD
BRANCH  22  24
ATOM     24  C   UNL     1       8.966  -4.454  24.848  0.00  0.00    +0.099 C 
ATOM     25  C   UNL     1       9.350  -5.245  26.106  0.00  0.00    +0.033 C 
BRANCH  24  26
ATOM     26  C   UNL     1       7.677  -5.028  24.261  0.00  0.00    -0.028 A 
ATOM     27  C   UNL     1       6.525  -5.131  25.056  0.00  0.00    +0.005 A 
ATOM     28  C   UNL     1       5.324  -5.596  24.513  0.00  0.00    +0.000 A 
ATOM     29  C   UNL     1       5.257  -5.969  23.172  0.00  0.00    +0.000 A 
ATOM     30  C   UNL     1       6.398  -5.896  22.375  0.00  0.00    +0.000 A 
ATOM     31  C   UNL     1       7.600  -5.436  22.916  0.00  0.00    +0.005 A 
ENDBRANCH  24  26
ENDBRANCH  22  24
ENDBRANCH   1  22
TORSDOF 8
ENDMDL
MODEL 8
REMARK VINA RESULT:      -6.9      2.368      4.361
REMARK  Name = 
REMARK  9 active torsions:
REMARK  status: ('A' for Active; 'I' for Inactive)
REMARK    1  A    between atoms: C_2  and  C_3
REMARK    2  A    between atoms: C_2  and  N_4
REMARK    3  A    between atoms: C_2  and  C_25
REMARK    4  A    between atoms: N_4  and  C_5
REMARK    5  A    between atoms: C_11  and  C_12
REMARK    6  A    between atoms: C_17  and  C_18
REMARK    7  A    between atoms: C_18  and  C_19
REMARK    8  A    between atoms: C_19  and  C_20
REMARK    9  A    between atoms: C_20  and  O_21
REMARK                            x       y       z     vdW  Elec       q    Type
REMARK                         _______ _______ _______ _____ _____    ______ ____
ROOT
ATOM      1  C   UNL     1       7.452   1.028  22.333  0.00  0.00    +0.120 A 
ATOM      2  N   UNL     1       8.597   1.560  21.844  0.00  0.00    -0.237 NA
ATOM      3  C   UNL     1       9.752   0.837  21.868  0.00  0.00    +0.162 A 
ATOM      4  C   UNL     1       9.706  -0.456  22.350  0.00  0.00    +0.186 A 
ATOM      5  O   UNL     1      10.727  -1.343  22.424  0.00  0.00    -0.353 OA
ATOM      6  N   UNL     1      10.266  -2.539  22.951  0.00  0.00    -0.077 NA
ATOM      7  C   UNL     1       8.952  -2.368  23.188  0.00  0.00    +0.121 A 
ATOM      8  C   UNL     1       8.558  -1.037  22.843  0.00  0.00    +0.054 A 
ATOM      9  C   UNL     1       7.395  -0.252  22.885  0.00  0.00    +0.057 A 
ENDROOT
BRANCH   7  10
ATOM     10  C   UNL     1       8.124  -3.446  23.735  0.00  0.00    +0.006 A 
ATOM     11  C   UNL     1       8.295  -3.870  25.063  0.00  0.00    +0.014 A 
ATOM     12  C   UNL     1       7.443  -4.831  25.635  0.00  0.00    -0.045 A 
ATOM     13  C   UNL     1       6.442  -5.405  24.843  0.00  0.00    +0.023 A 
ATOM     14  C   UNL     1       6.298  -5.022  23.512  0.00  0.00    +0.042 A 
ATOM     15 CL   UNL     1       5.061  -5.733  22.549  0.00  0.00    -0.084 Cl
ATOM     16  C   UNL     1       7.133  -4.056  22.955  0.00  0.00    +0.030 A 
BRANCH  12  17
ATOM     17  C   UNL     1       7.593  -5.243  27.081  0.00  0.00    +0.037 C 
BRANCH  17  18
ATOM     18  C   UNL     1       6.269  -5.468  27.815  0.00  0.00    +0.032 C 
BRANCH  18  19
ATOM     19  C   UNL     1       6.343  -6.566  28.870  0.00  0.00    +0.156 C 
BRANCH  19  20
ATOM     20  O   UNL     1       5.415  -7.597  28.556  0.00  0.00    -0.395 OA
ATOM     21  H   UNL     1       4.521  -7.221  28.617  0.00  0.00    +0.209 HD
ENDBRANCH  19  20
ENDBRANCH  18  19
ENDBRANCH  17  18
ENDBRANCH  12  17
ENDBRANCH   7  10
BRANCH   1  22
ATOM     22  N   UNL     1       6.255   1.754  22.318  0.00  0.00    -0.322 N 
ATOM     23  H   UNL     1       5.509   1.135  22.627  0.00  0.00    +0.148 HD
BRANCH  22  24
ATOM     24  C   UNL     1       6.224   3.025  23.041  0.00  0.00    +0.099 C 
ATOM     25  C   UNL     1       4.989   3.844  22.641  0.00  0.00    +0.033 C 
BRANCH  24  26
ATOM     26  C   UNL     1       6.170   2.723  24.538  0.00  0.00    -0.028 A 
ATOM     27  C   UNL     1       7.221   3.122  25.377  0.00  0.00    +0.005 A 
ATOM     28  C   UNL     1       7.154   2.907  26.756  0.00  0.00    +0.000 A 
ATOM     29  C   UNL     1       6.039   2.286  27.316  0.00  0.00    +0.000 A 
ATOM     30  C   UNL     1       4.996   1.863  26.495  0.00  0.00    +0.000 A 
ATOM     31  C   UNL     1       5.063   2.072  25.116  0.00  0.00    +0.005 A 
ENDBRANCH  24  26
ENDBRANCH  22  24
ENDBRANCH   1  22
TORSDOF 8
ENDMDL
MODEL 9
REMARK VINA RESULT:      -6.9      3.219      5.224
REMARK  Name = 
REMARK  9 active torsions:
REMARK  status: ('A' for Active; 'I' for Inactive)
REMARK    1  A    between atoms: C_2  and  C_3
REMARK    2  A    between atoms: C_2  and  N_4
REMARK    3  A    between atoms: C_2  and  C_25
REMARK    4  A    between atoms: N_4  and  C_5
REMARK    5  A    between atoms: C_11  and  C_12
REMARK    6  A    between atoms: C_17  and  C_18
REMARK    7  A    between atoms: C_18  and  C_19
REMARK    8  A    between atoms: C_19  and  C_20
REMARK    9  A    between atoms: C_20  and  O_21
REMARK                            x       y       z     vdW  Elec       q    Type
REMARK                         _______ _______ _______ _____ _____    ______ ____
ROOT
ATOM      1  C   UNL     1       8.381   0.649  23.921  0.00  0.00    +0.120 A 
ATOM      2  N   UNL     1       9.649   0.725  23.453  0.00  0.00    -0.237 NA
ATOM      3  C   UNL     1      10.421  -0.395  23.385  0.00  0.00    +0.162 A 
ATOM      4  C   UNL     1       9.860  -1.602  23.753  0.00  0.00    +0.186 A 
ATOM      5  O   UNL     1      10.444  -2.824  23.723  0.00  0.00    -0.353 OA
ATOM      6  N   UNL     1       9.539  -3.782  24.154  0.00  0.00    -0.077 NA
ATOM      7  C   UNL     1       8.399  -3.125  24.438  0.00  0.00    +0.121 A 
ATOM      8  C   UNL     1       8.569  -1.722  24.221  0.00  0.00    +0.054 A 
ATOM      9  C   UNL     1       7.814  -0.547  24.360  0.00  0.00    +0.057 A 
ENDROOT
BRANCH   7  10
ATOM     10  C   UNL     1       7.204  -3.832  24.908  0.00  0.00    +0.006 A 
ATOM     11  C   UNL     1       6.393  -4.537  24.004  0.00  0.00    +0.014 A 
ATOM     12  C   UNL     1       5.302  -5.303  24.449  0.00  0.00    -0.045 A 
ATOM     13  C   UNL     1       4.998  -5.317  25.816  0.00  0.00    +0.023 A 
ATOM     14  C   UNL     1       5.771  -4.582  26.711  0.00  0.00    +0.042 A 
ATOM     15 CL   UNL     1       5.389  -4.609  28.389  0.00  0.00    -0.084 Cl
ATOM     16  C   UNL     1       6.862  -3.839  26.266  0.00  0.00    +0.030 A 
BRANCH  12  17
ATOM     17  C   UNL     1       4.467  -6.107  23.481  0.00  0.00    +0.037 C 
BRANCH  17  18
ATOM     18  C   UNL     1       2.961  -5.848  23.577  0.00  0.00    +0.032 C 
BRANCH  18  19
ATOM     19  C   UNL     1       2.116  -7.059  23.197  0.00  0.00    +0.156 C 
BRANCH  19  20
ATOM     20  O   UNL     1       2.687  -8.237  23.754  0.00  0.00    -0.395 OA
ATOM     21  H   UNL     1       2.605  -8.178  24.721  0.00  0.00    +0.209 HD
ENDBRANCH  19  20
ENDBRANCH  18  19
ENDBRANCH  17  18
ENDBRANCH  12  17
ENDBRANCH   7  10
BRANCH   1  22
ATOM     22  N   UNL     1       7.571   1.788  24.000  0.00  0.00    -0.322 N 
ATOM     23  H   UNL     1       7.913   2.365  24.766  0.00  0.00    +0.148 HD
BRANCH  22  24
ATOM     24  C   UNL     1       7.392   2.577  22.781  0.00  0.00    +0.099 C 
ATOM     25  C   UNL     1       5.904   2.668  22.411  0.00  0.00    +0.033 C 
BRANCH  24  26
ATOM     26  C   UNL     1       7.939   3.982  23.035  0.00  0.00    -0.028 A 
ATOM     27  C   UNL     1       9.019   4.171  23.910  0.00  0.00    +0.005 A 
ATOM     28  C   UNL     1       9.567   5.441  24.102  0.00  0.00    +0.000 A 
ATOM     29  C   UNL     1       9.042   6.542  23.427  0.00  0.00    +0.000 A 
ATOM     30  C   UNL     1       7.954   6.376  22.573  0.00  0.00    +0.000 A 
ATOM     31  C   UNL     1       7.402   5.108  22.383  0.00  0.00    +0.005 A 
ENDBRANCH  24  26
ENDBRANCH  22  24
ENDBRANCH   1  22
TORSDOF 8
ENDMDL
