MODEL 1
REMARK VINA RESULT:      -5.3      0.000      0.000
REMARK  Name = 
REMARK  9 active torsions:
REMARK  status: ('A' for Active; 'I' for Inactive)
REMARK    1  A    between atoms: N_1  and  C_2
REMARK    2  A    between atoms: C_2  and  C_3
REMARK    3  A    between atoms: C_6  and  C_7
REMARK    4  A    between atoms: C_7  and  C_8
REMARK    5  A    between atoms: C_8  and  C_9
REMARK    6  A    between atoms: C_9  and  O_10
REMARK    7  A    between atoms: C_12  and  C_13
REMARK    8  A    between atoms: C_13  and  C_14
REMARK    9  A    between atoms: C_14  and  O_15
REMARK                            x       y       z     vdW  Elec       q    Type
REMARK                         _______ _______ _______ _____ _____    ______ ____
ROOT
ATOM      1  C   UNL     1       6.641  -5.743  27.040  0.00  0.00    +0.034 A 
ATOM      2  C   UNL     1       6.238  -5.478  25.733  0.00  0.00    -0.012 A 
ATOM      3  C   UNL     1       7.422  -5.061  25.018  0.00  0.00    -0.026 A 
ATOM      4  C   UNL     1       8.477  -5.162  25.906  0.00  0.00    +0.086 A 
ATOM      5  N   UNL     1       8.004  -5.593  27.106  0.00  0.00    -0.363 N 
ATOM      6  H   UNL     1       8.540  -5.668  27.963  0.00  0.00    +0.165 HD
ENDROOT
BRANCH   1   7
ATOM      7  C   UNL     1       5.898  -6.042  28.297  0.00  0.00    +0.131 C 
BRANCH   7   8
ATOM      8  N   UNL     1       5.497  -7.445  28.268  0.00  0.00    -0.325 NA
ATOM      9  H   UNL     1       5.278  -7.749  29.217  0.00  0.00    +0.119 HD
ATOM     10  H   UNL     1       4.618  -7.523  27.757  0.00  0.00    +0.119 HD
ENDBRANCH   7   8
ENDBRANCH   1   7
BRANCH   2  11
ATOM     11  C   UNL     1       4.824  -5.482  25.202  0.00  0.00    +0.157 C 
BRANCH  11  12
ATOM     12  C   UNL     1       4.147  -6.824  25.008  0.00  0.00    +0.309 C 
ATOM     13  O   UNL     1       3.427  -7.320  25.870  0.00  0.00    -0.251 OA
BRANCH  12  14
ATOM     14  O   UNL     1       4.382  -7.476  23.851  0.00  0.00    -0.480 OA
ATOM     15  H   UNL     1       4.027  -7.021  23.065  0.00  0.00    +0.295 HD
ENDBRANCH  12  14
ENDBRANCH  11  12
ENDBRANCH   2  11
BRANCH   3  16
ATOM     16  C   UNL     1       7.501  -4.539  23.604  0.00  0.00    +0.048 C 
BRANCH  16  17
ATOM     17  C   UNL     1       7.243  -5.620  22.552  0.00  0.00    +0.125 C 
BRANCH  17  18
ATOM     18  C   UNL     1       6.100  -5.279  21.638  0.00  0.00    +0.305 C 
ATOM     19  O   UNL     1       5.852  -4.164  21.204  0.00  0.00    -0.251 OA
BRANCH  18  20
ATOM     20  O   UNL     1       5.349  -6.363  21.332  0.00  0.00    -0.481 OA
ATOM     21  H   UNL     1       5.539  -7.146  21.884  0.00  0.00    +0.295 HD
ENDBRANCH  18  20
ENDBRANCH  17  18
ENDBRANCH  16  17
ENDBRANCH   3  16
TORSDOF 9
ENDMDL
MODEL 2
REMARK VINA RESULT:      -4.9      3.854      5.353
REMARK  Name = 
REMARK  9 active torsions:
REMARK  status: ('A' for Active; 'I' for Inactive)
REMARK    1  A    between atoms: N_1  and  C_2
REMARK    2  A    between atoms: C_2  and  C_3
REMARK    3  A    between atoms: C_6  and  C_7
REMARK    4  A    between atoms: C_7  and  C_8
REMARK    5  A    between atoms: C_8  and  C_9
REMARK    6  A    between atoms: C_9  and  O_10
REMARK    7  A    between atoms: C_12  and  C_13
REMARK    8  A    between atoms: C_13  and  C_14
REMARK    9  A    between atoms: C_14  and  O_15
REMARK                            x       y       z     vdW  Elec       q    Type
REMARK                         _______ _______ _______ _____ _____    ______ ____
ROOT
ATOM      1  C   UNL     1       8.874  -3.959  24.280  0.00  0.00    +0.034 A 
ATOM      2  C   UNL     1       8.030  -3.278  23.405  0.00  0.00    -0.012 A 
ATOM      3  C   UNL     1       8.735  -2.080  23.009  0.00  0.00    -0.026 A 
ATOM      4  C   UNL     1       9.980  -2.137  23.607  0.00  0.00    +0.086 A 
ATOM      5  N   UNL     1      10.063  -3.276  24.346  0.00  0.00    -0.363 N 
ATOM      6  H   UNL     1      10.826  -3.530  24.963  0.00  0.00    +0.165 HD
ENDROOT
BRANCH   1   7
ATOM      7  C   UNL     1       8.689  -5.149  25.159  0.00  0.00    +0.131 C 
BRANCH   7   8
ATOM      8  N   UNL     1       9.988  -5.786  25.345  0.00  0.00    -0.325 NA
ATOM      9  H   UNL     1      10.474  -5.821  24.448  0.00  0.00    +0.119 HD
ATOM     10  H   UNL     1      10.565  -5.186  25.934  0.00  0.00    +0.119 HD
ENDBRANCH   7   8
ENDBRANCH   1   7
BRANCH   2  11
ATOM     11  C   UNL     1       6.606  -3.638  23.054  0.00  0.00    +0.157 C 
BRANCH  11  12
ATOM     12  C   UNL     1       6.365  -4.356  21.741  0.00  0.00    +0.309 C 
ATOM     13  O   UNL     1       6.862  -5.451  21.497  0.00  0.00    -0.251 OA
BRANCH  12  14
ATOM     14  O   UNL     1       5.591  -3.734  20.827  0.00  0.00    -0.480 OA
ATOM     15  H   UNL     1       5.114  -4.345  20.236  0.00  0.00    +0.295 HD
ENDBRANCH  12  14
ENDBRANCH  11  12
ENDBRANCH   2  11
BRANCH   3  16
ATOM     16  C   UNL     1       8.205  -0.941  22.174  0.00  0.00    +0.048 C 
BRANCH  16  17
ATOM     17  C   UNL     1       9.314  -0.109  21.525  0.00  0.00    +0.125 C 
BRANCH  17  18
ATOM     18  C   UNL     1       9.001   1.361  21.507  0.00  0.00    +0.305 C 
ATOM     19  O   UNL     1       7.880   1.843  21.445  0.00  0.00    -0.251 OA
BRANCH  18  20
ATOM     20  O   UNL     1      10.119   2.122  21.569  0.00  0.00    -0.481 OA
ATOM     21  H   UNL     1      10.933   1.618  21.762  0.00  0.00    +0.295 HD
ENDBRANCH  18  20
ENDBRANCH  17  18
ENDBRANCH  16  17
ENDBRANCH   3  16
TORSDOF 9
ENDMDL
MODEL 3
REMARK VINA RESULT:      -4.8      3.234      5.105
REMARK  Name = 
REMARK  9 active torsions:
REMARK  status: ('A' for Active; 'I' for Inactive)
REMARK    1  A    between atoms: N_1  and  C_2
REMARK    2  A    between atoms: C_2  and  C_3
REMARK    3  A    between atoms: C_6  and  C_7
REMARK    4  A    between atoms: C_7  and  C_8
REMARK    5  A    between atoms: C_8  and  C_9
REMARK    6  A    between atoms: C_9  and  O_10
REMARK    7  A    between atoms: C_12  and  C_13
REMARK    8  A    between atoms: C_13  and  C_14
REMARK    9  A    between atoms: C_14  and  O_15
REMARK                            x       y       z     vdW  Elec       q    Type
REMARK                         _______ _______ _______ _____ _____    ______ ____
ROOT
ATOM      1  C   UNL     1       8.678  -3.129  23.342  0.00  0.00    +0.034 A 
ATOM      2  C   UNL     1       8.209  -4.355  23.810  0.00  0.00    -0.012 A 
ATOM      3  C   UNL     1       6.953  -4.595  23.137  0.00  0.00    -0.026 A 
ATOM      4  C   UNL     1       6.768  -3.544  22.259  0.00  0.00    +0.086 A 
ATOM      5  N   UNL     1       7.816  -2.685  22.371  0.00  0.00    -0.363 N 
ATOM      6  H   UNL     1       7.897  -1.784  21.913  0.00  0.00    +0.165 HD
ENDROOT
BRANCH   1   7
ATOM      7  C   UNL     1       9.807  -2.245  23.749  0.00  0.00    +0.131 C 
BRANCH   7   8
ATOM      8  N   UNL     1      10.511  -1.820  22.544  0.00  0.00    -0.325 NA
ATOM      9  H   UNL     1       9.829  -1.516  21.848  0.00  0.00    +0.119 HD
ATOM     10  H   UNL     1      11.056  -0.986  22.760  0.00  0.00    +0.119 HD
ENDBRANCH   7   8
ENDBRANCH   1   7
BRANCH   2  11
ATOM     11  C   UNL     1       8.814  -5.198  24.909  0.00  0.00    +0.157 C 
BRANCH  11  12
ATOM     12  C   UNL     1       8.379  -4.915  26.333  0.00  0.00    +0.309 C 
ATOM     13  O   UNL     1       8.328  -3.775  26.783  0.00  0.00    -0.251 OA
BRANCH  12  14
ATOM     14  O   UNL     1       8.065  -5.974  27.107  0.00  0.00    -0.480 OA
ATOM     15  H   UNL     1       7.314  -5.812  27.707  0.00  0.00    +0.295 HD
ENDBRANCH  12  14
ENDBRANCH  11  12
ENDBRANCH   2  11
BRANCH   3  16
ATOM     16  C   UNL     1       5.982  -5.722  23.388  0.00  0.00    +0.048 C 
BRANCH  16  17
ATOM     17  C   UNL     1       5.096  -5.486  24.614  0.00  0.00    +0.125 C 
BRANCH  17  18
ATOM     18  C   UNL     1       4.741  -6.760  25.326  0.00  0.00    +0.305 C 
ATOM     19  O   UNL     1       3.991  -7.624  24.896  0.00  0.00    -0.251 OA
BRANCH  18  20
ATOM     20  O   UNL     1       5.354  -6.861  26.529  0.00  0.00    -0.481 OA
ATOM     21  H   UNL     1       6.324  -6.956  26.473  0.00  0.00    +0.295 HD
ENDBRANCH  18  20
ENDBRANCH  17  18
ENDBRANCH  16  17
ENDBRANCH   3  16
TORSDOF 9
ENDMDL
MODEL 4
REMARK VINA RESULT:      -4.8      3.332      4.142
REMARK  Name = 
REMARK  9 active torsions:
REMARK  status: ('A' for Active; 'I' for Inactive)
REMARK    1  A    between atoms: N_1  and  C_2
REMARK    2  A    between atoms: C_2  and  C_3
REMARK    3  A    between atoms: C_6  and  C_7
REMARK    4  A    between atoms: C_7  and  C_8
REMARK    5  A    between atoms: C_8  and  C_9
REMARK    6  A    between atoms: C_9  and  O_10
REMARK    7  A    between atoms: C_12  and  C_13
REMARK    8  A    between atoms: C_13  and  C_14
REMARK    9  A    between atoms: C_14  and  O_15
REMARK                            x       y       z     vdW  Elec       q    Type
REMARK                         _______ _______ _______ _____ _____    ______ ____
ROOT
ATOM      1  C   UNL     1       5.644  -5.701  24.279  0.00  0.00    +0.034 A 
ATOM      2  C   UNL     1       6.494  -4.715  24.775  0.00  0.00    -0.012 A 
ATOM      3  C   UNL     1       7.289  -4.262  23.656  0.00  0.00    -0.026 A 
ATOM      4  C   UNL     1       6.832  -4.943  22.544  0.00  0.00    +0.086 A 
ATOM      5  N   UNL     1       5.831  -5.784  22.922  0.00  0.00    -0.363 N 
ATOM      6  H   UNL     1       5.377  -6.470  22.330  0.00  0.00    +0.165 HD
ENDROOT
BRANCH   1   7
ATOM      7  C   UNL     1       4.712  -6.667  24.928  0.00  0.00    +0.131 C 
BRANCH   7   8
ATOM      8  N   UNL     1       4.069  -7.454  23.882  0.00  0.00    -0.325 NA
ATOM      9  H   UNL     1       4.205  -6.990  22.983  0.00  0.00    +0.119 HD
ATOM     10  H   UNL     1       4.558  -8.344  23.795  0.00  0.00    +0.119 HD
ENDBRANCH   7   8
ENDBRANCH   1   7
BRANCH   2  11
ATOM     11  C   UNL     1       6.661  -4.303  26.219  0.00  0.00    +0.157 C 
BRANCH  11  12
ATOM     12  C   UNL     1       7.330  -5.286  27.159  0.00  0.00    +0.309 C 
ATOM     13  O   UNL     1       6.926  -5.472  28.302  0.00  0.00    -0.251 OA
BRANCH  12  14
ATOM     14  O   UNL     1       8.414  -5.944  26.698  0.00  0.00    -0.480 OA
ATOM     15  H   UNL     1       8.557  -6.810  27.124  0.00  0.00    +0.295 HD
ENDBRANCH  12  14
ENDBRANCH  11  12
ENDBRANCH   2  11
BRANCH   3  16
ATOM     16  C   UNL     1       8.447  -3.295  23.689  0.00  0.00    +0.048 C 
BRANCH  16  17
ATOM     17  C   UNL     1       8.323  -2.178  22.650  0.00  0.00    +0.125 C 
BRANCH  17  18
ATOM     18  C   UNL     1       9.657  -1.695  22.156  0.00  0.00    +0.305 C 
ATOM     19  O   UNL     1      10.741  -2.017  22.620  0.00  0.00    -0.251 OA
BRANCH  18  20
ATOM     20  O   UNL     1       9.537  -0.843  21.110  0.00  0.00    -0.481 OA
ATOM     21  H   UNL     1       9.007  -0.047  21.306  0.00  0.00    +0.295 HD
ENDBRANCH  18  20
ENDBRANCH  17  18
ENDBRANCH  16  17
ENDBRANCH   3  16
TORSDOF 9
ENDMDL
MODEL 5
REMARK VINA RESULT:      -4.8      4.695      6.617
REMARK  Name = 
REMARK  9 active torsions:
REMARK  status: ('A' for Active; 'I' for Inactive)
REMARK    1  A    between atoms: N_1  and  C_2
REMARK    2  A    between atoms: C_2  and  C_3
REMARK    3  A    between atoms: C_6  and  C_7
REMARK    4  A    between atoms: C_7  and  C_8
REMARK    5  A    between atoms: C_8  and  C_9
REMARK    6  A    between atoms: C_9  and  O_10
REMARK    7  A    between atoms: C_12  and  C_13
REMARK    8  A    between atoms: C_13  and  C_14
REMARK    9  A    between atoms: C_14  and  O_15
REMARK                            x       y       z     vdW  Elec       q    Type
REMARK                         _______ _______ _______ _____ _____    ______ ____
ROOT
ATOM      1  C   UNL     1       8.883   0.239  25.061  0.00  0.00    +0.034 A 
ATOM      2  C   UNL     1       8.432  -0.993  24.588  0.00  0.00    -0.012 A 
ATOM      3  C   UNL     1       8.062  -1.765  25.751  0.00  0.00    -0.026 A 
ATOM      4  C   UNL     1       8.242  -0.942  26.847  0.00  0.00    +0.086 A 
ATOM      5  N   UNL     1       8.711   0.263  26.422  0.00  0.00    -0.363 N 
ATOM      6  H   UNL     1       9.018   1.024  27.017  0.00  0.00    +0.165 HD
ENDROOT
BRANCH   1   7
ATOM      7  C   UNL     1       9.552   1.400  24.408  0.00  0.00    +0.131 C 
BRANCH   7   8
ATOM      8  N   UNL     1      10.982   1.119  24.332  0.00  0.00    -0.325 NA
ATOM      9  H   UNL     1      11.332   0.914  25.269  0.00  0.00    +0.119 HD
ATOM     10  H   UNL     1      11.119   0.256  23.806  0.00  0.00    +0.119 HD
ENDBRANCH   7   8
ENDBRANCH   1   7
BRANCH   2  11
ATOM     11  C   UNL     1       8.463  -1.482  23.159  0.00  0.00    +0.157 C 
BRANCH  11  12
ATOM     12  C   UNL     1       9.803  -1.894  22.584  0.00  0.00    +0.309 C 
ATOM     13  O   UNL     1      10.624  -2.530  23.240  0.00  0.00    -0.251 OA
BRANCH  12  14
ATOM     14  O   UNL     1      10.078  -1.518  21.319  0.00  0.00    -0.480 OA
ATOM     15  H   UNL     1       9.444  -0.872  20.955  0.00  0.00    +0.295 HD
ENDBRANCH  12  14
ENDBRANCH  11  12
ENDBRANCH   2  11
BRANCH   3  16
ATOM     16  C   UNL     1       7.636  -3.212  25.791  0.00  0.00    +0.048 C 
BRANCH  16  17
ATOM     17  C   UNL     1       8.741  -4.146  26.293  0.00  0.00    +0.125 C 
BRANCH  17  18
ATOM     18  C   UNL     1       9.244  -5.075  25.224  0.00  0.00    +0.305 C 
ATOM     19  O   UNL     1       8.752  -5.205  24.113  0.00  0.00    -0.251 OA
BRANCH  18  20
ATOM     20  O   UNL     1      10.331  -5.774  25.626  0.00  0.00    -0.481 OA
ATOM     21  H   UNL     1      11.002  -5.235  26.087  0.00  0.00    +0.295 HD
ENDBRANCH  18  20
ENDBRANCH  17  18
ENDBRANCH  16  17
ENDBRANCH   3  16
TORSDOF 9
ENDMDL
MODEL 6
REMARK VINA RESULT:      -4.8      6.727      8.099
REMARK  Name = 
REMARK  9 active torsions:
REMARK  status: ('A' for Active; 'I' for Inactive)
REMARK    1  A    between atoms: N_1  and  C_2
REMARK    2  A    between atoms: C_2  and  C_3
REMARK    3  A    between atoms: C_6  and  C_7
REMARK    4  A    between atoms: C_7  and  C_8
REMARK    5  A    between atoms: C_8  and  C_9
REMARK    6  A    between atoms: C_9  and  O_10
REMARK    7  A    between atoms: C_12  and  C_13
REMARK    8  A    between atoms: C_13  and  C_14
REMARK    9  A    between atoms: C_14  and  O_15
REMARK                            x       y       z     vdW  Elec       q    Type
REMARK                         _______ _______ _______ _____ _____    ______ ____
ROOT
ATOM      1  C   UNL     1       8.071   2.567  22.506  0.00  0.00    +0.034 A 
ATOM      2  C   UNL     1       8.308   1.716  23.584  0.00  0.00    -0.012 A 
ATOM      3  C   UNL     1       9.607   1.126  23.359  0.00  0.00    -0.026 A 
ATOM      4  C   UNL     1      10.108   1.699  22.205  0.00  0.00    +0.086 A 
ATOM      5  N   UNL     1       9.192   2.577  21.715  0.00  0.00    -0.363 N 
ATOM      6  H   UNL     1       9.255   3.070  20.831  0.00  0.00    +0.165 HD
ENDROOT
BRANCH   1   7
ATOM      7  C   UNL     1       6.873   3.330  22.052  0.00  0.00    +0.131 C 
BRANCH   7   8
ATOM      8  N   UNL     1       7.272   4.717  21.833  0.00  0.00    -0.325 NA
ATOM      9  H   UNL     1       6.965   5.282  22.627  0.00  0.00    +0.119 HD
ATOM     10  H   UNL     1       8.289   4.771  21.849  0.00  0.00    +0.119 HD
ENDBRANCH   7   8
ENDBRANCH   1   7
BRANCH   2  11
ATOM     11  C   UNL     1       7.342   1.364  24.691  0.00  0.00    +0.157 C 
BRANCH  11  12
ATOM     12  C   UNL     1       6.175   0.461  24.347  0.00  0.00    +0.309 C 
ATOM     13  O   UNL     1       5.170   0.401  25.049  0.00  0.00    -0.251 OA
BRANCH  12  14
ATOM     14  O   UNL     1       6.286  -0.300  23.239  0.00  0.00    -0.480 OA
ATOM     15  H   UNL     1       6.672   0.170  22.477  0.00  0.00    +0.295 HD
ENDBRANCH  12  14
ENDBRANCH  11  12
ENDBRANCH   2  11
BRANCH   3  16
ATOM     16  C   UNL     1      10.271   0.038  24.167  0.00  0.00    +0.048 C 
BRANCH  16  17
ATOM     17  C   UNL     1       9.597  -1.326  23.999  0.00  0.00    +0.125 C 
BRANCH  17  18
ATOM     18  C   UNL     1       9.441  -1.722  22.558  0.00  0.00    +0.305 C 
ATOM     19  O   UNL     1       8.379  -1.958  22.002  0.00  0.00    -0.251 OA
BRANCH  18  20
ATOM     20  O   UNL     1      10.631  -1.793  21.916  0.00  0.00    -0.481 OA
ATOM     21  H   UNL     1      11.357  -1.329  22.375  0.00  0.00    +0.295 HD
ENDBRANCH  18  20
ENDBRANCH  17  18
ENDBRANCH  16  17
ENDBRANCH   3  16
TORSDOF 9
ENDMDL
MODEL 7
REMARK VINA RESULT:      -4.8      3.056      3.819
REMARK  Name = 
REMARK  9 active torsions:
REMARK  status: ('A' for Active; 'I' for Inactive)
REMARK    1  A    between atoms: N_1  and  C_2
REMARK    2  A    between atoms: C_2  and  C_3
REMARK    3  A    between atoms: C_6  and  C_7
REMARK    4  A    between atoms: C_7  and  C_8
REMARK    5  A    between atoms: C_8  and  C_9
REMARK    6  A    between atoms: C_9  and  O_10
REMARK    7  A    between atoms: C_12  and  C_13
REMARK    8  A    between atoms: C_13  and  C_14
REMARK    9  A    between atoms: C_14  and  O_15
REMARK                            x       y       z     vdW  Elec       q    Type
REMARK                         _______ _______ _______ _____ _____    ______ ____
ROOT
ATOM      1  C   UNL     1       4.964  -5.920  25.390  0.00  0.00    +0.034 A 
ATOM      2  C   UNL     1       6.079  -5.116  25.162  0.00  0.00    -0.012 A 
ATOM      3  C   UNL     1       6.444  -5.310  23.777  0.00  0.00    -0.026 A 
ATOM      4  C   UNL     1       5.499  -6.159  23.234  0.00  0.00    +0.086 A 
ATOM      5  N   UNL     1       4.604  -6.500  24.200  0.00  0.00    -0.363 N 
ATOM      6  H   UNL     1       3.859  -7.181  24.106  0.00  0.00    +0.165 HD
ENDROOT
BRANCH   1   7
ATOM      7  C   UNL     1       4.216  -6.302  26.622  0.00  0.00    +0.131 C 
BRANCH   7   8
ATOM      8  N   UNL     1       5.051  -7.214  27.398  0.00  0.00    -0.325 NA
ATOM      9  H   UNL     1       5.108  -8.110  26.912  0.00  0.00    +0.119 HD
ATOM     10  H   UNL     1       6.005  -6.857  27.406  0.00  0.00    +0.119 HD
ENDBRANCH   7   8
ENDBRANCH   1   7
BRANCH   2  11
ATOM     11  C   UNL     1       6.845  -4.315  26.188  0.00  0.00    +0.157 C 
BRANCH  11  12
ATOM     12  C   UNL     1       8.032  -4.979  26.857  0.00  0.00    +0.309 C 
ATOM     13  O   UNL     1       9.184  -4.601  26.663  0.00  0.00    -0.251 OA
BRANCH  12  14
ATOM     14  O   UNL     1       7.781  -6.028  27.666  0.00  0.00    -0.480 OA
ATOM     15  H   UNL     1       8.061  -6.886  27.296  0.00  0.00    +0.295 HD
ENDBRANCH  12  14
ENDBRANCH  11  12
ENDBRANCH   2  11
BRANCH   3  16
ATOM     16  C   UNL     1       7.659  -4.766  23.067  0.00  0.00    +0.048 C 
BRANCH  16  17
ATOM     17  C   UNL     1       7.644  -3.241  22.938  0.00  0.00    +0.125 C 
BRANCH  17  18
ATOM     18  C   UNL     1       8.914  -2.605  23.427  0.00  0.00    +0.305 C 
ATOM     19  O   UNL     1       9.222  -1.433  23.273  0.00  0.00    -0.251 OA
BRANCH  18  20
ATOM     20  O   UNL     1       9.710  -3.487  24.077  0.00  0.00    -0.481 OA
ATOM     21  H   UNL     1       9.751  -4.368  23.658  0.00  0.00    +0.295 HD
ENDBRANCH  18  20
ENDBRANCH  17  18
ENDBRANCH  16  17
ENDBRANCH   3  16
TORSDOF 9
ENDMDL
MODEL 8
REMARK VINA RESULT:      -4.7      2.102      2.779
REMARK  Name = 
REMARK  9 active torsions:
REMARK  status: ('A' for Active; 'I' for Inactive)
REMARK    1  A    between atoms: N_1  and  C_2
REMARK    2  A    between atoms: C_2  and  C_3
REMARK    3  A    between atoms: C_6  and  C_7
REMARK    4  A    between atoms: C_7  and  C_8
REMARK    5  A    between atoms: C_8  and  C_9
REMARK    6  A    between atoms: C_9  and  O_10
REMARK    7  A    between atoms: C_12  and  C_13
REMARK    8  A    between atoms: C_13  and  C_14
REMARK    9  A    between atoms: C_14  and  O_15
REMARK                            x       y       z     vdW  Elec       q    Type
REMARK                         _______ _______ _______ _____ _____    ______ ____
ROOT
ATOM      1  C   UNL     1       6.626  -5.618  26.594  0.00  0.00    +0.034 A 
ATOM      2  C   UNL     1       6.506  -5.128  25.295  0.00  0.00    -0.012 A 
ATOM      3  C   UNL     1       7.833  -4.730  24.885  0.00  0.00    -0.026 A 
ATOM      4  C   UNL     1       8.684  -5.062  25.923  0.00  0.00    +0.086 A 
ATOM      5  N   UNL     1       7.956  -5.615  26.930  0.00  0.00    -0.363 N 
ATOM      6  H   UNL     1       8.307  -5.867  27.848  0.00  0.00    +0.165 HD
ENDROOT
BRANCH   1   7
ATOM      7  C   UNL     1       5.631  -6.022  27.628  0.00  0.00    +0.131 C 
BRANCH   7   8
ATOM      8  N   UNL     1       4.981  -7.250  27.182  0.00  0.00    -0.325 NA
ATOM      9  H   UNL     1       4.005  -7.049  26.960  0.00  0.00    +0.119 HD
ATOM     10  H   UNL     1       5.397  -7.538  26.297  0.00  0.00    +0.119 HD
ENDBRANCH   7   8
ENDBRANCH   1   7
BRANCH   2  11
ATOM     11  C   UNL     1       5.226  -4.913  24.521  0.00  0.00    +0.157 C 
BRANCH  11  12
ATOM     12  C   UNL     1       4.807  -5.991  23.542  0.00  0.00    +0.309 C 
ATOM     13  O   UNL     1       4.529  -5.737  22.373  0.00  0.00    -0.251 OA
BRANCH  12  14
ATOM     14  O   UNL     1       4.727  -7.255  24.007  0.00  0.00    -0.480 OA
ATOM     15  H   UNL     1       4.367  -7.318  24.911  0.00  0.00    +0.295 HD
ENDBRANCH  12  14
ENDBRANCH  11  12
ENDBRANCH   2  11
BRANCH   3  16
ATOM     16  C   UNL     1       8.223  -4.017  23.614  0.00  0.00    +0.048 C 
BRANCH  16  17
ATOM     17  C   UNL     1       9.271  -2.924  23.839  0.00  0.00    +0.125 C 
BRANCH  17  18
ATOM     18  C   UNL     1       9.245  -1.868  22.771  0.00  0.00    +0.305 C 
ATOM     19  O   UNL     1       8.320  -1.097  22.562  0.00  0.00    -0.251 OA
BRANCH  18  20
ATOM     20  O   UNL     1      10.384  -1.852  22.039  0.00  0.00    -0.481 OA
ATOM     21  H   UNL     1      10.990  -1.120  22.264  0.00  0.00    +0.295 HD
ENDBRANCH  18  20
ENDBRANCH  17  18
ENDBRANCH  16  17
ENDBRANCH   3  16
TORSDOF 9
ENDMDL
MODEL 9
REMARK VINA RESULT:      -4.7      5.196      6.844
REMARK  Name = 
REMARK  9 active torsions:
REMARK  status: ('A' for Active; 'I' for Inactive)
REMARK    1  A    between atoms: N_1  and  C_2
REMARK    2  A    between atoms: C_2  and  C_3
REMARK    3  A    between atoms: C_6  and  C_7
REMARK    4  A    between atoms: C_7  and  C_8
REMARK    5  A    between atoms: C_8  and  C_9
REMARK    6  A    between atoms: C_9  and  O_10
REMARK    7  A    between atoms: C_12  and  C_13
REMARK    8  A    between atoms: C_13  and  C_14
REMARK    9  A    between atoms: C_14  and  O_15
REMARK                            x       y       z     vdW  Elec       q    Type
REMARK                         _______ _______ _______ _____ _____    ______ ____
ROOT
ATOM      1  C   UNL     1       8.437  -2.416  25.557  0.00  0.00    +0.034 A 
ATOM      2  C   UNL     1       9.350  -1.715  24.773  0.00  0.00    -0.012 A 
ATOM      3  C   UNL     1       9.498  -0.414  25.385  0.00  0.00    -0.026 A 
ATOM      4  C   UNL     1       8.726  -0.426  26.532  0.00  0.00    +0.086 A 
ATOM      5  N   UNL     1       8.114  -1.636  26.639  0.00  0.00    -0.363 N 
ATOM      6  H   UNL     1       7.419  -1.891  27.332  0.00  0.00    +0.165 HD
ENDROOT
BRANCH   1   7
ATOM      7  C   UNL     1       7.735  -3.721  25.387  0.00  0.00    +0.131 C 
BRANCH   7   8
ATOM      8  N   UNL     1       8.536  -4.757  26.030  0.00  0.00    -0.325 NA
ATOM      9  H   UNL     1       9.485  -4.725  25.657  0.00  0.00    +0.119 HD
ATOM     10  H   UNL     1       8.634  -4.529  27.018  0.00  0.00    +0.119 HD
ENDBRANCH   7   8
ENDBRANCH   1   7
BRANCH   2  11
ATOM     11  C   UNL     1       9.954  -2.163  23.463  0.00  0.00    +0.157 C 
BRANCH  11  12
ATOM     12  C   UNL     1       9.259  -1.739  22.185  0.00  0.00    +0.309 C 
ATOM     13  O   UNL     1       8.138  -2.142  21.889  0.00  0.00    -0.251 OA
BRANCH  12  14
ATOM     14  O   UNL     1       9.929  -0.907  21.361  0.00  0.00    -0.480 OA
ATOM     15  H   UNL     1      10.861  -1.160  21.222  0.00  0.00    +0.295 HD
ENDBRANCH  12  14
ENDBRANCH  11  12
ENDBRANCH   2  11
BRANCH   3  16
ATOM     16  C   UNL     1      10.273   0.765  24.852  0.00  0.00    +0.048 C 
BRANCH  16  17
ATOM     17  C   UNL     1       9.467   1.612  23.863  0.00  0.00    +0.125 C 
BRANCH  17  18
ATOM     18  C   UNL     1      10.341   2.445  22.968  0.00  0.00    +0.305 C 
ATOM     19  O   UNL     1      11.107   3.319  23.344  0.00  0.00    -0.251 OA
BRANCH  18  20
ATOM     20  O   UNL     1      10.191   2.120  21.662  0.00  0.00    -0.481 OA
ATOM     21  H   UNL     1       9.268   2.156  21.347  0.00  0.00    +0.295 HD
ENDBRANCH  18  20
ENDBRANCH  17  18
ENDBRANCH  16  17
ENDBRANCH   3  16
TORSDOF 9
ENDMDL
