MODEL 1
REMARK VINA RESULT:      -7.9      0.000      0.000
REMARK  Name = 
REMARK  5 active torsions:
REMARK  status: ('A' for Active; 'I' for Inactive)
REMARK    1  A    between atoms: C_4  and  C_8
REMARK    2  A    between atoms: C_12  and  C_13
REMARK    3  A    between atoms: C_16  and  C_18
REMARK    4  A    between atoms: N_20  and  C_21
REMARK    5  A    between atoms: C_21  and  C_22
REMARK                            x       y       z     vdW  Elec       q    Type
REMARK                         _______ _______ _______ _____ _____    ______ ____
ROOT
ATOM      1  C   UNL     1       7.591  -5.071  26.429  0.00  0.00    +0.021 A 
ATOM      2  C   UNL     1       7.269  -3.964  25.600  0.00  0.00    +0.042 A 
ATOM      3  C   UNL     1       8.364  -3.711  24.785  0.00  0.00    +0.102 A 
ATOM      4  N   UNL     1       9.406  -4.448  25.310  0.00  0.00    -0.356 N 
ATOM      5  H   UNL     1      10.352  -4.422  24.947  0.00  0.00    +0.165 HD
ATOM      6  C   UNL     1       8.946  -5.285  26.290  0.00  0.00    +0.093 A 
ENDROOT
BRANCH   1   8
ATOM      7  C   UNL     1       5.306  -6.219  26.898  0.00  0.00    +0.027 A 
ATOM      8  C   UNL     1       6.653  -5.852  27.244  0.00  0.00    +0.102 A 
ATOM      9  N   UNL     1       7.022  -6.371  28.423  0.00  0.00    -0.173 NA
ATOM     10  N   UNL     1       5.930  -7.015  28.850  0.00  0.00    -0.284 N 
ATOM     11  H   UNL     1       5.974  -7.481  29.752  0.00  0.00    +0.188 HD
ATOM     12  C   UNL     1       4.885  -6.962  27.981  0.00  0.00    +0.114 A 
BRANCH   7  18
ATOM     13 CL   UNL     1       1.225  -3.731  24.882  0.00  0.00    -0.084 Cl
ATOM     14  C   UNL     1       2.612  -4.737  24.716  0.00  0.00    +0.042 A 
ATOM     15  C   UNL     1       3.012  -5.153  23.448  0.00  0.00    +0.020 A 
ATOM     16  C   UNL     1       4.094  -6.016  23.321  0.00  0.00    +0.002 A 
ATOM     17  C   UNL     1       4.785  -6.437  24.462  0.00  0.00    +0.009 A 
ATOM     18  C   UNL     1       4.463  -5.937  25.734  0.00  0.00    -0.013 A 
ATOM     19  C   UNL     1       3.333  -5.115  25.851  0.00  0.00    +0.028 A 
ENDBRANCH   7  18
ENDBRANCH   1   8
BRANCH   3  20
ATOM     20  C   UNL     1       8.520  -2.887  23.605  0.00  0.00    +0.261 C 
ATOM     21  N   UNL     1       9.796  -2.417  23.398  0.00  0.00    -0.306 N 
ATOM     22  H   UNL     1      10.503  -2.587  24.094  0.00  0.00    +0.149 HD
ATOM     23  O   UNL     1       7.575  -2.599  22.878  0.00  0.00    -0.269 OA
BRANCH  21  24
ATOM     24  C   UNL     1      10.136  -1.558  22.289  0.00  0.00    +0.140 C 
BRANCH  24  25
ATOM     25  C   UNL     1      10.163  -0.100  22.679  0.00  0.00    -0.030 A 
ATOM     26  C   UNL     1      10.553   0.277  23.973  0.00  0.00    +0.005 A 
ATOM     27  C   UNL     1      10.525   1.619  24.362  0.00  0.00    +0.000 A 
ATOM     28  C   UNL     1      10.124   2.600  23.458  0.00  0.00    +0.000 A 
ATOM     29  C   UNL     1       9.760   2.241  22.160  0.00  0.00    +0.000 A 
ATOM     30  C   UNL     1       9.783   0.899  21.771  0.00  0.00    +0.005 A 
ENDBRANCH  24  25
ENDBRANCH  21  24
ENDBRANCH   3  20
TORSDOF 5
ENDMDL
MODEL 2
REMARK VINA RESULT:      -7.6      4.123      9.710
REMARK  Name = 
REMARK  5 active torsions:
REMARK  status: ('A' for Active; 'I' for Inactive)
REMARK    1  A    between atoms: C_4  and  C_8
REMARK    2  A    between atoms: C_12  and  C_13
REMARK    3  A    between atoms: C_16  and  C_18
REMARK    4  A    between atoms: N_20  and  C_21
REMARK    5  A    between atoms: C_21  and  C_22
REMARK                            x       y       z     vdW  Elec       q    Type
REMARK                         _______ _______ _______ _____ _____    ______ ____
ROOT
ATOM      1  C   UNL     1       8.622   1.582  23.557  0.00  0.00    +0.021 A 
ATOM      2  C   UNL     1       8.988   0.404  22.852  0.00  0.00    +0.042 A 
ATOM      3  C   UNL     1       9.406  -0.536  23.783  0.00  0.00    +0.102 A 
ATOM      4  N   UNL     1       9.564   0.150  24.970  0.00  0.00    -0.356 N 
ATOM      5  H   UNL     1       9.912  -0.274  25.823  0.00  0.00    +0.165 HD
ATOM      6  C   UNL     1       9.077   1.423  24.849  0.00  0.00    +0.093 A 
ENDROOT
BRANCH   1   8
ATOM      7  C   UNL     1       8.245   4.111  23.090  0.00  0.00    +0.027 A 
ATOM      8  C   UNL     1       7.874   2.724  23.018  0.00  0.00    +0.102 A 
ATOM      9  N   UNL     1       6.746   2.546  22.316  0.00  0.00    -0.173 NA
ATOM     10  N   UNL     1       6.371   3.787  21.985  0.00  0.00    -0.284 N 
ATOM     11  H   UNL     1       5.513   3.900  21.452  0.00  0.00    +0.188 HD
ATOM     12  C   UNL     1       7.228   4.753  22.414  0.00  0.00    +0.114 A 
BRANCH   7  18
ATOM     13 CL   UNL     1      13.339   5.084  23.163  0.00  0.00    -0.084 Cl
ATOM     14  C   UNL     1      11.741   5.366  23.736  0.00  0.00    +0.042 A 
ATOM     15  C   UNL     1      11.514   6.370  24.674  0.00  0.00    +0.020 A 
ATOM     16  C   UNL     1      10.233   6.554  25.183  0.00  0.00    +0.002 A 
ATOM     17  C   UNL     1       9.183   5.750  24.730  0.00  0.00    +0.009 A 
ATOM     18  C   UNL     1       9.376   4.811  23.703  0.00  0.00    -0.013 A 
ATOM     19  C   UNL     1      10.683   4.597  23.245  0.00  0.00    +0.028 A 
ENDBRANCH   7  18
ENDBRANCH   1   8
BRANCH   3  20
ATOM     20  C   UNL     1       9.653  -1.959  23.677  0.00  0.00    +0.261 C 
ATOM     21  N   UNL     1       8.882  -2.740  24.504  0.00  0.00    -0.306 N 
ATOM     22  H   UNL     1       8.277  -2.297  25.177  0.00  0.00    +0.149 HD
ATOM     23  O   UNL     1      10.516  -2.418  22.936  0.00  0.00    -0.269 OA
BRANCH  21  24
ATOM     24  C   UNL     1       9.009  -4.176  24.556  0.00  0.00    +0.140 C 
BRANCH  24  25
ATOM     25  C   UNL     1       7.741  -4.880  24.135  0.00  0.00    -0.030 A 
ATOM     26  C   UNL     1       7.590  -5.330  22.815  0.00  0.00    +0.005 A 
ATOM     27  C   UNL     1       6.398  -5.930  22.400  0.00  0.00    +0.000 A 
ATOM     28  C   UNL     1       5.351  -6.102  23.303  0.00  0.00    +0.000 A 
ATOM     29  C   UNL     1       5.499  -5.684  24.625  0.00  0.00    +0.000 A 
ATOM     30  C   UNL     1       6.688  -5.079  25.041  0.00  0.00    +0.005 A 
ENDBRANCH  24  25
ENDBRANCH  21  24
ENDBRANCH   3  20
TORSDOF 5
ENDMDL
MODEL 3
REMARK VINA RESULT:      -7.6      1.651      2.019
REMARK  Name = 
REMARK  5 active torsions:
REMARK  status: ('A' for Active; 'I' for Inactive)
REMARK    1  A    between atoms: C_4  and  C_8
REMARK    2  A    between atoms: C_12  and  C_13
REMARK    3  A    between atoms: C_16  and  C_18
REMARK    4  A    between atoms: N_20  and  C_21
REMARK    5  A    between atoms: C_21  and  C_22
REMARK                            x       y       z     vdW  Elec       q    Type
REMARK                         _______ _______ _______ _____ _____    ______ ____
ROOT
ATOM      1  C   UNL     1       7.675  -4.848  25.292  0.00  0.00    +0.021 A 
ATOM      2  C   UNL     1       8.808  -3.997  25.394  0.00  0.00    +0.042 A 
ATOM      3  C   UNL     1       9.006  -3.404  24.155  0.00  0.00    +0.102 A 
ATOM      4  N   UNL     1       8.206  -4.097  23.270  0.00  0.00    -0.356 N 
ATOM      5  H   UNL     1       8.182  -3.916  22.273  0.00  0.00    +0.165 HD
ATOM      6  C   UNL     1       7.386  -4.958  23.948  0.00  0.00    +0.093 A 
ENDROOT
BRANCH   1   8
ATOM      7  C   UNL     1       5.565  -5.879  26.407  0.00  0.00    +0.027 A 
ATOM      8  C   UNL     1       6.940  -5.458  26.406  0.00  0.00    +0.102 A 
ATOM      9  N   UNL     1       7.548  -5.747  27.565  0.00  0.00    -0.173 NA
ATOM     10  N   UNL     1       6.583  -6.295  28.311  0.00  0.00    -0.284 N 
ATOM     11  H   UNL     1       6.817  -6.583  29.257  0.00  0.00    +0.188 HD
ATOM     12  C   UNL     1       5.388  -6.403  27.670  0.00  0.00    +0.114 A 
BRANCH   7  18
ATOM     13 CL   UNL     1       1.966  -8.354  23.608  0.00  0.00    -0.084 Cl
ATOM     14  C   UNL     1       2.749  -6.909  24.121  0.00  0.00    +0.042 A 
ATOM     15  C   UNL     1       2.266  -5.676  23.691  0.00  0.00    +0.020 A 
ATOM     16  C   UNL     1       2.937  -4.514  24.055  0.00  0.00    +0.002 A 
ATOM     17  C   UNL     1       4.072  -4.592  24.868  0.00  0.00    +0.009 A 
ATOM     18  C   UNL     1       4.502  -5.818  25.400  0.00  0.00    -0.013 A 
ATOM     19  C   UNL     1       3.851  -6.985  24.975  0.00  0.00    +0.028 A 
ENDBRANCH   7  18
ENDBRANCH   1   8
BRANCH   3  20
ATOM     20  C   UNL     1       9.833  -2.291  23.737  0.00  0.00    +0.261 C 
ATOM     21  N   UNL     1       9.756  -1.183  24.547  0.00  0.00    -0.306 N 
ATOM     22  H   UNL     1       9.091  -1.169  25.302  0.00  0.00    +0.149 HD
ATOM     23  O   UNL     1      10.511  -2.328  22.716  0.00  0.00    -0.269 OA
BRANCH  21  24
ATOM     24  C   UNL     1      10.487   0.031  24.273  0.00  0.00    +0.140 C 
BRANCH  24  25
ATOM     25  C   UNL     1       9.628   1.082  23.612  0.00  0.00    -0.030 A 
ATOM     26  C   UNL     1       9.121   2.153  24.363  0.00  0.00    +0.005 A 
ATOM     27  C   UNL     1       8.278   3.099  23.775  0.00  0.00    +0.000 A 
ATOM     28  C   UNL     1       7.945   2.995  22.426  0.00  0.00    +0.000 A 
ATOM     29  C   UNL     1       8.465   1.951  21.661  0.00  0.00    +0.000 A 
ATOM     30  C   UNL     1       9.305   1.001  22.249  0.00  0.00    +0.005 A 
ENDBRANCH  24  25
ENDBRANCH  21  24
ENDBRANCH   3  20
TORSDOF 5
ENDMDL
MODEL 4
REMARK VINA RESULT:      -7.5      2.579      3.629
REMARK  Name = 
REMARK  5 active torsions:
REMARK  status: ('A' for Active; 'I' for Inactive)
REMARK    1  A    between atoms: C_4  and  C_8
REMARK    2  A    between atoms: C_12  and  C_13
REMARK    3  A    between atoms: C_16  and  C_18
REMARK    4  A    between atoms: N_20  and  C_21
REMARK    5  A    between atoms: C_21  and  C_22
REMARK                            x       y       z     vdW  Elec       q    Type
REMARK                         _______ _______ _______ _____ _____    ______ ____
ROOT
ATOM      1  C   UNL     1       7.568  -4.474  23.940  0.00  0.00    +0.021 A 
ATOM      2  C   UNL     1       7.814  -3.141  23.516  0.00  0.00    +0.042 A 
ATOM      3  C   UNL     1       9.141  -2.844  23.798  0.00  0.00    +0.102 A 
ATOM      4  N   UNL     1       9.589  -3.856  24.623  0.00  0.00    -0.356 N 
ATOM      5  H   UNL     1      10.516  -3.878  25.032  0.00  0.00    +0.165 HD
ATOM      6  C   UNL     1       8.654  -4.852  24.700  0.00  0.00    +0.093 A 
ENDROOT
BRANCH   1   8
ATOM      7  C   UNL     1       5.313  -5.654  24.469  0.00  0.00    +0.027 A 
ATOM      8  C   UNL     1       6.399  -5.295  23.599  0.00  0.00    +0.102 A 
ATOM      9  N   UNL     1       6.211  -5.751  22.353  0.00  0.00    -0.173 NA
ATOM     10  N   UNL     1       5.058  -6.427  22.426  0.00  0.00    -0.284 N 
ATOM     11  H   UNL     1       4.719  -6.883  21.583  0.00  0.00    +0.188 HD
ATOM     12  C   UNL     1       4.481  -6.396  23.657  0.00  0.00    +0.114 A 
BRANCH   7  18
ATOM     13 CL   UNL     1       6.312  -6.671  29.457  0.00  0.00    -0.084 Cl
ATOM     14  C   UNL     1       5.515  -5.760  28.233  0.00  0.00    +0.042 A 
ATOM     15  C   UNL     1       4.725  -4.671  28.591  0.00  0.00    +0.020 A 
ATOM     16  C   UNL     1       4.032  -3.975  27.606  0.00  0.00    +0.002 A 
ATOM     17  C   UNL     1       4.153  -4.360  26.268  0.00  0.00    +0.009 A 
ATOM     18  C   UNL     1       5.034  -5.384  25.881  0.00  0.00    -0.013 A 
ATOM     19  C   UNL     1       5.678  -6.112  26.891  0.00  0.00    +0.028 A 
ENDBRANCH   7  18
ENDBRANCH   1   8
BRANCH   3  20
ATOM     20  C   UNL     1       9.998  -1.755  23.378  0.00  0.00    +0.261 C 
ATOM     21  N   UNL     1      10.114  -0.732  24.290  0.00  0.00    -0.306 N 
ATOM     22  H   UNL     1       9.552  -0.750  25.125  0.00  0.00    +0.149 HD
ATOM     23  O   UNL     1      10.537  -1.735  22.277  0.00  0.00    -0.269 OA
BRANCH  21  24
ATOM     24  C   UNL     1      10.903   0.449  24.035  0.00  0.00    +0.140 C 
BRANCH  24  25
ATOM     25  C   UNL     1      10.098   1.718  24.173  0.00  0.00    -0.030 A 
ATOM     26  C   UNL     1      10.538   2.903  23.565  0.00  0.00    +0.005 A 
ATOM     27  C   UNL     1       9.831   4.096  23.736  0.00  0.00    +0.000 A 
ATOM     28  C   UNL     1       8.667   4.114  24.501  0.00  0.00    +0.000 A 
ATOM     29  C   UNL     1       8.204   2.937  25.089  0.00  0.00    +0.000 A 
ATOM     30  C   UNL     1       8.912   1.744  24.923  0.00  0.00    +0.005 A 
ENDBRANCH  24  25
ENDBRANCH  21  24
ENDBRANCH   3  20
TORSDOF 5
ENDMDL
MODEL 5
REMARK VINA RESULT:      -7.5      4.534     10.234
REMARK  Name = 
REMARK  5 active torsions:
REMARK  status: ('A' for Active; 'I' for Inactive)
REMARK    1  A    between atoms: C_4  and  C_8
REMARK    2  A    between atoms: C_12  and  C_13
REMARK    3  A    between atoms: C_16  and  C_18
REMARK    4  A    between atoms: N_20  and  C_21
REMARK    5  A    between atoms: C_21  and  C_22
REMARK                            x       y       z     vdW  Elec       q    Type
REMARK                         _______ _______ _______ _____ _____    ______ ____
ROOT
ATOM      1  C   UNL     1       8.338   2.832  23.110  0.00  0.00    +0.021 A 
ATOM      2  C   UNL     1       8.514   1.813  22.137  0.00  0.00    +0.042 A 
ATOM      3  C   UNL     1       8.744   0.620  22.807  0.00  0.00    +0.102 A 
ATOM      4  N   UNL     1       8.989   0.965  24.121  0.00  0.00    -0.356 N 
ATOM      5  H   UNL     1       9.240   0.296  24.841  0.00  0.00    +0.165 HD
ATOM      6  C   UNL     1       8.729   2.294  24.318  0.00  0.00    +0.093 A 
ENDROOT
BRANCH   1   8
ATOM      7  C   UNL     1       8.451   5.429  23.187  0.00  0.00    +0.027 A 
ATOM      8  C   UNL     1       7.808   4.181  22.875  0.00  0.00    +0.102 A 
ATOM      9  N   UNL     1       6.636   4.368  22.254  0.00  0.00    -0.173 NA
ATOM     10  N   UNL     1       6.501   5.698  22.208  0.00  0.00    -0.284 N 
ATOM     11  H   UNL     1       5.658   6.077  21.785  0.00  0.00    +0.188 HD
ATOM     12  C   UNL     1       7.552   6.375  22.742  0.00  0.00    +0.114 A 
BRANCH   7  18
ATOM     13 CL   UNL     1      13.633   5.212  23.107  0.00  0.00    -0.084 Cl
ATOM     14  C   UNL     1      12.157   5.761  23.800  0.00  0.00    +0.042 A 
ATOM     15  C   UNL     1      12.189   6.644  24.876  0.00  0.00    +0.020 A 
ATOM     16  C   UNL     1      10.997   7.037  25.475  0.00  0.00    +0.002 A 
ATOM     17  C   UNL     1       9.780   6.562  24.977  0.00  0.00    +0.009 A 
ATOM     18  C   UNL     1       9.727   5.762  23.824  0.00  0.00    -0.013 A 
ATOM     19  C   UNL     1      10.940   5.327  23.269  0.00  0.00    +0.028 A 
ENDBRANCH   7  18
ENDBRANCH   1   8
BRANCH   3  20
ATOM     20  C   UNL     1       8.748  -0.756  22.358  0.00  0.00    +0.261 C 
ATOM     21  N   UNL     1       7.870  -1.580  23.022  0.00  0.00    -0.306 N 
ATOM     22  H   UNL     1       7.359  -1.221  23.812  0.00  0.00    +0.149 HD
ATOM     23  O   UNL     1       9.510  -1.156  21.484  0.00  0.00    -0.269 OA
BRANCH  21  24
ATOM     24  C   UNL     1       7.755  -2.989  22.731  0.00  0.00    +0.140 C 
BRANCH  24  25
ATOM     25  C   UNL     1       7.909  -3.845  23.965  0.00  0.00    -0.030 A 
ATOM     26  C   UNL     1       6.797  -4.505  24.509  0.00  0.00    +0.005 A 
ATOM     27  C   UNL     1       6.917  -5.252  25.683  0.00  0.00    +0.000 A 
ATOM     28  C   UNL     1       8.153  -5.363  26.317  0.00  0.00    +0.000 A 
ATOM     29  C   UNL     1       9.272  -4.734  25.771  0.00  0.00    +0.000 A 
ATOM     30  C   UNL     1       9.153  -3.983  24.599  0.00  0.00    +0.005 A 
ENDBRANCH  24  25
ENDBRANCH  21  24
ENDBRANCH   3  20
TORSDOF 5
ENDMDL
MODEL 6
REMARK VINA RESULT:      -7.4      2.382      3.996
REMARK  Name = 
REMARK  5 active torsions:
REMARK  status: ('A' for Active; 'I' for Inactive)
REMARK    1  A    between atoms: C_4  and  C_8
REMARK    2  A    between atoms: C_12  and  C_13
REMARK    3  A    between atoms: C_16  and  C_18
REMARK    4  A    between atoms: N_20  and  C_21
REMARK    5  A    between atoms: C_21  and  C_22
REMARK                            x       y       z     vdW  Elec       q    Type
REMARK                         _______ _______ _______ _____ _____    ______ ____
ROOT
ATOM      1  C   UNL     1       8.857  -2.581  23.740  0.00  0.00    +0.021 A 
ATOM      2  C   UNL     1       8.776  -1.263  24.264  0.00  0.00    +0.042 A 
ATOM      3  C   UNL     1       8.417  -0.415  23.226  0.00  0.00    +0.102 A 
ATOM      4  N   UNL     1       8.564  -1.150  22.067  0.00  0.00    -0.356 N 
ATOM      5  H   UNL     1       8.418  -0.770  21.139  0.00  0.00    +0.165 HD
ATOM      6  C   UNL     1       8.811  -2.462  22.367  0.00  0.00    +0.093 A 
ENDROOT
BRANCH   1   8
ATOM      7  C   UNL     1       7.834  -4.580  25.051  0.00  0.00    +0.027 A 
ATOM      8  C   UNL     1       8.935  -3.825  24.517  0.00  0.00    +0.102 A 
ATOM      9  N   UNL     1      10.110  -4.425  24.749  0.00  0.00    -0.173 NA
ATOM     10  N   UNL     1       9.784  -5.513  25.456  0.00  0.00    -0.284 N 
ATOM     11  H   UNL     1      10.536  -6.124  25.764  0.00  0.00    +0.188 HD
ATOM     12  C   UNL     1       8.447  -5.657  25.658  0.00  0.00    +0.114 A 
BRANCH   7  18
ATOM     13 CL   UNL     1       3.197  -5.812  23.080  0.00  0.00    -0.084 Cl
ATOM     14  C   UNL     1       4.179  -4.966  24.213  0.00  0.00    +0.042 A 
ATOM     15  C   UNL     1       3.576  -4.208  25.213  0.00  0.00    +0.020 A 
ATOM     16  C   UNL     1       4.370  -3.475  26.088  0.00  0.00    +0.002 A 
ATOM     17  C   UNL     1       5.762  -3.526  25.972  0.00  0.00    +0.009 A 
ATOM     18  C   UNL     1       6.385  -4.374  25.042  0.00  0.00    -0.013 A 
ATOM     19  C   UNL     1       5.570  -5.059  24.129  0.00  0.00    +0.028 A 
ENDBRANCH   7  18
ENDBRANCH   1   8
BRANCH   3  20
ATOM     20  C   UNL     1       7.958   0.958  23.215  0.00  0.00    +0.261 C 
ATOM     21  N   UNL     1       8.792   1.848  23.851  0.00  0.00    -0.306 N 
ATOM     22  H   UNL     1       9.596   1.500  24.349  0.00  0.00    +0.149 HD
ATOM     23  O   UNL     1       6.888   1.286  22.714  0.00  0.00    -0.269 OA
BRANCH  21  24
ATOM     24  C   UNL     1       8.486   3.253  23.965  0.00  0.00    +0.140 C 
BRANCH  24  25
ATOM     25  C   UNL     1       9.718   4.120  23.852  0.00  0.00    -0.030 A 
ATOM     26  C   UNL     1      10.913   3.584  23.350  0.00  0.00    +0.005 A 
ATOM     27  C   UNL     1      12.073   4.361  23.295  0.00  0.00    +0.000 A 
ATOM     28  C   UNL     1      12.047   5.686  23.725  0.00  0.00    +0.000 A 
ATOM     29  C   UNL     1      10.859   6.239  24.201  0.00  0.00    +0.000 A 
ATOM     30  C   UNL     1       9.698   5.462  24.260  0.00  0.00    +0.005 A 
ENDBRANCH  24  25
ENDBRANCH  21  24
ENDBRANCH   3  20
TORSDOF 5
ENDMDL
MODEL 7
REMARK VINA RESULT:      -7.4      2.224      3.824
REMARK  Name = 
REMARK  5 active torsions:
REMARK  status: ('A' for Active; 'I' for Inactive)
REMARK    1  A    between atoms: C_4  and  C_8
REMARK    2  A    between atoms: C_12  and  C_13
REMARK    3  A    between atoms: C_16  and  C_18
REMARK    4  A    between atoms: N_20  and  C_21
REMARK    5  A    between atoms: C_21  and  C_22
REMARK                            x       y       z     vdW  Elec       q    Type
REMARK                         _______ _______ _______ _____ _____    ______ ____
ROOT
ATOM      1  C   UNL     1       8.971  -3.000  23.553  0.00  0.00    +0.021 A 
ATOM      2  C   UNL     1       9.808  -1.854  23.512  0.00  0.00    +0.042 A 
ATOM      3  C   UNL     1       9.296  -0.988  22.557  0.00  0.00    +0.102 A 
ATOM      4  N   UNL     1       8.361  -1.715  21.847  0.00  0.00    -0.356 N 
ATOM      5  H   UNL     1       7.855  -1.353  21.047  0.00  0.00    +0.165 HD
ATOM      6  C   UNL     1       8.145  -2.924  22.452  0.00  0.00    +0.093 A 
ENDROOT
BRANCH   1   8
ATOM      7  C   UNL     1       7.836  -4.498  25.350  0.00  0.00    +0.027 A 
ATOM      8  C   UNL     1       8.967  -4.040  24.590  0.00  0.00    +0.102 A 
ATOM      9  N   UNL     1      10.076  -4.732  24.883  0.00  0.00    -0.173 NA
ATOM     10  N   UNL     1       9.685  -5.581  25.841  0.00  0.00    -0.284 N 
ATOM     11  H   UNL     1      10.381  -6.208  26.235  0.00  0.00    +0.188 HD
ATOM     12  C   UNL     1       8.364  -5.488  26.151  0.00  0.00    +0.114 A 
BRANCH   7  18
ATOM     13 CL   UNL     1       3.046  -4.992  23.420  0.00  0.00    -0.084 Cl
ATOM     14  C   UNL     1       4.150  -4.345  24.571  0.00  0.00    +0.042 A 
ATOM     15  C   UNL     1       3.670  -3.564  25.620  0.00  0.00    +0.020 A 
ATOM     16  C   UNL     1       4.568  -2.991  26.513  0.00  0.00    +0.002 A 
ATOM     17  C   UNL     1       5.939  -3.223  26.365  0.00  0.00    +0.009 A 
ATOM     18  C   UNL     1       6.427  -4.098  25.381  0.00  0.00    -0.013 A 
ATOM     19  C   UNL     1       5.514  -4.620  24.454  0.00  0.00    +0.028 A 
ENDBRANCH   7  18
ENDBRANCH   1   8
BRANCH   3  20
ATOM     20  C   UNL     1       9.577   0.401  22.260  0.00  0.00    +0.261 C 
ATOM     21  N   UNL     1      10.271   1.069  23.241  0.00  0.00    -0.306 N 
ATOM     22  H   UNL     1      10.460   0.604  24.115  0.00  0.00    +0.149 HD
ATOM     23  O   UNL     1       9.185   0.942  21.231  0.00  0.00    -0.269 OA
BRANCH  21  24
ATOM     24  C   UNL     1      10.617   2.466  23.134  0.00  0.00    +0.140 C 
BRANCH  24  25
ATOM     25  C   UNL     1       9.732   3.344  23.985  0.00  0.00    -0.030 A 
ATOM     26  C   UNL     1       8.744   2.771  24.800  0.00  0.00    +0.005 A 
ATOM     27  C   UNL     1       7.881   3.577  25.546  0.00  0.00    +0.000 A 
ATOM     28  C   UNL     1       8.007   4.964  25.501  0.00  0.00    +0.000 A 
ATOM     29  C   UNL     1       9.003   5.545  24.717  0.00  0.00    +0.000 A 
ATOM     30  C   UNL     1       9.864   4.741  23.966  0.00  0.00    +0.005 A 
ENDBRANCH  24  25
ENDBRANCH  21  24
ENDBRANCH   3  20
TORSDOF 5
ENDMDL
MODEL 8
REMARK VINA RESULT:      -7.4      4.158      9.493
REMARK  Name = 
REMARK  5 active torsions:
REMARK  status: ('A' for Active; 'I' for Inactive)
REMARK    1  A    between atoms: C_4  and  C_8
REMARK    2  A    between atoms: C_12  and  C_13
REMARK    3  A    between atoms: C_16  and  C_18
REMARK    4  A    between atoms: N_20  and  C_21
REMARK    5  A    between atoms: C_21  and  C_22
REMARK                            x       y       z     vdW  Elec       q    Type
REMARK                         _______ _______ _______ _____ _____    ______ ____
ROOT
ATOM      1  C   UNL     1      10.294   2.601  23.327  0.00  0.00    +0.021 A 
ATOM      2  C   UNL     1       9.772   1.767  24.352  0.00  0.00    +0.042 A 
ATOM      3  C   UNL     1       9.617   0.493  23.825  0.00  0.00    +0.102 A 
ATOM      4  N   UNL     1       9.762   0.627  22.459  0.00  0.00    -0.356 N 
ATOM      5  H   UNL     1       9.649  -0.139  21.804  0.00  0.00    +0.165 HD
ATOM      6  C   UNL     1      10.188   1.890  22.150  0.00  0.00    +0.093 A 
ENDROOT
BRANCH   1   8
ATOM      7  C   UNL     1      10.173   5.130  23.917  0.00  0.00    +0.027 A 
ATOM      8  C   UNL     1      10.867   3.941  23.501  0.00  0.00    +0.102 A 
ATOM      9  N   UNL     1      12.178   4.163  23.335  0.00  0.00    -0.173 NA
ATOM     10  N   UNL     1      12.321   5.469  23.590  0.00  0.00    -0.284 N 
ATOM     11  H   UNL     1      13.251   5.871  23.507  0.00  0.00    +0.188 HD
ATOM     12  C   UNL     1      11.164   6.089  23.945  0.00  0.00    +0.114 A 
BRANCH   7  18
ATOM     13 CL   UNL     1       5.500   6.776  22.382  0.00  0.00    -0.084 Cl
ATOM     14  C   UNL     1       6.544   6.090  23.565  0.00  0.00    +0.042 A 
ATOM     15  C   UNL     1       6.017   5.658  24.780  0.00  0.00    +0.020 A 
ATOM     16  C   UNL     1       6.871   5.162  25.759  0.00  0.00    +0.002 A 
ATOM     17  C   UNL     1       8.243   5.078  25.506  0.00  0.00    +0.009 A 
ATOM     18  C   UNL     1       8.773   5.404  24.247  0.00  0.00    -0.013 A 
ATOM     19  C   UNL     1       7.908   5.958  23.293  0.00  0.00    +0.028 A 
ENDBRANCH   7  18
ENDBRANCH   1   8
BRANCH   3  20
ATOM     20  C   UNL     1       9.365  -0.788  24.451  0.00  0.00    +0.261 C 
ATOM     21  N   UNL     1       9.365  -1.859  23.589  0.00  0.00    -0.306 N 
ATOM     22  H   UNL     1       9.446  -1.695  22.599  0.00  0.00    +0.149 HD
ATOM     23  O   UNL     1       9.128  -0.894  25.650  0.00  0.00    -0.269 OA
BRANCH  21  24
ATOM     24  C   UNL     1       9.105  -3.209  24.028  0.00  0.00    +0.140 C 
BRANCH  24  25
ATOM     25  C   UNL     1       7.976  -3.855  23.261  0.00  0.00    -0.030 A 
ATOM     26  C   UNL     1       7.792  -5.244  23.313  0.00  0.00    +0.005 A 
ATOM     27  C   UNL     1       6.786  -5.857  22.560  0.00  0.00    +0.000 A 
ATOM     28  C   UNL     1       5.943  -5.087  21.763  0.00  0.00    +0.000 A 
ATOM     29  C   UNL     1       6.098  -3.702  21.723  0.00  0.00    +0.000 A 
ATOM     30  C   UNL     1       7.106  -3.087  22.471  0.00  0.00    +0.005 A 
ENDBRANCH  24  25
ENDBRANCH  21  24
ENDBRANCH   3  20
TORSDOF 5
ENDMDL
MODEL 9
REMARK VINA RESULT:      -7.4      2.806      4.324
REMARK  Name = 
REMARK  5 active torsions:
REMARK  status: ('A' for Active; 'I' for Inactive)
REMARK    1  A    between atoms: C_4  and  C_8
REMARK    2  A    between atoms: C_12  and  C_13
REMARK    3  A    between atoms: C_16  and  C_18
REMARK    4  A    between atoms: N_20  and  C_21
REMARK    5  A    between atoms: C_21  and  C_22
REMARK                            x       y       z     vdW  Elec       q    Type
REMARK                         _______ _______ _______ _____ _____    ______ ____
ROOT
ATOM      1  C   UNL     1       9.031  -2.947  23.695  0.00  0.00    +0.021 A 
ATOM      2  C   UNL     1       9.828  -1.775  23.607  0.00  0.00    +0.042 A 
ATOM      3  C   UNL     1       9.301  -0.977  22.601  0.00  0.00    +0.102 A 
ATOM      4  N   UNL     1       8.403  -1.772  21.918  0.00  0.00    -0.356 N 
ATOM      5  H   UNL     1       7.898  -1.469  21.093  0.00  0.00    +0.165 HD
ATOM      6  C   UNL     1       8.220  -2.956  22.580  0.00  0.00    +0.093 A 
ENDROOT
BRANCH   1   8
ATOM      7  C   UNL     1       8.111  -4.036  25.869  0.00  0.00    +0.027 A 
ATOM      8  C   UNL     1       9.047  -3.933  24.783  0.00  0.00    +0.102 A 
ATOM      9  N   UNL     1       9.958  -4.915  24.817  0.00  0.00    -0.173 NA
ATOM     10  N   UNL     1       9.649  -5.606  25.920  0.00  0.00    -0.284 N 
ATOM     11  H   UNL     1      10.230  -6.405  26.160  0.00  0.00    +0.188 HD
ATOM     12  C   UNL     1       8.558  -5.131  26.578  0.00  0.00    +0.114 A 
BRANCH   7  18
ATOM     13 CL   UNL     1       6.160   0.499  27.461  0.00  0.00    -0.084 Cl
ATOM     14  C   UNL     1       5.961  -1.125  26.926  0.00  0.00    +0.042 A 
ATOM     15  C   UNL     1       4.679  -1.628  26.719  0.00  0.00    +0.020 A 
ATOM     16  C   UNL     1       4.518  -2.958  26.348  0.00  0.00    +0.002 A 
ATOM     17  C   UNL     1       5.641  -3.769  26.162  0.00  0.00    +0.009 A 
ATOM     18  C   UNL     1       6.941  -3.245  26.257  0.00  0.00    -0.013 A 
ATOM     19  C   UNL     1       7.085  -1.919  26.690  0.00  0.00    +0.028 A 
ENDBRANCH   7  18
ENDBRANCH   1   8
BRANCH   3  20
ATOM     20  C   UNL     1       9.538   0.404  22.238  0.00  0.00    +0.261 C 
ATOM     21  N   UNL     1      10.146   1.159  23.214  0.00  0.00    -0.306 N 
ATOM     22  H   UNL     1      10.304   0.754  24.123  0.00  0.00    +0.149 HD
ATOM     23  O   UNL     1       9.182   0.867  21.160  0.00  0.00    -0.269 OA
BRANCH  21  24
ATOM     24  C   UNL     1      10.437   2.562  23.043  0.00  0.00    +0.140 C 
BRANCH  24  25
ATOM     25  C   UNL     1       9.621   3.434  23.967  0.00  0.00    -0.030 A 
ATOM     26  C   UNL     1       8.653   2.862  24.806  0.00  0.00    +0.005 A 
ATOM     27  C   UNL     1       7.854   3.666  25.622  0.00  0.00    +0.000 A 
ATOM     28  C   UNL     1       8.024   5.048  25.622  0.00  0.00    +0.000 A 
ATOM     29  C   UNL     1       9.002   5.628  24.813  0.00  0.00    +0.000 A 
ATOM     30  C   UNL     1       9.800   4.826  23.993  0.00  0.00    +0.005 A 
ENDBRANCH  24  25
ENDBRANCH  21  24
ENDBRANCH   3  20
TORSDOF 5
ENDMDL
