MODEL 1
REMARK VINA RESULT:      -7.5      0.000      0.000
REMARK  Name = 
REMARK  18 active torsions:
REMARK  status: ('A' for Active; 'I' for Inactive)
REMARK    1  A    between atoms: C_1  and  C_2
REMARK    2  A    between atoms: C_13  and  O_14
REMARK    3  A    between atoms: C_21  and  C_23
REMARK    4  A    between atoms: C_23  and  C_24
REMARK    5  A    between atoms: C_24  and  C_25
REMARK    6  A    between atoms: C_25  and  C_26
REMARK    7  A    between atoms: C_26  and  C_27
REMARK    8  A    between atoms: C_27  and  C_28
REMARK    9  A    between atoms: C_28  and  C_29
REMARK   10  A    between atoms: C_29  and  C_30
REMARK   11  A    between atoms: C_30  and  C_31
REMARK   12  A    between atoms: C_31  and  O_33
REMARK   13  A    between atoms: O_33  and  C_34
REMARK   14  A    between atoms: C_34  and  C_35
REMARK   15  A    between atoms: C_38  and  N_46
REMARK   16  A    between atoms: C_40  and  O_42
REMARK   17  A    between atoms: C_43  and  O_45
REMARK   18  A    between atoms: C_56  and  O_58
REMARK                            x       y       z     vdW  Elec       q    Type
REMARK                         _______ _______ _______ _____ _____    ______ ____
ROOT
ATOM      1  C   UNL     1       7.227  -1.229  26.617  0.00  0.00    +0.001 C 
ENDROOT
BRANCH   1   2
ATOM      2  C   UNL     1       8.474  -1.946  26.097  0.00  0.00    +0.011 C 
BRANCH   2   3
ATOM      3  C   UNL     1       8.967  -1.432  24.741  0.00  0.00    +0.120 C 
BRANCH   3   4
ATOM      4  C   UNL     1       9.364  -2.573  23.837  0.00  0.00    +0.307 C 
ATOM      5  O   UNL     1      10.195  -3.433  24.100  0.00  0.00    -0.251 OA
BRANCH   4   6
ATOM      6  O   UNL     1       8.701  -2.474  22.648  0.00  0.00    -0.462 OA
BRANCH   6   7
ATOM      7  C   UNL     1       7.352  -1.988  22.730  0.00  0.00    +0.266 C 
BRANCH   7   8
ATOM      8  C   UNL     1       6.292  -3.081  22.562  0.00  0.00    +0.189 C 
ATOM      9  C   UNL     1       6.776  -4.384  21.934  0.00  0.00    +0.179 C 
ATOM     10  C   UNL     1       6.990  -5.346  23.099  0.00  0.00    +0.195 C 
ATOM     11  C   UNL     1       6.468  -4.586  24.325  0.00  0.00    +0.253 C 
ATOM     12  O   UNL     1       5.737  -3.444  23.842  0.00  0.00    -0.345 OA
BRANCH  11  13
ATOM     13  N   UNL     1       5.605  -5.384  25.180  0.00  0.00    -0.286 N 
ATOM     14  C   UNL     1       5.917  -5.813  26.438  0.00  0.00    +0.167 A 
ATOM     15  N   UNL     1       7.079  -5.660  27.098  0.00  0.00    -0.216 NA
ATOM     16  C   UNL     1       7.003  -6.213  28.327  0.00  0.00    +0.225 A 
ATOM     17  N   UNL     1       5.956  -6.849  28.899  0.00  0.00    -0.219 NA
ATOM     18  C   UNL     1       4.807  -6.962  28.197  0.00  0.00    +0.147 A 
ATOM     19  N   UNL     1       3.724  -7.597  28.794  0.00  0.00    -0.341 N 
ATOM     20  H   UNL     1       3.029  -7.928  28.134  0.00  0.00    +0.144 HD
ATOM     21  H   UNL     1       3.995  -8.214  29.546  0.00  0.00    +0.144 HD
ATOM     22  C   UNL     1       4.766  -6.442  26.896  0.00  0.00    +0.147 A 
ATOM     23  N   UNL     1       3.783  -6.431  25.935  0.00  0.00    -0.231 NA
ATOM     24  C   UNL     1       4.314  -5.765  24.919  0.00  0.00    +0.203 A 
ENDBRANCH  11  13
BRANCH  10  25
ATOM     25  O   UNL     1       8.374  -5.679  23.251  0.00  0.00    -0.385 OA
ATOM     26  H   UNL     1       8.419  -6.343  23.969  0.00  0.00    +0.210 HD
ENDBRANCH  10  25
BRANCH   9  27
ATOM     27  O   UNL     1       5.737  -4.909  21.084  0.00  0.00    -0.386 OA
ATOM     28  H   UNL     1       5.516  -5.811  21.375  0.00  0.00    +0.210 HD
ENDBRANCH   9  27
ENDBRANCH   7   8
ENDBRANCH   6   7
ENDBRANCH   4   6
ENDBRANCH   3   4
ENDBRANCH   2   3
ENDBRANCH   1   2
BRANCH   1  29
ATOM     29  C   UNL     1       6.058  -2.156  26.970  0.00  0.00    +0.000 C 
BRANCH  29  30
ATOM     30  C   UNL     1       4.659  -1.550  26.778  0.00  0.00    +0.000 C 
BRANCH  30  31
ATOM     31  C   UNL     1       4.205  -0.566  27.859  0.00  0.00    +0.000 C 
BRANCH  31  32
ATOM     32  C   UNL     1       2.853   0.094  27.578  0.00  0.00    +0.000 C 
BRANCH  32  33
ATOM     33  C   UNL     1       2.870   1.483  26.803  0.00  0.00    +0.006 C 
BRANCH  33  37
ATOM     34  C   UNL     1       7.103   2.062  26.673  0.00  0.00    +0.014 C 
ATOM     35  C   UNL     1       6.198   2.385  25.378  0.00  0.00    -0.003 C 
ATOM     36  C   UNL     1       4.748   1.896  25.284  0.00  0.00    +0.124 C 
ATOM     37  C   UNL     1       4.306   2.083  26.689  0.00  0.00    +0.018 C 
ATOM     38  C   UNL     1       4.865   3.660  26.835  0.00  0.00    +0.010 C 
ATOM     39  C   UNL     1       5.954   3.877  25.489  0.00  0.00    +0.001 C 
ATOM     40  C   UNL     1       7.372   4.571  25.131  0.00  0.00    +0.000 C 
ATOM     41  C   UNL     1       7.242   5.926  24.355  0.00  0.00    +0.009 C 
ATOM     42  C   UNL     1       8.615   6.575  23.966  0.00  0.00    +0.036 C 
ATOM     43  C   UNL     1       9.799   5.654  23.750  0.00  0.00    -0.040 A 
ATOM     44  C   UNL     1       9.635   4.271  23.824  0.00  0.00    -0.041 A 
ATOM     45  C   UNL     1      10.752   3.427  23.612  0.00  0.00    +0.008 A 
ATOM     46  C   UNL     1      12.006   3.940  23.339  0.00  0.00    +0.046 A 
ATOM     47  C   UNL     1      12.166   5.308  23.271  0.00  0.00    +0.117 A 
ATOM     48  C   UNL     1      11.076   6.169  23.467  0.00  0.00    +0.049 A 
ATOM     49  C   UNL     1       8.236   3.729  24.026  0.00  0.00    +0.023 C 
ATOM     50  C   UNL     1       8.268   2.211  24.089  0.00  0.00    +0.009 C 
ATOM     51  C   UNL     1       6.874   1.725  24.207  0.00  0.00    +0.010 C 
BRANCH  36  52
ATOM     52  O   UNL     1       3.867   2.685  24.430  0.00  0.00    -0.391 OA
ATOM     53  H   UNL     1       3.068   2.970  24.928  0.00  0.00    +0.210 HD
ENDBRANCH  36  52
BRANCH  47  54
ATOM     54  O   UNL     1      13.423   5.760  23.005  0.00  0.00    -0.507 OA
ATOM     55  H   UNL     1      13.538   6.626  23.422  0.00  0.00    +0.292 HD
ENDBRANCH  47  54
ENDBRANCH  33  37
ENDBRANCH  32  33
ENDBRANCH  31  32
ENDBRANCH  30  31
ENDBRANCH  29  30
ENDBRANCH   1  29
TORSDOF 17
ENDMDL
MODEL 2
REMARK VINA RESULT:      -7.2      2.209      7.476
REMARK  Name = 
REMARK  18 active torsions:
REMARK  status: ('A' for Active; 'I' for Inactive)
REMARK    1  A    between atoms: C_1  and  C_2
REMARK    2  A    between atoms: C_13  and  O_14
REMARK    3  A    between atoms: C_21  and  C_23
REMARK    4  A    between atoms: C_23  and  C_24
REMARK    5  A    between atoms: C_24  and  C_25
REMARK    6  A    between atoms: C_25  and  C_26
REMARK    7  A    between atoms: C_26  and  C_27
REMARK    8  A    between atoms: C_27  and  C_28
REMARK    9  A    between atoms: C_28  and  C_29
REMARK   10  A    between atoms: C_29  and  C_30
REMARK   11  A    between atoms: C_30  and  C_31
REMARK   12  A    between atoms: C_31  and  O_33
REMARK   13  A    between atoms: O_33  and  C_34
REMARK   14  A    between atoms: C_34  and  C_35
REMARK   15  A    between atoms: C_38  and  N_46
REMARK   16  A    between atoms: C_40  and  O_42
REMARK   17  A    between atoms: C_43  and  O_45
REMARK   18  A    between atoms: C_56  and  O_58
REMARK                            x       y       z     vdW  Elec       q    Type
REMARK                         _______ _______ _______ _____ _____    ______ ____
ROOT
ATOM      1  C   UNL     1       6.839   4.262  22.235  0.00  0.00    +0.001 C 
ENDROOT
BRANCH   1   2
ATOM      2  C   UNL     1       5.428   4.024  22.775  0.00  0.00    +0.011 C 
BRANCH   2   3
ATOM      3  C   UNL     1       5.374   3.081  23.981  0.00  0.00    +0.120 C 
BRANCH   3   4
ATOM      4  C   UNL     1       5.611   3.830  25.269  0.00  0.00    +0.307 C 
ATOM      5  O   UNL     1       5.570   5.046  25.403  0.00  0.00    -0.251 OA
BRANCH   4   6
ATOM      6  O   UNL     1       5.943   2.953  26.261  0.00  0.00    -0.462 OA
BRANCH   6   7
ATOM      7  C   UNL     1       5.632   1.576  25.997  0.00  0.00    +0.266 C 
BRANCH   7   8
ATOM      8  C   UNL     1       5.414   0.740  27.263  0.00  0.00    +0.189 C 
ATOM      9  C   UNL     1       4.074   0.937  27.965  0.00  0.00    +0.179 C 
ATOM     10  C   UNL     1       3.208  -0.243  27.533  0.00  0.00    +0.195 C 
ATOM     11  C   UNL     1       4.155  -1.138  26.723  0.00  0.00    +0.253 C 
ATOM     12  O   UNL     1       5.495  -0.666  26.956  0.00  0.00    -0.345 OA
BRANCH  11  13
ATOM     13  N   UNL     1       4.071  -2.545  27.078  0.00  0.00    -0.286 N 
ATOM     14  C   UNL     1       3.556  -3.531  26.287  0.00  0.00    +0.167 A 
ATOM     15  N   UNL     1       2.965  -3.400  25.086  0.00  0.00    -0.216 NA
ATOM     16  C   UNL     1       2.591  -4.606  24.607  0.00  0.00    +0.225 A 
ATOM     17  N   UNL     1       2.746  -5.822  25.178  0.00  0.00    -0.219 NA
ATOM     18  C   UNL     1       3.359  -5.896  26.379  0.00  0.00    +0.147 A 
ATOM     19  N   UNL     1       3.536  -7.149  26.957  0.00  0.00    -0.341 N 
ATOM     20  H   UNL     1       3.699  -7.119  27.958  0.00  0.00    +0.144 HD
ATOM     21  H   UNL     1       2.893  -7.841  26.602  0.00  0.00    +0.144 HD
ATOM     22  C   UNL     1       3.778  -4.707  26.991  0.00  0.00    +0.147 A 
ATOM     23  N   UNL     1       4.383  -4.451  28.199  0.00  0.00    -0.231 NA
ATOM     24  C   UNL     1       4.567  -3.138  28.211  0.00  0.00    +0.203 A 
ENDBRANCH  11  13
BRANCH  10  25
ATOM     25  O   UNL     1       2.101   0.189  26.735  0.00  0.00    -0.385 OA
ATOM     26  H   UNL     1       2.383   1.020  26.302  0.00  0.00    +0.210 HD
ENDBRANCH  10  25
BRANCH   9  27
ATOM     27  O   UNL     1       4.278   0.866  29.390  0.00  0.00    -0.386 OA
ATOM     28  H   UNL     1       3.415   0.933  29.836  0.00  0.00    +0.210 HD
ENDBRANCH   9  27
ENDBRANCH   7   8
ENDBRANCH   6   7
ENDBRANCH   4   6
ENDBRANCH   3   4
ENDBRANCH   2   3
ENDBRANCH   1   2
BRANCH   1  29
ATOM     29  C   UNL     1       7.207   5.736  22.035  0.00  0.00    +0.000 C 
BRANCH  29  30
ATOM     30  C   UNL     1       8.286   6.279  22.984  0.00  0.00    +0.000 C 
BRANCH  30  31
ATOM     31  C   UNL     1       8.827   5.285  24.015  0.00  0.00    +0.000 C 
BRANCH  31  32
ATOM     32  C   UNL     1      10.351   5.136  24.003  0.00  0.00    +0.000 C 
BRANCH  32  33
ATOM     33  C   UNL     1      10.940   3.750  23.492  0.00  0.00    +0.006 C 
BRANCH  33  37
ATOM     34  C   UNL     1       7.948   0.876  22.460  0.00  0.00    +0.014 C 
ATOM     35  C   UNL     1       9.381   0.394  23.023  0.00  0.00    -0.003 C 
ATOM     36  C   UNL     1      10.568   1.360  23.099  0.00  0.00    +0.124 C 
ATOM     37  C   UNL     1       9.878   2.607  23.512  0.00  0.00    +0.018 C 
ATOM     38  C   UNL     1       9.017   1.915  24.777  0.00  0.00    +0.010 C 
ATOM     39  C   UNL     1       9.122   0.195  24.503  0.00  0.00    +0.001 C 
ATOM     40  C   UNL     1       8.215  -1.142  24.605  0.00  0.00    +0.000 C 
ATOM     41  C   UNL     1       8.511  -2.021  25.868  0.00  0.00    +0.009 C 
ATOM     42  C   UNL     1       7.667  -3.340  25.942  0.00  0.00    +0.036 C 
ATOM     43  C   UNL     1       7.208  -3.963  24.639  0.00  0.00    -0.040 A 
ATOM     44  C   UNL     1       7.599  -3.409  23.421  0.00  0.00    -0.041 A 
ATOM     45  C   UNL     1       7.166  -4.010  22.214  0.00  0.00    +0.008 A 
ATOM     46  C   UNL     1       6.359  -5.131  22.212  0.00  0.00    +0.046 A 
ATOM     47  C   UNL     1       5.970  -5.674  23.419  0.00  0.00    +0.117 A 
ATOM     48  C   UNL     1       6.390  -5.106  24.630  0.00  0.00    +0.049 A 
ATOM     49  C   UNL     1       8.563  -2.242  23.445  0.00  0.00    +0.023 C 
ATOM     50  C   UNL     1       8.857  -1.778  22.028  0.00  0.00    +0.009 C 
ATOM     51  C   UNL     1       9.862  -0.691  22.097  0.00  0.00    +0.010 C 
BRANCH  36  52
ATOM     52  O   UNL     1      11.573   1.050  24.110  0.00  0.00    -0.391 OA
ATOM     53  H   UNL     1      12.363   0.635  23.696  0.00  0.00    +0.210 HD
ENDBRANCH  36  52
BRANCH  47  54
ATOM     54  O   UNL     1       5.170  -6.775  23.360  0.00  0.00    -0.507 OA
ATOM     55  H   UNL     1       5.370  -7.265  22.550  0.00  0.00    +0.292 HD
ENDBRANCH  47  54
ENDBRANCH  33  37
ENDBRANCH  32  33
ENDBRANCH  31  32
ENDBRANCH  30  31
ENDBRANCH  29  30
ENDBRANCH   1  29
TORSDOF 17
ENDMDL
MODEL 3
REMARK VINA RESULT:      -7.0      2.056      6.236
REMARK  Name = 
REMARK  18 active torsions:
REMARK  status: ('A' for Active; 'I' for Inactive)
REMARK    1  A    between atoms: C_1  and  C_2
REMARK    2  A    between atoms: C_13  and  O_14
REMARK    3  A    between atoms: C_21  and  C_23
REMARK    4  A    between atoms: C_23  and  C_24
REMARK    5  A    between atoms: C_24  and  C_25
REMARK    6  A    between atoms: C_25  and  C_26
REMARK    7  A    between atoms: C_26  and  C_27
REMARK    8  A    between atoms: C_27  and  C_28
REMARK    9  A    between atoms: C_28  and  C_29
REMARK   10  A    between atoms: C_29  and  C_30
REMARK   11  A    between atoms: C_30  and  C_31
REMARK   12  A    between atoms: C_31  and  O_33
REMARK   13  A    between atoms: O_33  and  C_34
REMARK   14  A    between atoms: C_34  and  C_35
REMARK   15  A    between atoms: C_38  and  N_46
REMARK   16  A    between atoms: C_40  and  O_42
REMARK   17  A    between atoms: C_43  and  O_45
REMARK   18  A    between atoms: C_56  and  O_58
REMARK                            x       y       z     vdW  Elec       q    Type
REMARK                         _______ _______ _______ _____ _____    ______ ____
ROOT
ATOM      1  C   UNL     1      10.349   1.635  24.126  0.00  0.00    +0.001 C 
ENDROOT
BRANCH   1   2
ATOM      2  C   UNL     1      10.158   0.146  24.421  0.00  0.00    +0.011 C 
BRANCH   2   3
ATOM      3  C   UNL     1      10.467  -0.769  23.233  0.00  0.00    +0.120 C 
BRANCH   3   4
ATOM      4  C   UNL     1       9.653  -2.038  23.297  0.00  0.00    +0.307 C 
ATOM      5  O   UNL     1       9.952  -3.043  23.929  0.00  0.00    -0.251 OA
BRANCH   4   6
ATOM      6  O   UNL     1       8.556  -1.927  22.493  0.00  0.00    -0.462 OA
BRANCH   6   7
ATOM      7  C   UNL     1       7.305  -1.751  23.175  0.00  0.00    +0.266 C 
BRANCH   7   8
ATOM      8  C   UNL     1       6.241  -2.783  22.788  0.00  0.00    +0.189 C 
ATOM      9  C   UNL     1       6.731  -3.957  21.946  0.00  0.00    +0.179 C 
ATOM     10  C   UNL     1       6.908  -5.116  22.924  0.00  0.00    +0.195 C 
ATOM     11  C   UNL     1       6.361  -4.582  24.254  0.00  0.00    +0.253 C 
ATOM     12  O   UNL     1       5.651  -3.364  23.968  0.00  0.00    -0.345 OA
BRANCH  11  13
ATOM     13  N   UNL     1       5.471  -5.511  24.931  0.00  0.00    -0.286 N 
ATOM     14  C   UNL     1       4.326  -6.035  24.405  0.00  0.00    +0.167 A 
ATOM     15  N   UNL     1       3.757  -5.750  23.220  0.00  0.00    -0.216 NA
ATOM     16  C   UNL     1       2.633  -6.478  23.046  0.00  0.00    +0.225 A 
ATOM     17  N   UNL     1       2.081  -7.385  23.884  0.00  0.00    -0.219 NA
ATOM     18  C   UNL     1       2.703  -7.644  25.055  0.00  0.00    +0.147 A 
ATOM     19  N   UNL     1       2.146  -8.592  25.906  0.00  0.00    -0.341 N 
ATOM     20  H   UNL     1       2.458  -8.512  26.868  0.00  0.00    +0.144 HD
ATOM     21  H   UNL     1       1.163  -8.743  25.738  0.00  0.00    +0.144 HD
ATOM     22  C   UNL     1       3.873  -6.936  25.361  0.00  0.00    +0.147 A 
ATOM     23  N   UNL     1       4.697  -6.943  26.461  0.00  0.00    -0.231 NA
ATOM     24  C   UNL     1       5.666  -6.088  26.160  0.00  0.00    +0.203 A 
ENDBRANCH  11  13
BRANCH  10  25
ATOM     25  O   UNL     1       8.286  -5.487  23.046  0.00  0.00    -0.385 OA
ATOM     26  H   UNL     1       8.330  -6.141  23.773  0.00  0.00    +0.210 HD
ENDBRANCH  10  25
BRANCH   9  27
ATOM     27  O   UNL     1       5.710  -4.308  20.992  0.00  0.00    -0.386 OA
ATOM     28  H   UNL     1       5.630  -3.591  20.337  0.00  0.00    +0.210 HD
ENDBRANCH   9  27
ENDBRANCH   7   8
ENDBRANCH   6   7
ENDBRANCH   4   6
ENDBRANCH   3   4
ENDBRANCH   2   3
ENDBRANCH   1   2
BRANCH   1  29
ATOM     29  C   UNL     1       9.969   2.057  22.703  0.00  0.00    +0.000 C 
BRANCH  29  30
ATOM     30  C   UNL     1       8.471   1.980  22.372  0.00  0.00    +0.000 C 
BRANCH  30  31
ATOM     31  C   UNL     1       7.725   3.316  22.345  0.00  0.00    +0.000 C 
BRANCH  31  32
ATOM     32  C   UNL     1       8.339   4.395  23.240  0.00  0.00    +0.000 C 
BRANCH  32  33
ATOM     33  C   UNL     1       7.712   4.580  24.690  0.00  0.00    +0.006 C 
BRANCH  33  37
ATOM     34  C   UNL     1       5.504   0.924  24.870  0.00  0.00    +0.014 C 
ATOM     35  C   UNL     1       6.344   1.431  26.150  0.00  0.00    -0.003 C 
ATOM     36  C   UNL     1       7.385   2.549  26.022  0.00  0.00    +0.124 C 
ATOM     37  C   UNL     1       6.706   3.444  25.052  0.00  0.00    +0.018 C 
ATOM     38  C   UNL     1       5.232   3.482  25.858  0.00  0.00    +0.010 C 
ATOM     39  C   UNL     1       5.304   2.151  26.985  0.00  0.00    +0.001 C 
ATOM     40  C   UNL     1       4.363   0.985  27.598  0.00  0.00    +0.000 C 
ATOM     41  C   UNL     1       3.837   1.282  29.044  0.00  0.00    +0.009 C 
ATOM     42  C   UNL     1       2.966   0.131  29.657  0.00  0.00    +0.036 C 
ATOM     43  C   UNL     1       3.234  -1.286  29.191  0.00  0.00    -0.040 A 
ATOM     44  C   UNL     1       4.276  -1.548  28.303  0.00  0.00    -0.041 A 
ATOM     45  C   UNL     1       4.514  -2.880  27.886  0.00  0.00    +0.008 A 
ATOM     46  C   UNL     1       3.735  -3.929  28.333  0.00  0.00    +0.046 A 
ATOM     47  C   UNL     1       2.701  -3.666  29.207  0.00  0.00    +0.117 A 
ATOM     48  C   UNL     1       2.446  -2.359  29.645  0.00  0.00    +0.049 A 
ATOM     49  C   UNL     1       5.179  -0.399  27.905  0.00  0.00    +0.023 C 
ATOM     50  C   UNL     1       6.240  -0.883  26.931  0.00  0.00    +0.009 C 
ATOM     51  C   UNL     1       7.144   0.252  26.633  0.00  0.00    +0.010 C 
BRANCH  36  52
ATOM     52  O   UNL     1       7.642   3.318  27.234  0.00  0.00    -0.391 OA
ATOM     53  H   UNL     1       8.573   3.635  27.251  0.00  0.00    +0.210 HD
ENDBRANCH  36  52
BRANCH  47  54
ATOM     54  O   UNL     1       1.960  -4.735  29.611  0.00  0.00    -0.507 OA
ATOM     55  H   UNL     1       2.468  -5.241  30.261  0.00  0.00    +0.292 HD
ENDBRANCH  47  54
ENDBRANCH  33  37
ENDBRANCH  32  33
ENDBRANCH  31  32
ENDBRANCH  30  31
ENDBRANCH  29  30
ENDBRANCH   1  29
TORSDOF 17
ENDMDL
MODEL 4
REMARK VINA RESULT:      -7.0      3.183      5.760
REMARK  Name = 
REMARK  18 active torsions:
REMARK  status: ('A' for Active; 'I' for Inactive)
REMARK    1  A    between atoms: C_1  and  C_2
REMARK    2  A    between atoms: C_13  and  O_14
REMARK    3  A    between atoms: C_21  and  C_23
REMARK    4  A    between atoms: C_23  and  C_24
REMARK    5  A    between atoms: C_24  and  C_25
REMARK    6  A    between atoms: C_25  and  C_26
REMARK    7  A    between atoms: C_26  and  C_27
REMARK    8  A    between atoms: C_27  and  C_28
REMARK    9  A    between atoms: C_28  and  C_29
REMARK   10  A    between atoms: C_29  and  C_30
REMARK   11  A    between atoms: C_30  and  C_31
REMARK   12  A    between atoms: C_31  and  O_33
REMARK   13  A    between atoms: O_33  and  C_34
REMARK   14  A    between atoms: C_34  and  C_35
REMARK   15  A    between atoms: C_38  and  N_46
REMARK   16  A    between atoms: C_40  and  O_42
REMARK   17  A    between atoms: C_43  and  O_45
REMARK   18  A    between atoms: C_56  and  O_58
REMARK                            x       y       z     vdW  Elec       q    Type
REMARK                         _______ _______ _______ _____ _____    ______ ____
ROOT
ATOM      1  C   UNL     1       2.043  -5.223  26.698  0.00  0.00    +0.001 C 
ENDROOT
BRANCH   1   2
ATOM      2  C   UNL     1       3.541  -5.127  26.993  0.00  0.00    +0.011 C 
BRANCH   2   3
ATOM      3  C   UNL     1       4.373  -6.247  26.361  0.00  0.00    +0.120 C 
BRANCH   3   4
ATOM      4  C   UNL     1       5.514  -5.685  25.549  0.00  0.00    +0.307 C 
ATOM      5  O   UNL     1       5.401  -5.046  24.511  0.00  0.00    -0.251 OA
BRANCH   4   6
ATOM      6  O   UNL     1       6.704  -6.047  26.109  0.00  0.00    -0.462 OA
BRANCH   6   7
ATOM      7  C   UNL     1       7.280  -5.090  27.012  0.00  0.00    +0.266 C 
BRANCH   7   8
ATOM      8  C   UNL     1       8.656  -4.578  26.572  0.00  0.00    +0.189 C 
ATOM      9  C   UNL     1       9.142  -5.067  25.212  0.00  0.00    +0.179 C 
ATOM     10  C   UNL     1       8.863  -3.922  24.242  0.00  0.00    +0.195 C 
ATOM     11  C   UNL     1       8.370  -2.775  25.133  0.00  0.00    +0.253 C 
ATOM     12  O   UNL     1       8.656  -3.138  26.496  0.00  0.00    -0.345 OA
BRANCH  11  13
ATOM     13  N   UNL     1       8.993  -1.496  24.834  0.00  0.00    -0.286 N 
ATOM     14  C   UNL     1       9.178  -0.980  23.585  0.00  0.00    +0.167 A 
ATOM     15  N   UNL     1       8.903  -1.560  22.403  0.00  0.00    -0.216 NA
ATOM     16  C   UNL     1       9.215  -0.732  21.383  0.00  0.00    +0.225 A 
ATOM     17  N   UNL     1       9.732   0.516  21.442  0.00  0.00    -0.219 NA
ATOM     18  C   UNL     1       9.974   1.057  22.656  0.00  0.00    +0.147 A 
ATOM     19  N   UNL     1      10.486   2.348  22.717  0.00  0.00    -0.341 N 
ATOM     20  H   UNL     1      10.935   2.570  23.599  0.00  0.00    +0.144 HD
ATOM     21  H   UNL     1      10.950   2.628  21.865  0.00  0.00    +0.144 HD
ATOM     22  C   UNL     1       9.709   0.286  23.797  0.00  0.00    +0.147 A 
ATOM     23  N   UNL     1       9.879   0.531  25.138  0.00  0.00    -0.231 NA
ATOM     24  C   UNL     1       9.416  -0.557  25.739  0.00  0.00    +0.203 A 
ENDBRANCH  11  13
BRANCH  10  25
ATOM     25  O   UNL     1       7.870  -4.288  23.277  0.00  0.00    -0.385 OA
ATOM     26  H   UNL     1       7.631  -3.464  22.805  0.00  0.00    +0.210 HD
ENDBRANCH  10  25
BRANCH   9  27
ATOM     27  O   UNL     1      10.565  -5.285  25.274  0.00  0.00    -0.386 OA
ATOM     28  H   UNL     1      11.019  -4.540  24.840  0.00  0.00    +0.210 HD
ENDBRANCH   9  27
ENDBRANCH   7   8
ENDBRANCH   6   7
ENDBRANCH   4   6
ENDBRANCH   3   4
ENDBRANCH   2   3
ENDBRANCH   1   2
BRANCH   1  29
ATOM     29  C   UNL     1       1.203  -4.083  27.284  0.00  0.00    +0.000 C 
BRANCH  29  30
ATOM     30  C   UNL     1       1.302  -3.909  28.807  0.00  0.00    +0.000 C 
BRANCH  30  31
ATOM     31  C   UNL     1       1.261  -2.466  29.317  0.00  0.00    +0.000 C 
BRANCH  31  32
ATOM     32  C   UNL     1       2.531  -2.023  30.047  0.00  0.00    +0.000 C 
BRANCH  32  33
ATOM     33  C   UNL     1       3.895  -2.076  29.231  0.00  0.00    +0.006 C 
BRANCH  33  37
ATOM     34  C   UNL     1       4.311   1.817  27.515  0.00  0.00    +0.014 C 
ATOM     35  C   UNL     1       5.468   0.711  27.315  0.00  0.00    -0.003 C 
ATOM     36  C   UNL     1       5.502  -0.563  28.165  0.00  0.00    +0.124 C 
ATOM     37  C   UNL     1       4.052  -0.869  28.255  0.00  0.00    +0.018 C 
ATOM     38  C   UNL     1       3.744  -0.723  26.610  0.00  0.00    +0.010 C 
ATOM     39  C   UNL     1       5.139   0.105  25.965  0.00  0.00    +0.001 C 
ATOM     40  C   UNL     1       5.521   1.242  24.878  0.00  0.00    +0.000 C 
ATOM     41  C   UNL     1       6.095   0.675  23.535  0.00  0.00    +0.009 C 
ATOM     42  C   UNL     1       6.511   1.778  22.500  0.00  0.00    +0.036 C 
ATOM     43  C   UNL     1       6.949   3.125  23.038  0.00  0.00    -0.040 A 
ATOM     44  C   UNL     1       7.047   3.334  24.413  0.00  0.00    -0.041 A 
ATOM     45  C   UNL     1       7.466   4.598  24.895  0.00  0.00    +0.008 A 
ATOM     46  C   UNL     1       7.776   5.634  24.036  0.00  0.00    +0.046 A 
ATOM     47  C   UNL     1       7.673   5.426  22.676  0.00  0.00    +0.117 A 
ATOM     48  C   UNL     1       7.270   4.183  22.168  0.00  0.00    +0.049 A 
ATOM     49  C   UNL     1       6.799   2.157  25.332  0.00  0.00    +0.023 C 
ATOM     50  C   UNL     1       6.943   2.588  26.783  0.00  0.00    +0.009 C 
ATOM     51  C   UNL     1       6.771   1.391  27.638  0.00  0.00    +0.010 C 
BRANCH  36  52
ATOM     52  O   UNL     1       6.163  -1.713  27.558  0.00  0.00    -0.391 OA
ATOM     53  H   UNL     1       7.084  -1.797  27.892  0.00  0.00    +0.210 HD
ENDBRANCH  36  52
BRANCH  47  54
ATOM     54  O   UNL     1       7.984   6.483  21.874  0.00  0.00    -0.507 OA
ATOM     55  H   UNL     1       7.687   6.290  20.974  0.00  0.00    +0.292 HD
ENDBRANCH  47  54
ENDBRANCH  33  37
ENDBRANCH  32  33
ENDBRANCH  31  32
ENDBRANCH  30  31
ENDBRANCH  29  30
ENDBRANCH   1  29
TORSDOF 17
ENDMDL
MODEL 5
REMARK VINA RESULT:      -7.0      3.182      5.801
REMARK  Name = 
REMARK  18 active torsions:
REMARK  status: ('A' for Active; 'I' for Inactive)
REMARK    1  A    between atoms: C_1  and  C_2
REMARK    2  A    between atoms: C_13  and  O_14
REMARK    3  A    between atoms: C_21  and  C_23
REMARK    4  A    between atoms: C_23  and  C_24
REMARK    5  A    between atoms: C_24  and  C_25
REMARK    6  A    between atoms: C_25  and  C_26
REMARK    7  A    between atoms: C_26  and  C_27
REMARK    8  A    between atoms: C_27  and  C_28
REMARK    9  A    between atoms: C_28  and  C_29
REMARK   10  A    between atoms: C_29  and  C_30
REMARK   11  A    between atoms: C_30  and  C_31
REMARK   12  A    between atoms: C_31  and  O_33
REMARK   13  A    between atoms: O_33  and  C_34
REMARK   14  A    between atoms: C_34  and  C_35
REMARK   15  A    between atoms: C_38  and  N_46
REMARK   16  A    between atoms: C_40  and  O_42
REMARK   17  A    between atoms: C_43  and  O_45
REMARK   18  A    between atoms: C_56  and  O_58
REMARK                            x       y       z     vdW  Elec       q    Type
REMARK                         _______ _______ _______ _____ _____    ______ ____
ROOT
ATOM      1  C   UNL     1       0.879  -5.726  25.846  0.00  0.00    +0.001 C 
ENDROOT
BRANCH   1   2
ATOM      2  C   UNL     1       1.647  -6.606  24.858  0.00  0.00    +0.011 C 
BRANCH   2   3
ATOM      3  C   UNL     1       2.608  -5.830  23.951  0.00  0.00    +0.120 C 
BRANCH   3   4
ATOM      4  C   UNL     1       4.008  -6.386  24.040  0.00  0.00    +0.307 C 
ATOM      5  O   UNL     1       4.303  -7.510  24.427  0.00  0.00    -0.251 OA
BRANCH   4   6
ATOM      6  O   UNL     1       4.911  -5.428  23.682  0.00  0.00    -0.462 OA
BRANCH   6   7
ATOM      7  C   UNL     1       6.267  -5.673  24.087  0.00  0.00    +0.266 C 
BRANCH   7   8
ATOM      8  C   UNL     1       6.750  -4.753  25.212  0.00  0.00    +0.189 C 
ATOM      9  C   UNL     1       7.944  -5.258  26.015  0.00  0.00    +0.179 C 
ATOM     10  C   UNL     1       9.158  -4.524  25.452  0.00  0.00    +0.195 C 
ATOM     11  C   UNL     1       8.569  -3.519  24.453  0.00  0.00    +0.253 C 
ATOM     12  O   UNL     1       7.148  -3.474  24.679  0.00  0.00    -0.345 OA
BRANCH  11  13
ATOM     13  N   UNL     1       9.121  -2.181  24.581  0.00  0.00    -0.286 N 
ATOM     14  C   UNL     1       9.415  -1.344  23.544  0.00  0.00    +0.167 A 
ATOM     15  N   UNL     1       9.333  -1.603  22.227  0.00  0.00    -0.216 NA
ATOM     16  C   UNL     1       9.700  -0.521  21.507  0.00  0.00    +0.225 A 
ATOM     17  N   UNL     1      10.105   0.688  21.955  0.00  0.00    -0.219 NA
ATOM     18  C   UNL     1      10.155   0.899  23.288  0.00  0.00    +0.147 A 
ATOM     19  N   UNL     1      10.552   2.149  23.748  0.00  0.00    -0.341 N 
ATOM     20  H   UNL     1      10.872   2.149  24.711  0.00  0.00    +0.144 HD
ATOM     21  H   UNL     1      11.093   2.665  23.070  0.00  0.00    +0.144 HD
ATOM     22  C   UNL     1       9.815  -0.157  24.145  0.00  0.00    +0.147 A 
ATOM     23  N   UNL     1       9.801  -0.269  25.514  0.00  0.00    -0.231 NA
ATOM     24  C   UNL     1       9.355  -1.497  25.747  0.00  0.00    +0.203 A 
ENDBRANCH  11  13
BRANCH  10  25
ATOM     25  O   UNL     1      10.057  -5.429  24.801  0.00  0.00    -0.385 OA
ATOM     26  H   UNL     1      10.262  -5.033  23.930  0.00  0.00    +0.210 HD
ENDBRANCH  10  25
BRANCH   9  27
ATOM     27  O   UNL     1       7.773  -4.880  27.396  0.00  0.00    -0.386 OA
ATOM     28  H   UNL     1       8.481  -4.258  27.643  0.00  0.00    +0.210 HD
ENDBRANCH   9  27
ENDBRANCH   7   8
ENDBRANCH   6   7
ENDBRANCH   4   6
ENDBRANCH   3   4
ENDBRANCH   2   3
ENDBRANCH   1   2
BRANCH   1  29
ATOM     29  C   UNL     1       1.675  -4.537  26.395  0.00  0.00    +0.000 C 
BRANCH  29  30
ATOM     30  C   UNL     1       2.444  -4.805  27.697  0.00  0.00    +0.000 C 
BRANCH  30  31
ATOM     31  C   UNL     1       3.970  -4.815  27.579  0.00  0.00    +0.000 C 
BRANCH  31  32
ATOM     32  C   UNL     1       4.676  -3.798  28.480  0.00  0.00    +0.000 C 
BRANCH  32  33
ATOM     33  C   UNL     1       3.871  -2.479  28.855  0.00  0.00    +0.006 C 
BRANCH  33  37
ATOM     34  C   UNL     1       6.520   0.389  27.114  0.00  0.00    +0.014 C 
ATOM     35  C   UNL     1       5.219  -0.114  26.304  0.00  0.00    -0.003 C 
ATOM     36  C   UNL     1       4.437  -1.353  26.753  0.00  0.00    +0.124 C 
ATOM     37  C   UNL     1       4.502  -1.197  28.228  0.00  0.00    +0.018 C 
ATOM     38  C   UNL     1       4.011   0.409  28.252  0.00  0.00    +0.010 C 
ATOM     39  C   UNL     1       4.188   0.957  26.605  0.00  0.00    +0.001 C 
ATOM     40  C   UNL     1       4.665   2.258  25.768  0.00  0.00    +0.000 C 
ATOM     41  C   UNL     1       3.486   3.121  25.202  0.00  0.00    +0.009 C 
ATOM     42  C   UNL     1       3.946   4.354  24.350  0.00  0.00    +0.036 C 
ATOM     43  C   UNL     1       5.273   4.259  23.624  0.00  0.00    -0.040 A 
ATOM     44  C   UNL     1       6.010   3.076  23.661  0.00  0.00    -0.041 A 
ATOM     45  C   UNL     1       7.243   3.005  22.969  0.00  0.00    +0.008 A 
ATOM     46  C   UNL     1       7.740   4.082  22.261  0.00  0.00    +0.046 A 
ATOM     47  C   UNL     1       7.011   5.253  22.231  0.00  0.00    +0.117 A 
ATOM     48  C   UNL     1       5.782   5.351  22.899  0.00  0.00    +0.049 A 
ATOM     49  C   UNL     1       5.400   1.878  24.357  0.00  0.00    +0.023 C 
ATOM     50  C   UNL     1       6.355   0.697  24.297  0.00  0.00    +0.009 C 
ATOM     51  C   UNL     1       5.687  -0.469  24.919  0.00  0.00    +0.010 C 
BRANCH  36  52
ATOM     52  O   UNL     1       3.030  -1.387  26.371  0.00  0.00    -0.391 OA
ATOM     53  H   UNL     1       2.667  -2.296  26.472  0.00  0.00    +0.210 HD
ENDBRANCH  36  52
BRANCH  47  54
ATOM     54  O   UNL     1       7.550   6.286  21.525  0.00  0.00    -0.507 OA
ATOM     55  H   UNL     1       8.498   6.333  21.714  0.00  0.00    +0.292 HD
ENDBRANCH  47  54
ENDBRANCH  33  37
ENDBRANCH  32  33
ENDBRANCH  31  32
ENDBRANCH  30  31
ENDBRANCH  29  30
ENDBRANCH   1  29
TORSDOF 17
ENDMDL
MODEL 6
REMARK VINA RESULT:      -6.9      2.441      8.013
REMARK  Name = 
REMARK  18 active torsions:
REMARK  status: ('A' for Active; 'I' for Inactive)
REMARK    1  A    between atoms: C_1  and  C_2
REMARK    2  A    between atoms: C_13  and  O_14
REMARK    3  A    between atoms: C_21  and  C_23
REMARK    4  A    between atoms: C_23  and  C_24
REMARK    5  A    between atoms: C_24  and  C_25
REMARK    6  A    between atoms: C_25  and  C_26
REMARK    7  A    between atoms: C_26  and  C_27
REMARK    8  A    between atoms: C_27  and  C_28
REMARK    9  A    between atoms: C_28  and  C_29
REMARK   10  A    between atoms: C_29  and  C_30
REMARK   11  A    between atoms: C_30  and  C_31
REMARK   12  A    between atoms: C_31  and  O_33
REMARK   13  A    between atoms: O_33  and  C_34
REMARK   14  A    between atoms: C_34  and  C_35
REMARK   15  A    between atoms: C_38  and  N_46
REMARK   16  A    between atoms: C_40  and  O_42
REMARK   17  A    between atoms: C_43  and  O_45
REMARK   18  A    between atoms: C_56  and  O_58
REMARK                            x       y       z     vdW  Elec       q    Type
REMARK                         _______ _______ _______ _____ _____    ______ ____
ROOT
ATOM      1  C   UNL     1       7.364   5.286  23.716  0.00  0.00    +0.001 C 
ENDROOT
BRANCH   1   2
ATOM      2  C   UNL     1       6.689   4.564  22.548  0.00  0.00    +0.011 C 
BRANCH   2   3
ATOM      3  C   UNL     1       6.210   3.149  22.884  0.00  0.00    +0.120 C 
BRANCH   3   4
ATOM      4  C   UNL     1       4.822   3.170  23.478  0.00  0.00    +0.307 C 
ATOM      5  O   UNL     1       4.052   4.121  23.450  0.00  0.00    -0.251 OA
BRANCH   4   6
ATOM      6  O   UNL     1       4.570   1.988  24.110  0.00  0.00    -0.462 OA
BRANCH   6   7
ATOM      7  C   UNL     1       4.815   1.978  25.526  0.00  0.00    +0.266 C 
BRANCH   7   8
ATOM      8  C   UNL     1       5.484   0.694  26.028  0.00  0.00    +0.189 C 
ATOM      9  C   UNL     1       5.968   0.721  27.474  0.00  0.00    +0.179 C 
ATOM     10  C   UNL     1       4.897  -0.013  28.277  0.00  0.00    +0.195 C 
ATOM     11  C   UNL     1       3.927  -0.554  27.220  0.00  0.00    +0.253 C 
ATOM     12  O   UNL     1       4.569  -0.416  25.939  0.00  0.00    -0.345 OA
BRANCH  11  13
ATOM     13  N   UNL     1       3.559  -1.945  27.427  0.00  0.00    -0.286 N 
ATOM     14  C   UNL     1       2.520  -2.587  26.817  0.00  0.00    +0.167 A 
ATOM     15  N   UNL     1       1.602  -2.065  25.985  0.00  0.00    -0.216 NA
ATOM     16  C   UNL     1       0.735  -3.017  25.577  0.00  0.00    +0.225 A 
ATOM     17  N   UNL     1       0.714  -4.329  25.903  0.00  0.00    -0.219 NA
ATOM     18  C   UNL     1       1.669  -4.804  26.731  0.00  0.00    +0.147 A 
ATOM     19  N   UNL     1       1.658  -6.157  27.050  0.00  0.00    -0.341 N 
ATOM     20  H   UNL     1       2.174  -6.383  27.893  0.00  0.00    +0.144 HD
ATOM     21  H   UNL     1       0.754  -6.586  26.919  0.00  0.00    +0.144 HD
ATOM     22  C   UNL     1       2.619  -3.907  27.240  0.00  0.00    +0.147 A 
ATOM     23  N   UNL     1       3.668  -4.068  28.113  0.00  0.00    -0.231 NA
ATOM     24  C   UNL     1       4.230  -2.869  28.187  0.00  0.00    +0.203 A 
ENDBRANCH  11  13
BRANCH  10  25
ATOM     25  O   UNL     1       4.229   0.873  29.183  0.00  0.00    -0.385 OA
ATOM     26  H   UNL     1       3.325   0.997  28.828  0.00  0.00    +0.210 HD
ENDBRANCH  10  25
BRANCH   9  27
ATOM     27  O   UNL     1       7.203  -0.016  27.567  0.00  0.00    -0.386 OA
ATOM     28  H   UNL     1       7.003  -0.942  27.793  0.00  0.00    +0.210 HD
ENDBRANCH   9  27
ENDBRANCH   7   8
ENDBRANCH   6   7
ENDBRANCH   4   6
ENDBRANCH   3   4
ENDBRANCH   2   3
ENDBRANCH   1   2
BRANCH   1  29
ATOM     29  C   UNL     1       8.655   6.026  23.348  0.00  0.00    +0.000 C 
BRANCH  29  30
ATOM     30  C   UNL     1       9.957   5.309  23.735  0.00  0.00    +0.000 C 
BRANCH  30  31
ATOM     31  C   UNL     1       9.818   3.831  24.108  0.00  0.00    +0.000 C 
BRANCH  31  32
ATOM     32  C   UNL     1      10.797   2.906  23.382  0.00  0.00    +0.000 C 
BRANCH  32  33
ATOM     33  C   UNL     1      10.193   1.931  22.280  0.00  0.00    +0.006 C 
BRANCH  33  37
ATOM     34  C   UNL     1       6.790  -0.580  22.906  0.00  0.00    +0.014 C 
ATOM     35  C   UNL     1       8.276  -1.207  22.913  0.00  0.00    -0.003 C 
ATOM     36  C   UNL     1       9.474  -0.410  22.385  0.00  0.00    +0.124 C 
ATOM     37  C   UNL     1       9.132   0.950  22.870  0.00  0.00    +0.018 C 
ATOM     38  C   UNL     1       8.804   0.490  24.452  0.00  0.00    +0.010 C 
ATOM     39  C   UNL     1       8.629  -1.245  24.387  0.00  0.00    +0.001 C 
ATOM     40  C   UNL     1       7.724  -2.431  25.015  0.00  0.00    +0.000 C 
ATOM     41  C   UNL     1       8.429  -3.236  26.160  0.00  0.00    +0.009 C 
ATOM     42  C   UNL     1       7.572  -4.416  26.735  0.00  0.00    +0.036 C 
ATOM     43  C   UNL     1       6.564  -5.075  25.815  0.00  0.00    -0.040 A 
ATOM     44  C   UNL     1       6.472  -4.682  24.480  0.00  0.00    -0.041 A 
ATOM     45  C   UNL     1       5.529  -5.316  23.634  0.00  0.00    +0.008 A 
ATOM     46  C   UNL     1       4.693  -6.312  24.100  0.00  0.00    +0.046 A 
ATOM     47  C   UNL     1       4.783  -6.694  25.422  0.00  0.00    +0.117 A 
ATOM     48  C   UNL     1       5.713  -6.092  26.282  0.00  0.00    +0.049 A 
ATOM     49  C   UNL     1       7.464  -3.661  23.967  0.00  0.00    +0.023 C 
ATOM     50  C   UNL     1       7.193  -3.360  22.502  0.00  0.00    +0.009 C 
ATOM     51  C   UNL     1       8.234  -2.420  22.024  0.00  0.00    +0.010 C 
BRANCH  36  52
ATOM     52  O   UNL     1      10.772  -0.770  22.945  0.00  0.00    -0.391 OA
ATOM     53  H   UNL     1      10.922  -1.740  22.873  0.00  0.00    +0.210 HD
ENDBRANCH  36  52
BRANCH  47  54
ATOM     54  O   UNL     1       3.931  -7.675  25.831  0.00  0.00    -0.507 OA
ATOM     55  H   UNL     1       3.689  -7.515  26.754  0.00  0.00    +0.292 HD
ENDBRANCH  47  54
ENDBRANCH  33  37
ENDBRANCH  32  33
ENDBRANCH  31  32
ENDBRANCH  30  31
ENDBRANCH  29  30
ENDBRANCH   1  29
TORSDOF 17
ENDMDL
MODEL 7
REMARK VINA RESULT:      -6.9      2.105      6.303
REMARK  Name = 
REMARK  18 active torsions:
REMARK  status: ('A' for Active; 'I' for Inactive)
REMARK    1  A    between atoms: C_1  and  C_2
REMARK    2  A    between atoms: C_13  and  O_14
REMARK    3  A    between atoms: C_21  and  C_23
REMARK    4  A    between atoms: C_23  and  C_24
REMARK    5  A    between atoms: C_24  and  C_25
REMARK    6  A    between atoms: C_25  and  C_26
REMARK    7  A    between atoms: C_26  and  C_27
REMARK    8  A    between atoms: C_27  and  C_28
REMARK    9  A    between atoms: C_28  and  C_29
REMARK   10  A    between atoms: C_29  and  C_30
REMARK   11  A    between atoms: C_30  and  C_31
REMARK   12  A    between atoms: C_31  and  O_33
REMARK   13  A    between atoms: O_33  and  C_34
REMARK   14  A    between atoms: C_34  and  C_35
REMARK   15  A    between atoms: C_38  and  N_46
REMARK   16  A    between atoms: C_40  and  O_42
REMARK   17  A    between atoms: C_43  and  O_45
REMARK   18  A    between atoms: C_56  and  O_58
REMARK                            x       y       z     vdW  Elec       q    Type
REMARK                         _______ _______ _______ _____ _____    ______ ____
ROOT
ATOM      1  C   UNL     1       8.777   3.621  23.384  0.00  0.00    +0.001 C 
ENDROOT
BRANCH   1   2
ATOM      2  C   UNL     1       9.258   2.168  23.381  0.00  0.00    +0.011 C 
BRANCH   2   3
ATOM      3  C   UNL     1       9.882   1.723  22.055  0.00  0.00    +0.120 C 
BRANCH   3   4
ATOM      4  C   UNL     1       9.863   0.219  21.923  0.00  0.00    +0.307 C 
ATOM      5  O   UNL     1       9.303  -0.409  21.034  0.00  0.00    -0.251 OA
BRANCH   4   6
ATOM      6  O   UNL     1      10.514  -0.347  22.980  0.00  0.00    -0.462 OA
BRANCH   6   7
ATOM      7  C   UNL     1      10.614  -1.780  22.950  0.00  0.00    +0.266 C 
BRANCH   7   8
ATOM      8  C   UNL     1       9.681  -2.484  23.940  0.00  0.00    +0.189 C 
ATOM      9  C   UNL     1       8.603  -1.610  24.572  0.00  0.00    +0.179 C 
ATOM     10  C   UNL     1       7.325  -1.906  23.792  0.00  0.00    +0.195 C 
ATOM     11  C   UNL     1       7.709  -3.054  22.849  0.00  0.00    +0.253 C 
ATOM     12  O   UNL     1       8.981  -3.564  23.290  0.00  0.00    -0.345 OA
BRANCH  11  13
ATOM     13  N   UNL     1       6.738  -4.136  22.825  0.00  0.00    -0.286 N 
ATOM     14  C   UNL     1       6.324  -4.851  23.910  0.00  0.00    +0.167 A 
ATOM     15  N   UNL     1       6.770  -4.763  25.176  0.00  0.00    -0.216 NA
ATOM     16  C   UNL     1       6.110  -5.629  25.974  0.00  0.00    +0.225 A 
ATOM     17  N   UNL     1       5.129  -6.498  25.640  0.00  0.00    -0.219 NA
ATOM     18  C   UNL     1       4.709  -6.535  24.357  0.00  0.00    +0.147 A 
ATOM     19  N   UNL     1       3.686  -7.415  24.019  0.00  0.00    -0.341 N 
ATOM     20  H   UNL     1       3.639  -7.626  23.028  0.00  0.00    +0.144 HD
ATOM     21  H   UNL     1       3.592  -8.179  24.672  0.00  0.00    +0.144 HD
ATOM     22  C   UNL     1       5.332  -5.694  23.425  0.00  0.00    +0.147 A 
ATOM     23  N   UNL     1       5.162  -5.527  22.072  0.00  0.00    -0.231 NA
ATOM     24  C   UNL     1       6.011  -4.562  21.743  0.00  0.00    +0.203 A 
ENDBRANCH  11  13
BRANCH  10  25
ATOM     25  O   UNL     1       6.888  -0.759  23.056  0.00  0.00    -0.385 OA
ATOM     26  H   UNL     1       7.007   0.009  23.650  0.00  0.00    +0.210 HD
ENDBRANCH  10  25
BRANCH   9  27
ATOM     27  O   UNL     1       8.415  -2.016  25.942  0.00  0.00    -0.386 OA
ATOM     28  H   UNL     1       9.089  -1.583  26.496  0.00  0.00    +0.210 HD
ENDBRANCH   9  27
ENDBRANCH   7   8
ENDBRANCH   6   7
ENDBRANCH   4   6
ENDBRANCH   3   4
ENDBRANCH   2   3
ENDBRANCH   1   2
BRANCH   1  29
ATOM     29  C   UNL     1       9.736   4.609  24.057  0.00  0.00    +0.000 C 
BRANCH  29  30
ATOM     30  C   UNL     1       9.592   6.072  23.610  0.00  0.00    +0.000 C 
BRANCH  30  31
ATOM     31  C   UNL     1       9.424   7.098  24.733  0.00  0.00    +0.000 C 
BRANCH  31  32
ATOM     32  C   UNL     1       8.990   6.497  26.072  0.00  0.00    +0.000 C 
BRANCH  32  33
ATOM     33  C   UNL     1       7.497   6.774  26.542  0.00  0.00    +0.006 C 
BRANCH  33  37
ATOM     34  C   UNL     1       5.585   3.282  24.985  0.00  0.00    +0.014 C 
ATOM     35  C   UNL     1       6.281   3.249  26.439  0.00  0.00    -0.003 C 
ATOM     36  C   UNL     1       7.234   4.362  26.887  0.00  0.00    +0.124 C 
ATOM     37  C   UNL     1       6.560   5.549  26.303  0.00  0.00    +0.018 C 
ATOM     38  C   UNL     1       5.032   5.187  26.897  0.00  0.00    +0.010 C 
ATOM     39  C   UNL     1       5.125   3.513  27.383  0.00  0.00    +0.001 C 
ATOM     40  C   UNL     1       4.238   2.159  27.366  0.00  0.00    +0.000 C 
ATOM     41  C   UNL     1       3.581   1.808  28.745  0.00  0.00    +0.009 C 
ATOM     42  C   UNL     1       2.762   0.471  28.741  0.00  0.00    +0.036 C 
ATOM     43  C   UNL     1       3.178  -0.614  27.768  0.00  0.00    -0.040 A 
ATOM     44  C   UNL     1       4.303  -0.439  26.963  0.00  0.00    -0.041 A 
ATOM     45  C   UNL     1       4.679  -1.468  26.065  0.00  0.00    +0.008 A 
ATOM     46  C   UNL     1       3.956  -2.640  25.961  0.00  0.00    +0.046 A 
ATOM     47  C   UNL     1       2.841  -2.806  26.755  0.00  0.00    +0.117 A 
ATOM     48  C   UNL     1       2.448  -1.810  27.660  0.00  0.00    +0.049 A 
ATOM     49  C   UNL     1       5.137   0.808  27.163  0.00  0.00    +0.023 C 
ATOM     50  C   UNL     1       6.305   0.816  26.192  0.00  0.00    +0.009 C 
ATOM     51  C   UNL     1       7.135   2.010  26.478  0.00  0.00    +0.010 C 
BRANCH  36  52
ATOM     52  O   UNL     1       7.335   4.570  28.327  0.00  0.00    -0.391 OA
ATOM     53  H   UNL     1       6.812   5.358  28.599  0.00  0.00    +0.210 HD
ENDBRANCH  36  52
BRANCH  47  54
ATOM     54  O   UNL     1       2.160  -3.977  26.608  0.00  0.00    -0.507 OA
ATOM     55  H   UNL     1       2.210  -4.474  27.437  0.00  0.00    +0.292 HD
ENDBRANCH  47  54
ENDBRANCH  33  37
ENDBRANCH  32  33
ENDBRANCH  31  32
ENDBRANCH  30  31
ENDBRANCH  29  30
ENDBRANCH   1  29
TORSDOF 17
ENDMDL
MODEL 8
REMARK VINA RESULT:      -6.9      3.039      5.555
REMARK  Name = 
REMARK  18 active torsions:
REMARK  status: ('A' for Active; 'I' for Inactive)
REMARK    1  A    between atoms: C_1  and  C_2
REMARK    2  A    between atoms: C_13  and  O_14
REMARK    3  A    between atoms: C_21  and  C_23
REMARK    4  A    between atoms: C_23  and  C_24
REMARK    5  A    between atoms: C_24  and  C_25
REMARK    6  A    between atoms: C_25  and  C_26
REMARK    7  A    between atoms: C_26  and  C_27
REMARK    8  A    between atoms: C_27  and  C_28
REMARK    9  A    between atoms: C_28  and  C_29
REMARK   10  A    between atoms: C_29  and  C_30
REMARK   11  A    between atoms: C_30  and  C_31
REMARK   12  A    between atoms: C_31  and  O_33
REMARK   13  A    between atoms: O_33  and  C_34
REMARK   14  A    between atoms: C_34  and  C_35
REMARK   15  A    between atoms: C_38  and  N_46
REMARK   16  A    between atoms: C_40  and  O_42
REMARK   17  A    between atoms: C_43  and  O_45
REMARK   18  A    between atoms: C_56  and  O_58
REMARK                            x       y       z     vdW  Elec       q    Type
REMARK                         _______ _______ _______ _____ _____    ______ ____
ROOT
ATOM      1  C   UNL     1       3.104  -5.198  28.210  0.00  0.00    +0.001 C 
ENDROOT
BRANCH   1   2
ATOM      2  C   UNL     1       4.043  -6.397  28.067  0.00  0.00    +0.011 C 
BRANCH   2   3
ATOM      3  C   UNL     1       4.343  -6.783  26.615  0.00  0.00    +0.120 C 
BRANCH   3   4
ATOM      4  C   UNL     1       5.371  -5.861  26.007  0.00  0.00    +0.307 C 
ATOM      5  O   UNL     1       5.222  -5.207  24.983  0.00  0.00    -0.251 OA
BRANCH   4   6
ATOM      6  O   UNL     1       6.524  -5.908  26.736  0.00  0.00    -0.462 OA
BRANCH   6   7
ATOM      7  C   UNL     1       7.090  -4.634  27.081  0.00  0.00    +0.266 C 
BRANCH   7   8
ATOM      8  C   UNL     1       8.460  -4.374  26.445  0.00  0.00    +0.189 C 
ATOM      9  C   UNL     1       8.846  -5.306  25.300  0.00  0.00    +0.179 C 
ATOM     10  C   UNL     1       8.562  -4.522  24.021  0.00  0.00    +0.195 C 
ATOM     11  C   UNL     1       8.170  -3.122  24.508  0.00  0.00    +0.253 C 
ATOM     12  O   UNL     1       8.517  -3.040  25.903  0.00  0.00    -0.345 OA
BRANCH  11  13
ATOM     13  N   UNL     1       8.830  -2.048  23.783  0.00  0.00    -0.286 N 
ATOM     14  C   UNL     1       8.203  -0.986  23.200  0.00  0.00    +0.167 A 
ATOM     15  N   UNL     1       6.881  -0.757  23.108  0.00  0.00    -0.216 NA
ATOM     16  C   UNL     1       6.644   0.407  22.466  0.00  0.00    +0.225 A 
ATOM     17  N   UNL     1       7.539   1.282  21.956  0.00  0.00    -0.219 NA
ATOM     18  C   UNL     1       8.855   1.010  22.090  0.00  0.00    +0.147 A 
ATOM     19  N   UNL     1       9.776   1.921  21.583  0.00  0.00    -0.341 N 
ATOM     20  H   UNL     1      10.698   1.528  21.427  0.00  0.00    +0.144 HD
ATOM     21  H   UNL     1       9.387   2.517  20.867  0.00  0.00    +0.144 HD
ATOM     22  C   UNL     1       9.231  -0.183  22.723  0.00  0.00    +0.147 A 
ATOM     23  N   UNL     1      10.457  -0.750  22.975  0.00  0.00    -0.231 NA
ATOM     24  C   UNL     1      10.181  -1.865  23.637  0.00  0.00    +0.203 A 
ENDBRANCH  11  13
BRANCH  10  25
ATOM     25  O   UNL     1       7.501  -5.122  23.269  0.00  0.00    -0.385 OA
ATOM     26  H   UNL     1       7.920  -5.791  22.691  0.00  0.00    +0.210 HD
ENDBRANCH  10  25
BRANCH   9  27
ATOM     27  O   UNL     1      10.260  -5.577  25.374  0.00  0.00    -0.386 OA
ATOM     28  H   UNL     1      10.675  -5.323  24.530  0.00  0.00    +0.210 HD
ENDBRANCH   9  27
ENDBRANCH   7   8
ENDBRANCH   6   7
ENDBRANCH   4   6
ENDBRANCH   3   4
ENDBRANCH   2   3
ENDBRANCH   1   2
BRANCH   1  29
ATOM     29  C   UNL     1       1.848  -5.468  29.045  0.00  0.00    +0.000 C 
BRANCH  29  30
ATOM     30  C   UNL     1       0.987  -4.233  29.356  0.00  0.00    +0.000 C 
BRANCH  30  31
ATOM     31  C   UNL     1       1.400  -2.940  28.649  0.00  0.00    +0.000 C 
BRANCH  31  32
ATOM     32  C   UNL     1       2.053  -1.904  29.568  0.00  0.00    +0.000 C 
BRANCH  32  33
ATOM     33  C   UNL     1       3.642  -1.899  29.643  0.00  0.00    +0.006 C 
BRANCH  33  37
ATOM     34  C   UNL     1       6.203   1.386  28.683  0.00  0.00    +0.014 C 
ATOM     35  C   UNL     1       5.737   0.355  27.534  0.00  0.00    -0.003 C 
ATOM     36  C   UNL     1       5.093  -0.990  27.890  0.00  0.00    +0.124 C 
ATOM     37  C   UNL     1       4.261  -0.594  29.054  0.00  0.00    +0.018 C 
ATOM     38  C   UNL     1       3.551   0.735  28.312  0.00  0.00    +0.010 C 
ATOM     39  C   UNL     1       4.542   1.048  26.909  0.00  0.00    +0.001 C 
ATOM     40  C   UNL     1       5.155   2.287  26.068  0.00  0.00    +0.000 C 
ATOM     41  C   UNL     1       4.385   2.602  24.740  0.00  0.00    +0.009 C 
ATOM     42  C   UNL     1       5.008   3.770  23.900  0.00  0.00    +0.036 C 
ATOM     43  C   UNL     1       6.498   4.017  24.023  0.00  0.00    -0.040 A 
ATOM     44  C   UNL     1       7.286   3.172  24.804  0.00  0.00    -0.041 A 
ATOM     45  C   UNL     1       8.678   3.415  24.900  0.00  0.00    +0.008 A 
ATOM     46  C   UNL     1       9.276   4.473  24.243  0.00  0.00    +0.046 A 
ATOM     47  C   UNL     1       8.493   5.309  23.476  0.00  0.00    +0.117 A 
ATOM     48  C   UNL     1       7.113   5.089  23.354  0.00  0.00    +0.049 A 
ATOM     49  C   UNL     1       6.628   1.963  25.434  0.00  0.00    +0.023 C 
ATOM     50  C   UNL     1       7.645   1.179  26.247  0.00  0.00    +0.009 C 
ATOM     51  C   UNL     1       6.978  -0.033  26.776  0.00  0.00    +0.010 C 
BRANCH  36  52
ATOM     52  O   UNL     1       4.206  -1.556  26.880  0.00  0.00    -0.391 OA
ATOM     53  H   UNL     1       4.203  -2.538  26.934  0.00  0.00    +0.210 HD
ENDBRANCH  36  52
BRANCH  47  54
ATOM     54  O   UNL     1       9.131   6.340  22.856  0.00  0.00    -0.507 OA
ATOM     55  H   UNL     1       9.337   7.021  23.512  0.00  0.00    +0.292 HD
ENDBRANCH  47  54
ENDBRANCH  33  37
ENDBRANCH  32  33
ENDBRANCH  31  32
ENDBRANCH  30  31
ENDBRANCH  29  30
ENDBRANCH   1  29
TORSDOF 17
ENDMDL
MODEL 9
REMARK VINA RESULT:      -6.6      3.962      7.949
REMARK  Name = 
REMARK  18 active torsions:
REMARK  status: ('A' for Active; 'I' for Inactive)
REMARK    1  A    between atoms: C_1  and  C_2
REMARK    2  A    between atoms: C_13  and  O_14
REMARK    3  A    between atoms: C_21  and  C_23
REMARK    4  A    between atoms: C_23  and  C_24
REMARK    5  A    between atoms: C_24  and  C_25
REMARK    6  A    between atoms: C_25  and  C_26
REMARK    7  A    between atoms: C_26  and  C_27
REMARK    8  A    between atoms: C_27  and  C_28
REMARK    9  A    between atoms: C_28  and  C_29
REMARK   10  A    between atoms: C_29  and  C_30
REMARK   11  A    between atoms: C_30  and  C_31
REMARK   12  A    between atoms: C_31  and  O_33
REMARK   13  A    between atoms: O_33  and  C_34
REMARK   14  A    between atoms: C_34  and  C_35
REMARK   15  A    between atoms: C_38  and  N_46
REMARK   16  A    between atoms: C_40  and  O_42
REMARK   17  A    between atoms: C_43  and  O_45
REMARK   18  A    between atoms: C_56  and  O_58
REMARK                            x       y       z     vdW  Elec       q    Type
REMARK                         _______ _______ _______ _____ _____    ______ ____
ROOT
ATOM      1  C   UNL     1       4.878  -5.242  22.721  0.00  0.00    +0.001 C 
ENDROOT
BRANCH   1   2
ATOM      2  C   UNL     1       5.977  -5.190  23.784  0.00  0.00    +0.011 C 
BRANCH   2   3
ATOM      3  C   UNL     1       7.391  -5.378  23.226  0.00  0.00    +0.120 C 
BRANCH   3   4
ATOM      4  C   UNL     1       8.425  -4.793  24.156  0.00  0.00    +0.307 C 
ATOM      5  O   UNL     1       9.405  -5.384  24.591  0.00  0.00    -0.251 OA
BRANCH   4   6
ATOM      6  O   UNL     1       8.075  -3.518  24.496  0.00  0.00    -0.462 OA
BRANCH   6   7
ATOM      7  C   UNL     1       9.156  -2.671  24.917  0.00  0.00    +0.266 C 
BRANCH   7   8
ATOM      8  C   UNL     1       9.754  -1.827  23.786  0.00  0.00    +0.189 C 
ATOM      9  C   UNL     1       8.892  -1.688  22.535  0.00  0.00    +0.179 C 
ATOM     10  C   UNL     1       8.225  -0.320  22.648  0.00  0.00    +0.195 C 
ATOM     11  C   UNL     1       8.863   0.317  23.888  0.00  0.00    +0.253 C 
ATOM     12  O   UNL     1      10.006  -0.483  24.242  0.00  0.00    -0.345 OA
BRANCH  11  13
ATOM     13  N   UNL     1       9.283   1.694  23.685  0.00  0.00    -0.286 N 
ATOM     14  C   UNL     1       8.449   2.771  23.602  0.00  0.00    +0.167 A 
ATOM     15  N   UNL     1       7.104   2.776  23.612  0.00  0.00    -0.216 NA
ATOM     16  C   UNL     1       6.633   4.038  23.521  0.00  0.00    +0.225 A 
ATOM     17  N   UNL     1       7.333   5.191  23.428  0.00  0.00    -0.219 NA
ATOM     18  C   UNL     1       8.682   5.129  23.437  0.00  0.00    +0.147 A 
ATOM     19  N   UNL     1       9.401   6.317  23.362  0.00  0.00    -0.341 N 
ATOM     20  H   UNL     1      10.361   6.197  23.057  0.00  0.00    +0.144 HD
ATOM     21  H   UNL     1       8.868   7.076  22.963  0.00  0.00    +0.144 HD
ATOM     22  C   UNL     1       9.294   3.870  23.509  0.00  0.00    +0.147 A 
ATOM     23  N   UNL     1      10.611   3.480  23.501  0.00  0.00    -0.231 NA
ATOM     24  C   UNL     1      10.572   2.161  23.631  0.00  0.00    +0.203 A 
ENDBRANCH  11  13
BRANCH  10  25
ATOM     25  O   UNL     1       6.807  -0.444  22.804  0.00  0.00    -0.385 OA
ATOM     26  H   UNL     1       6.452  -0.658  21.917  0.00  0.00    +0.210 HD
ENDBRANCH  10  25
BRANCH   9  27
ATOM     27  O   UNL     1       9.747  -1.693  21.375  0.00  0.00    -0.386 OA
ATOM     28  H   UNL     1      10.435  -2.373  21.492  0.00  0.00    +0.210 HD
ENDBRANCH   9  27
ENDBRANCH   7   8
ENDBRANCH   6   7
ENDBRANCH   4   6
ENDBRANCH   3   4
ENDBRANCH   2   3
ENDBRANCH   1   2
BRANCH   1  29
ATOM     29  C   UNL     1       3.707  -6.172  23.058  0.00  0.00    +0.000 C 
BRANCH  29  30
ATOM     30  C   UNL     1       3.941  -7.119  24.246  0.00  0.00    +0.000 C 
BRANCH  30  31
ATOM     31  C   UNL     1       2.680  -7.644  24.936  0.00  0.00    +0.000 C 
BRANCH  31  32
ATOM     32  C   UNL     1       1.376  -7.052  24.396  0.00  0.00    +0.000 C 
BRANCH  32  33
ATOM     33  C   UNL     1       0.643  -5.965  25.297  0.00  0.00    +0.006 C 
BRANCH  33  37
ATOM     34  C   UNL     1       4.143  -4.318  27.118  0.00  0.00    +0.014 C 
ATOM     35  C   UNL     1       3.160  -3.380  26.249  0.00  0.00    -0.003 C 
ATOM     36  C   UNL     1       2.091  -3.987  25.334  0.00  0.00    +0.124 C 
ATOM     37  C   UNL     1       1.644  -5.137  26.161  0.00  0.00    +0.018 C 
ATOM     38  C   UNL     1       1.426  -4.255  27.574  0.00  0.00    +0.010 C 
ATOM     39  C   UNL     1       2.264  -2.750  27.297  0.00  0.00    +0.001 C 
ATOM     40  C   UNL     1       3.201  -1.683  28.076  0.00  0.00    +0.000 C 
ATOM     41  C   UNL     1       2.449  -0.385  28.531  0.00  0.00    +0.009 C 
ATOM     42  C   UNL     1       3.366   0.669  29.242  0.00  0.00    +0.036 C 
ATOM     43  C   UNL     1       4.834   0.700  28.868  0.00  0.00    -0.040 A 
ATOM     44  C   UNL     1       5.320  -0.139  27.866  0.00  0.00    -0.041 A 
ATOM     45  C   UNL     1       6.695  -0.090  27.526  0.00  0.00    +0.008 A 
ATOM     46  C   UNL     1       7.569   0.766  28.167  0.00  0.00    +0.046 A 
ATOM     47  C   UNL     1       7.086   1.590  29.161  0.00  0.00    +0.117 A 
ATOM     48  C   UNL     1       5.729   1.571  29.514  0.00  0.00    +0.049 A 
ATOM     49  C   UNL     1       4.328  -0.996  27.109  0.00  0.00    +0.023 C 
ATOM     50  C   UNL     1       5.050  -1.840  26.072  0.00  0.00    +0.009 C 
ATOM     51  C   UNL     1       4.034  -2.599  25.306  0.00  0.00    +0.010 C 
BRANCH  36  52
ATOM     52  O   UNL     1       0.927  -3.147  25.074  0.00  0.00    -0.391 OA
ATOM     53  H   UNL     1       1.136  -2.470  24.392  0.00  0.00    +0.210 HD
ENDBRANCH  36  52
BRANCH  47  54
ATOM     54  O   UNL     1       7.992   2.409  29.765  0.00  0.00    -0.507 OA
ATOM     55  H   UNL     1       8.326   1.972  30.561  0.00  0.00    +0.292 HD
ENDBRANCH  47  54
ENDBRANCH  33  37
ENDBRANCH  32  33
ENDBRANCH  31  32
ENDBRANCH  30  31
ENDBRANCH  29  30
ENDBRANCH   1  29
TORSDOF 17
ENDMDL
