MODEL 1
REMARK VINA RESULT:      -4.4      0.000      0.000
REMARK  Name = 
REMARK  15 active torsions:
REMARK  status: ('A' for Active; 'I' for Inactive)
REMARK    1  A    between atoms: C_1  and  C_2
REMARK    2  A    between atoms: C_2  and  C_3
REMARK    3  A    between atoms: C_3  and  C_4
REMARK    4  A    between atoms: C_4  and  C_5
REMARK    5  A    between atoms: C_5  and  C_6
REMARK    6  A    between atoms: C_6  and  C_7
REMARK    7  A    between atoms: C_7  and  C_8
REMARK    8  A    between atoms: C_8  and  C_9
REMARK    9  A    between atoms: C_9  and  C_10
REMARK   10  A    between atoms: C_10  and  C_11
REMARK   11  A    between atoms: C_11  and  C_12
REMARK   12  A    between atoms: C_12  and  C_13
REMARK   13  A    between atoms: C_13  and  C_15
REMARK   14  A    between atoms: C_15  and  C_16
REMARK   15  A    between atoms: C_16  and  O_17
REMARK                            x       y       z     vdW  Elec       q    Type
REMARK                         _______ _______ _______ _____ _____    ______ ____
ROOT
ATOM      1  C   UNL     1       9.688  -1.821  23.231  0.00  0.00    +0.000 C 
ENDROOT
BRANCH   1   2
ATOM      2  C   UNL     1       8.983  -1.473  24.539  0.00  0.00    +0.000 C 
BRANCH   2   3
ATOM      3  C   UNL     1       9.591  -0.237  25.186  0.00  0.00    +0.000 C 
BRANCH   3   4
ATOM      4  C   UNL     1      10.659   0.370  24.280  0.00  0.00    +0.000 C 
BRANCH   4   5
ATOM      5  C   UNL     1      10.252   1.769  23.832  0.00  0.00    -0.000 C 
BRANCH   5   6
ATOM      6  C   UNL     1      10.361   1.908  22.317  0.00  0.00    -0.000 C 
BRANCH   6   7
ATOM      7  C   UNL     1       9.058   1.490  21.642  0.00  0.00    -0.000 C 
BRANCH   7   8
ATOM      8  C   UNL     1       7.902   2.378  22.091  0.00  0.00    -0.000 C 
BRANCH   8  10
ATOM      9  C   UNL     1       6.504   1.407  23.939  0.00  0.00    +0.004 C 
ATOM     10  C   UNL     1       6.670   1.544  22.436  0.00  0.00    -0.003 C 
ENDBRANCH   8  10
ENDBRANCH   7   8
ENDBRANCH   6   7
ENDBRANCH   5   6
ENDBRANCH   4   5
ENDBRANCH   3   4
ENDBRANCH   2   3
ENDBRANCH   1   2
BRANCH   1  11
ATOM     11  C   UNL     1       8.651  -2.040  22.136  0.00  0.00    +0.007 C 
BRANCH  11  12
ATOM     12  C   UNL     1       7.229  -2.088  22.682  0.00  0.00    +0.075 C 
BRANCH  12  13
ATOM     13  C   UNL     1       6.544  -3.378  22.268  0.00  0.00    +0.144 C 
ATOM     14  O   UNL     1       5.401  -3.397  21.804  0.00  0.00    -0.297 OA
BRANCH  13  15
ATOM     15  C   UNL     1       7.327  -4.645  22.449  0.00  0.00    +0.194 C 
BRANCH  15  16
ATOM     16  C   UNL     1       7.720  -5.020  23.854  0.00  0.00    +0.312 C 
ATOM     17  O   UNL     1       8.870  -5.344  24.127  0.00  0.00    -0.251 OA
BRANCH  16  18
ATOM     18  O   UNL     1       6.761  -4.986  24.797  0.00  0.00    -0.480 OA
ATOM     19  H   UNL     1       5.868  -5.273  24.484  0.00  0.00    +0.295 HD
ENDBRANCH  16  18
ENDBRANCH  15  16
ENDBRANCH  13  15
ENDBRANCH  12  13
ENDBRANCH  11  12
ENDBRANCH   1  11
TORSDOF 14
ENDMDL
MODEL 2
REMARK VINA RESULT:      -4.4      1.583      2.901
REMARK  Name = 
REMARK  15 active torsions:
REMARK  status: ('A' for Active; 'I' for Inactive)
REMARK    1  A    between atoms: C_1  and  C_2
REMARK    2  A    between atoms: C_2  and  C_3
REMARK    3  A    between atoms: C_3  and  C_4
REMARK    4  A    between atoms: C_4  and  C_5
REMARK    5  A    between atoms: C_5  and  C_6
REMARK    6  A    between atoms: C_6  and  C_7
REMARK    7  A    between atoms: C_7  and  C_8
REMARK    8  A    between atoms: C_8  and  C_9
REMARK    9  A    between atoms: C_9  and  C_10
REMARK   10  A    between atoms: C_10  and  C_11
REMARK   11  A    between atoms: C_11  and  C_12
REMARK   12  A    between atoms: C_12  and  C_13
REMARK   13  A    between atoms: C_13  and  C_15
REMARK   14  A    between atoms: C_15  and  C_16
REMARK   15  A    between atoms: C_16  and  O_17
REMARK                            x       y       z     vdW  Elec       q    Type
REMARK                         _______ _______ _______ _____ _____    ______ ____
ROOT
ATOM      1  C   UNL     1       7.567  -1.081  22.696  0.00  0.00    +0.000 C 
ENDROOT
BRANCH   1   2
ATOM      2  C   UNL     1       8.904  -1.426  22.045  0.00  0.00    +0.000 C 
BRANCH   2   3
ATOM      3  C   UNL     1       9.454  -0.250  21.251  0.00  0.00    +0.000 C 
BRANCH   3   4
ATOM      4  C   UNL     1       8.798   1.052  21.699  0.00  0.00    +0.000 C 
BRANCH   4   5
ATOM      5  C   UNL     1       9.848   2.047  22.179  0.00  0.00    -0.000 C 
BRANCH   5   6
ATOM      6  C   UNL     1       9.872   2.121  23.702  0.00  0.00    -0.000 C 
BRANCH   6   7
ATOM      7  C   UNL     1      11.006   1.270  24.266  0.00  0.00    -0.000 C 
BRANCH   7   8
ATOM      8  C   UNL     1      10.459   0.058  25.013  0.00  0.00    -0.000 C 
BRANCH   8  10
ATOM      9  C   UNL     1       8.501  -0.881  26.277  0.00  0.00    +0.004 C 
ATOM     10  C   UNL     1       9.025   0.301  25.479  0.00  0.00    -0.003 C 
ENDBRANCH   8  10
ENDBRANCH   7   8
ENDBRANCH   6   7
ENDBRANCH   5   6
ENDBRANCH   4   5
ENDBRANCH   3   4
ENDBRANCH   2   3
ENDBRANCH   1   2
BRANCH   1  11
ATOM     11  C   UNL     1       6.815  -2.364  23.028  0.00  0.00    +0.007 C 
BRANCH  11  12
ATOM     12  C   UNL     1       7.406  -3.583  22.328  0.00  0.00    +0.075 C 
BRANCH  12  13
ATOM     13  C   UNL     1       7.450  -4.769  23.273  0.00  0.00    +0.144 C 
ATOM     14  O   UNL     1       7.344  -5.932  22.875  0.00  0.00    -0.297 OA
BRANCH  13  15
ATOM     15  C   UNL     1       7.634  -4.463  24.731  0.00  0.00    +0.194 C 
BRANCH  15  16
ATOM     16  C   UNL     1       8.911  -4.930  25.379  0.00  0.00    +0.312 C 
ATOM     17  O   UNL     1       9.229  -4.550  26.501  0.00  0.00    -0.251 OA
BRANCH  16  18
ATOM     18  O   UNL     1       9.688  -5.779  24.682  0.00  0.00    -0.480 OA
ATOM     19  H   UNL     1       9.204  -6.317  24.007  0.00  0.00    +0.295 HD
ENDBRANCH  16  18
ENDBRANCH  15  16
ENDBRANCH  13  15
ENDBRANCH  12  13
ENDBRANCH  11  12
ENDBRANCH   1  11
TORSDOF 14
ENDMDL
MODEL 3
REMARK VINA RESULT:      -4.3      1.513      2.748
REMARK  Name = 
REMARK  15 active torsions:
REMARK  status: ('A' for Active; 'I' for Inactive)
REMARK    1  A    between atoms: C_1  and  C_2
REMARK    2  A    between atoms: C_2  and  C_3
REMARK    3  A    between atoms: C_3  and  C_4
REMARK    4  A    between atoms: C_4  and  C_5
REMARK    5  A    between atoms: C_5  and  C_6
REMARK    6  A    between atoms: C_6  and  C_7
REMARK    7  A    between atoms: C_7  and  C_8
REMARK    8  A    between atoms: C_8  and  C_9
REMARK    9  A    between atoms: C_9  and  C_10
REMARK   10  A    between atoms: C_10  and  C_11
REMARK   11  A    between atoms: C_11  and  C_12
REMARK   12  A    between atoms: C_12  and  C_13
REMARK   13  A    between atoms: C_13  and  C_15
REMARK   14  A    between atoms: C_15  and  C_16
REMARK   15  A    between atoms: C_16  and  O_17
REMARK                            x       y       z     vdW  Elec       q    Type
REMARK                         _______ _______ _______ _____ _____    ______ ____
ROOT
ATOM      1  C   UNL     1       7.746  -2.406  23.015  0.00  0.00    +0.000 C 
ENDROOT
BRANCH   1   2
ATOM      2  C   UNL     1       8.965  -1.917  22.238  0.00  0.00    +0.000 C 
BRANCH   2   3
ATOM      3  C   UNL     1      10.105  -1.538  23.172  0.00  0.00    +0.000 C 
BRANCH   3   4
ATOM      4  C   UNL     1       9.576  -1.264  24.577  0.00  0.00    +0.000 C 
BRANCH   4   5
ATOM      5  C   UNL     1       9.681   0.220  24.911  0.00  0.00    -0.000 C 
BRANCH   5   6
ATOM      6  C   UNL     1      10.909   0.840  24.252  0.00  0.00    -0.000 C 
BRANCH   6   7
ATOM      7  C   UNL     1      10.543   2.146  23.552  0.00  0.00    -0.000 C 
BRANCH   7   8
ATOM      8  C   UNL     1       9.848   1.875  22.221  0.00  0.00    -0.000 C 
BRANCH   8  10
ATOM      9  C   UNL     1       7.378   1.418  22.151  0.00  0.00    +0.004 C 
ATOM     10  C   UNL     1       8.451   2.492  22.195  0.00  0.00    -0.003 C 
ENDBRANCH   8  10
ENDBRANCH   7   8
ENDBRANCH   6   7
ENDBRANCH   5   6
ENDBRANCH   4   5
ENDBRANCH   3   4
ENDBRANCH   2   3
ENDBRANCH   1   2
BRANCH   1  11
ATOM     11  C   UNL     1       7.122  -3.593  22.292  0.00  0.00    +0.007 C 
BRANCH  11  12
ATOM     12  C   UNL     1       7.487  -4.925  22.936  0.00  0.00    +0.075 C 
BRANCH  12  13
ATOM     13  C   UNL     1       8.081  -4.704  24.315  0.00  0.00    +0.144 C 
ATOM     14  O   UNL     1       9.294  -4.758  24.526  0.00  0.00    -0.297 OA
BRANCH  13  15
ATOM     15  C   UNL     1       7.115  -4.410  25.426  0.00  0.00    +0.194 C 
BRANCH  15  16
ATOM     16  C   UNL     1       7.397  -5.031  26.769  0.00  0.00    +0.312 C 
ATOM     17  O   UNL     1       6.812  -4.654  27.778  0.00  0.00    -0.251 OA
BRANCH  16  18
ATOM     18  O   UNL     1       8.315  -6.014  26.819  0.00  0.00    -0.480 OA
ATOM     19  H   UNL     1       8.159  -6.684  27.530  0.00  0.00    +0.295 HD
ENDBRANCH  16  18
ENDBRANCH  15  16
ENDBRANCH  13  15
ENDBRANCH  12  13
ENDBRANCH  11  12
ENDBRANCH   1  11
TORSDOF 14
ENDMDL
MODEL 4
REMARK VINA RESULT:      -4.3      1.936      3.156
REMARK  Name = 
REMARK  15 active torsions:
REMARK  status: ('A' for Active; 'I' for Inactive)
REMARK    1  A    between atoms: C_1  and  C_2
REMARK    2  A    between atoms: C_2  and  C_3
REMARK    3  A    between atoms: C_3  and  C_4
REMARK    4  A    between atoms: C_4  and  C_5
REMARK    5  A    between atoms: C_5  and  C_6
REMARK    6  A    between atoms: C_6  and  C_7
REMARK    7  A    between atoms: C_7  and  C_8
REMARK    8  A    between atoms: C_8  and  C_9
REMARK    9  A    between atoms: C_9  and  C_10
REMARK   10  A    between atoms: C_10  and  C_11
REMARK   11  A    between atoms: C_11  and  C_12
REMARK   12  A    between atoms: C_12  and  C_13
REMARK   13  A    between atoms: C_13  and  C_15
REMARK   14  A    between atoms: C_15  and  C_16
REMARK   15  A    between atoms: C_16  and  O_17
REMARK                            x       y       z     vdW  Elec       q    Type
REMARK                         _______ _______ _______ _____ _____    ______ ____
ROOT
ATOM      1  C   UNL     1       7.440  -1.561  24.653  0.00  0.00    +0.000 C 
ENDROOT
BRANCH   1   2
ATOM      2  C   UNL     1       8.831  -1.960  25.139  0.00  0.00    +0.000 C 
BRANCH   2   3
ATOM      3  C   UNL     1       9.696  -2.463  23.992  0.00  0.00    +0.000 C 
BRANCH   3   4
ATOM      4  C   UNL     1       9.043  -2.146  22.650  0.00  0.00    +0.000 C 
BRANCH   4   5
ATOM      5  C   UNL     1       9.965  -1.287  21.793  0.00  0.00    -0.000 C 
BRANCH   5   6
ATOM      6  C   UNL     1       9.243  -0.037  21.301  0.00  0.00    -0.000 C 
BRANCH   6   7
ATOM      7  C   UNL     1       9.787   1.209  21.994  0.00  0.00    -0.000 C 
BRANCH   7   8
ATOM      8  C   UNL     1       8.937   1.573  23.208  0.00  0.00    -0.000 C 
BRANCH   8  10
ATOM      9  C   UNL     1      11.018   0.950  24.471  0.00  0.00    +0.004 C 
ATOM     10  C   UNL     1       9.813   1.873  24.422  0.00  0.00    -0.003 C 
ENDBRANCH   8  10
ENDBRANCH   7   8
ENDBRANCH   6   7
ENDBRANCH   5   6
ENDBRANCH   4   5
ENDBRANCH   3   4
ENDBRANCH   2   3
ENDBRANCH   1   2
BRANCH   1  11
ATOM     11  C   UNL     1       6.387  -2.360  25.410  0.00  0.00    +0.007 C 
BRANCH  11  12
ATOM     12  C   UNL     1       5.798  -3.489  24.572  0.00  0.00    +0.075 C 
BRANCH  12  13
ATOM     13  C   UNL     1       6.601  -4.763  24.757  0.00  0.00    +0.144 C 
ATOM     14  O   UNL     1       7.434  -5.143  23.931  0.00  0.00    -0.297 OA
BRANCH  13  15
ATOM     15  C   UNL     1       6.337  -5.551  26.007  0.00  0.00    +0.194 C 
BRANCH  15  16
ATOM     16  C   UNL     1       7.421  -5.573  27.052  0.00  0.00    +0.312 C 
ATOM     17  O   UNL     1       7.189  -5.935  28.200  0.00  0.00    -0.251 OA
BRANCH  16  18
ATOM     18  O   UNL     1       8.652  -5.180  26.679  0.00  0.00    -0.480 OA
ATOM     19  H   UNL     1       8.665  -4.423  26.041  0.00  0.00    +0.295 HD
ENDBRANCH  16  18
ENDBRANCH  15  16
ENDBRANCH  13  15
ENDBRANCH  12  13
ENDBRANCH  11  12
ENDBRANCH   1  11
TORSDOF 14
ENDMDL
MODEL 5
REMARK VINA RESULT:      -4.2      2.155      2.916
REMARK  Name = 
REMARK  15 active torsions:
REMARK  status: ('A' for Active; 'I' for Inactive)
REMARK    1  A    between atoms: C_1  and  C_2
REMARK    2  A    between atoms: C_2  and  C_3
REMARK    3  A    between atoms: C_3  and  C_4
REMARK    4  A    between atoms: C_4  and  C_5
REMARK    5  A    between atoms: C_5  and  C_6
REMARK    6  A    between atoms: C_6  and  C_7
REMARK    7  A    between atoms: C_7  and  C_8
REMARK    8  A    between atoms: C_8  and  C_9
REMARK    9  A    between atoms: C_9  and  C_10
REMARK   10  A    between atoms: C_10  and  C_11
REMARK   11  A    between atoms: C_11  and  C_12
REMARK   12  A    between atoms: C_12  and  C_13
REMARK   13  A    between atoms: C_13  and  C_15
REMARK   14  A    between atoms: C_15  and  C_16
REMARK   15  A    between atoms: C_16  and  O_17
REMARK                            x       y       z     vdW  Elec       q    Type
REMARK                         _______ _______ _______ _____ _____    ______ ____
ROOT
ATOM      1  C   UNL     1      10.235  -1.174  23.042  0.00  0.00    +0.000 C 
ENDROOT
BRANCH   1   2
ATOM      2  C   UNL     1       9.411  -1.248  21.759  0.00  0.00    +0.000 C 
BRANCH   2   3
ATOM      3  C   UNL     1       9.135   0.139  21.195  0.00  0.00    +0.000 C 
BRANCH   3   4
ATOM      4  C   UNL     1       9.929   1.194  21.960  0.00  0.00    +0.000 C 
BRANCH   4   5
ATOM      5  C   UNL     1       9.082   2.441  22.190  0.00  0.00    -0.000 C 
BRANCH   5   6
ATOM      6  C   UNL     1       9.359   3.042  23.564  0.00  0.00    -0.000 C 
BRANCH   6   7
ATOM      7  C   UNL     1       9.385   1.954  24.633  0.00  0.00    -0.000 C 
BRANCH   7   8
ATOM      8  C   UNL     1       8.002   1.759  25.246  0.00  0.00    -0.000 C 
BRANCH   8  10
ATOM      9  C   UNL     1       6.617   0.170  23.878  0.00  0.00    +0.004 C 
ATOM     10  C   UNL     1       7.527   0.316  25.086  0.00  0.00    -0.003 C 
ENDBRANCH   8  10
ENDBRANCH   7   8
ENDBRANCH   6   7
ENDBRANCH   5   6
ENDBRANCH   4   5
ENDBRANCH   3   4
ENDBRANCH   2   3
ENDBRANCH   1   2
BRANCH   1  11
ATOM     11  C   UNL     1      10.031  -2.447  23.853  0.00  0.00    +0.007 C 
BRANCH  11  12
ATOM     12  C   UNL     1       8.608  -2.985  23.746  0.00  0.00    +0.075 C 
BRANCH  12  13
ATOM     13  C   UNL     1       8.110  -3.445  25.103  0.00  0.00    +0.144 C 
ATOM     14  O   UNL     1       8.517  -2.950  26.157  0.00  0.00    -0.297 OA
BRANCH  13  15
ATOM     15  C   UNL     1       7.084  -4.540  25.108  0.00  0.00    +0.194 C 
BRANCH  15  16
ATOM     16  C   UNL     1       7.162  -5.554  26.220  0.00  0.00    +0.312 C 
ATOM     17  O   UNL     1       6.178  -6.203  26.558  0.00  0.00    -0.251 OA
BRANCH  16  18
ATOM     18  O   UNL     1       8.351  -5.721  26.826  0.00  0.00    -0.480 OA
ATOM     19  H   UNL     1       8.544  -5.062  27.538  0.00  0.00    +0.295 HD
ENDBRANCH  16  18
ENDBRANCH  15  16
ENDBRANCH  13  15
ENDBRANCH  12  13
ENDBRANCH  11  12
ENDBRANCH   1  11
TORSDOF 14
ENDMDL
MODEL 6
REMARK VINA RESULT:      -4.2      1.489      2.208
REMARK  Name = 
REMARK  15 active torsions:
REMARK  status: ('A' for Active; 'I' for Inactive)
REMARK    1  A    between atoms: C_1  and  C_2
REMARK    2  A    between atoms: C_2  and  C_3
REMARK    3  A    between atoms: C_3  and  C_4
REMARK    4  A    between atoms: C_4  and  C_5
REMARK    5  A    between atoms: C_5  and  C_6
REMARK    6  A    between atoms: C_6  and  C_7
REMARK    7  A    between atoms: C_7  and  C_8
REMARK    8  A    between atoms: C_8  and  C_9
REMARK    9  A    between atoms: C_9  and  C_10
REMARK   10  A    between atoms: C_10  and  C_11
REMARK   11  A    between atoms: C_11  and  C_12
REMARK   12  A    between atoms: C_12  and  C_13
REMARK   13  A    between atoms: C_13  and  C_15
REMARK   14  A    between atoms: C_15  and  C_16
REMARK   15  A    between atoms: C_16  and  O_17
REMARK                            x       y       z     vdW  Elec       q    Type
REMARK                         _______ _______ _______ _____ _____    ______ ____
ROOT
ATOM      1  C   UNL     1       9.105  -0.810  25.046  0.00  0.00    +0.000 C 
ENDROOT
BRANCH   1   2
ATOM      2  C   UNL     1      10.279  -0.312  24.208  0.00  0.00    +0.000 C 
BRANCH   2   3
ATOM      3  C   UNL     1      10.554   1.164  24.458  0.00  0.00    +0.000 C 
BRANCH   3   4
ATOM      4  C   UNL     1      10.252   1.984  23.207  0.00  0.00    +0.000 C 
BRANCH   4   5
ATOM      5  C   UNL     1       9.978   1.069  22.019  0.00  0.00    -0.000 C 
BRANCH   5   6
ATOM      6  C   UNL     1       8.594   1.334  21.436  0.00  0.00    -0.000 C 
BRANCH   6   7
ATOM      7  C   UNL     1       7.977   2.584  22.057  0.00  0.00    -0.000 C 
BRANCH   7   8
ATOM      8  C   UNL     1       6.512   2.350  22.412  0.00  0.00    -0.000 C 
BRANCH   8  10
ATOM      9  C   UNL     1       6.980   2.312  24.880  0.00  0.00    +0.004 C 
ATOM     10  C   UNL     1       6.380   1.554  23.708  0.00  0.00    -0.003 C 
ENDBRANCH   8  10
ENDBRANCH   7   8
ENDBRANCH   6   7
ENDBRANCH   5   6
ENDBRANCH   4   5
ENDBRANCH   3   4
ENDBRANCH   2   3
ENDBRANCH   1   2
BRANCH   1  11
ATOM     11  C   UNL     1       8.155  -1.612  24.166  0.00  0.00    +0.007 C 
BRANCH  11  12
ATOM     12  C   UNL     1       8.846  -2.786  23.481  0.00  0.00    +0.075 C 
BRANCH  12  13
ATOM     13  C   UNL     1       8.242  -4.100  23.940  0.00  0.00    +0.144 C 
ATOM     14  O   UNL     1       7.149  -4.500  23.534  0.00  0.00    -0.297 OA
BRANCH  13  15
ATOM     15  C   UNL     1       9.045  -4.904  24.921  0.00  0.00    +0.194 C 
BRANCH  15  16
ATOM     16  C   UNL     1       8.649  -4.820  26.371  0.00  0.00    +0.312 C 
ATOM     17  O   UNL     1       8.766  -3.776  27.003  0.00  0.00    -0.251 OA
BRANCH  16  18
ATOM     18  O   UNL     1       8.161  -5.934  26.948  0.00  0.00    -0.480 OA
ATOM     19  H   UNL     1       7.337  -6.285  26.528  0.00  0.00    +0.295 HD
ENDBRANCH  16  18
ENDBRANCH  15  16
ENDBRANCH  13  15
ENDBRANCH  12  13
ENDBRANCH  11  12
ENDBRANCH   1  11
TORSDOF 14
ENDMDL
MODEL 7
REMARK VINA RESULT:      -4.2      1.287      3.137
REMARK  Name = 
REMARK  15 active torsions:
REMARK  status: ('A' for Active; 'I' for Inactive)
REMARK    1  A    between atoms: C_1  and  C_2
REMARK    2  A    between atoms: C_2  and  C_3
REMARK    3  A    between atoms: C_3  and  C_4
REMARK    4  A    between atoms: C_4  and  C_5
REMARK    5  A    between atoms: C_5  and  C_6
REMARK    6  A    between atoms: C_6  and  C_7
REMARK    7  A    between atoms: C_7  and  C_8
REMARK    8  A    between atoms: C_8  and  C_9
REMARK    9  A    between atoms: C_9  and  C_10
REMARK   10  A    between atoms: C_10  and  C_11
REMARK   11  A    between atoms: C_11  and  C_12
REMARK   12  A    between atoms: C_12  and  C_13
REMARK   13  A    between atoms: C_13  and  C_15
REMARK   14  A    between atoms: C_15  and  C_16
REMARK   15  A    between atoms: C_16  and  O_17
REMARK                            x       y       z     vdW  Elec       q    Type
REMARK                         _______ _______ _______ _____ _____    ______ ____
ROOT
ATOM      1  C   UNL     1      10.013  -0.972  22.242  0.00  0.00    +0.000 C 
ENDROOT
BRANCH   1   2
ATOM      2  C   UNL     1       9.462   0.217  21.460  0.00  0.00    +0.000 C 
BRANCH   2   3
ATOM      3  C   UNL     1       9.979   1.536  22.016  0.00  0.00    +0.000 C 
BRANCH   3   4
ATOM      4  C   UNL     1       8.817   2.468  22.349  0.00  0.00    +0.000 C 
BRANCH   4   5
ATOM      5  C   UNL     1       7.516   1.934  21.761  0.00  0.00    -0.000 C 
BRANCH   5   6
ATOM      6  C   UNL     1       6.318   2.394  22.586  0.00  0.00    -0.000 C 
BRANCH   6   7
ATOM      7  C   UNL     1       6.405   1.854  24.011  0.00  0.00    -0.000 C 
BRANCH   7   8
ATOM      8  C   UNL     1       6.431   0.329  24.016  0.00  0.00    -0.000 C 
BRANCH   8  10
ATOM      9  C   UNL     1       8.514   0.408  25.420  0.00  0.00    +0.004 C 
ATOM     10  C   UNL     1       7.132  -0.205  25.263  0.00  0.00    -0.003 C 
ENDBRANCH   8  10
ENDBRANCH   7   8
ENDBRANCH   6   7
ENDBRANCH   5   6
ENDBRANCH   4   5
ENDBRANCH   3   4
ENDBRANCH   2   3
ENDBRANCH   1   2
BRANCH   1  11
ATOM     11  C   UNL     1       8.896  -1.975  22.499  0.00  0.00    +0.007 C 
BRANCH  11  12
ATOM     12  C   UNL     1       9.181  -2.869  23.700  0.00  0.00    +0.075 C 
BRANCH  12  13
ATOM     13  C   UNL     1       8.296  -4.102  23.667  0.00  0.00    +0.144 C 
ATOM     14  O   UNL     1       8.675  -5.195  24.094  0.00  0.00    -0.297 OA
BRANCH  13  15
ATOM     15  C   UNL     1       6.922  -3.931  23.088  0.00  0.00    +0.194 C 
BRANCH  15  16
ATOM     16  C   UNL     1       6.595  -4.715  21.844  0.00  0.00    +0.312 C 
ATOM     17  O   UNL     1       5.749  -4.320  21.050  0.00  0.00    -0.251 OA
BRANCH  16  18
ATOM     18  O   UNL     1       7.265  -5.863  21.639  0.00  0.00    -0.480 OA
ATOM     19  H   UNL     1       6.780  -6.528  21.090  0.00  0.00    +0.295 HD
ENDBRANCH  16  18
ENDBRANCH  15  16
ENDBRANCH  13  15
ENDBRANCH  12  13
ENDBRANCH  11  12
ENDBRANCH   1  11
TORSDOF 14
ENDMDL
MODEL 8
REMARK VINA RESULT:      -4.2      3.253      6.492
REMARK  Name = 
REMARK  15 active torsions:
REMARK  status: ('A' for Active; 'I' for Inactive)
REMARK    1  A    between atoms: C_1  and  C_2
REMARK    2  A    between atoms: C_2  and  C_3
REMARK    3  A    between atoms: C_3  and  C_4
REMARK    4  A    between atoms: C_4  and  C_5
REMARK    5  A    between atoms: C_5  and  C_6
REMARK    6  A    between atoms: C_6  and  C_7
REMARK    7  A    between atoms: C_7  and  C_8
REMARK    8  A    between atoms: C_8  and  C_9
REMARK    9  A    between atoms: C_9  and  C_10
REMARK   10  A    between atoms: C_10  and  C_11
REMARK   11  A    between atoms: C_11  and  C_12
REMARK   12  A    between atoms: C_12  and  C_13
REMARK   13  A    between atoms: C_13  and  C_15
REMARK   14  A    between atoms: C_15  and  C_16
REMARK   15  A    between atoms: C_16  and  O_17
REMARK                            x       y       z     vdW  Elec       q    Type
REMARK                         _______ _______ _______ _____ _____    ______ ____
ROOT
ATOM      1  C   UNL     1       8.440  -3.321  23.585  0.00  0.00    +0.000 C 
ENDROOT
BRANCH   1   2
ATOM      2  C   UNL     1       9.415  -3.823  24.646  0.00  0.00    +0.000 C 
BRANCH   2   3
ATOM      3  C   UNL     1       8.801  -4.936  25.483  0.00  0.00    +0.000 C 
BRANCH   3   4
ATOM      4  C   UNL     1       7.911  -4.352  26.577  0.00  0.00    +0.000 C 
BRANCH   4   5
ATOM      5  C   UNL     1       6.670  -5.214  26.777  0.00  0.00    -0.000 C 
BRANCH   5   6
ATOM      6  C   UNL     1       6.102  -5.671  25.437  0.00  0.00    -0.000 C 
BRANCH   6   7
ATOM      7  C   UNL     1       5.217  -4.587  24.829  0.00  0.00    -0.000 C 
BRANCH   7   8
ATOM      8  C   UNL     1       5.059  -4.792  23.326  0.00  0.00    -0.000 C 
BRANCH   8  10
ATOM      9  C   UNL     1       6.430  -5.757  21.454  0.00  0.00    +0.004 C 
ATOM     10  C   UNL     1       5.870  -5.994  22.846  0.00  0.00    -0.003 C 
ENDBRANCH   8  10
ENDBRANCH   7   8
ENDBRANCH   6   7
ENDBRANCH   5   6
ENDBRANCH   4   5
ENDBRANCH   3   4
ENDBRANCH   2   3
ENDBRANCH   1   2
BRANCH   1  11
ATOM     11  C   UNL     1       8.371  -1.800  23.636  0.00  0.00    +0.007 C 
BRANCH  11  12
ATOM     12  C   UNL     1       9.497  -1.193  24.465  0.00  0.00    +0.075 C 
BRANCH  12  13
ATOM     13  C   UNL     1      10.244  -0.144  23.662  0.00  0.00    +0.144 C 
ATOM     14  O   UNL     1      11.102   0.583  24.165  0.00  0.00    -0.297 OA
BRANCH  13  15
ATOM     15  C   UNL     1       9.889  -0.031  22.208  0.00  0.00    +0.194 C 
BRANCH  15  16
ATOM     16  C   UNL     1       9.424   1.314  21.713  0.00  0.00    +0.312 C 
ATOM     17  O   UNL     1       8.266   1.490  21.349  0.00  0.00    -0.251 OA
BRANCH  16  18
ATOM     18  O   UNL     1      10.325   2.312  21.687  0.00  0.00    -0.480 OA
ATOM     19  H   UNL     1      10.186   2.971  20.962  0.00  0.00    +0.295 HD
ENDBRANCH  16  18
ENDBRANCH  15  16
ENDBRANCH  13  15
ENDBRANCH  12  13
ENDBRANCH  11  12
ENDBRANCH   1  11
TORSDOF 14
ENDMDL
MODEL 9
REMARK VINA RESULT:      -4.2      1.652      2.596
REMARK  Name = 
REMARK  15 active torsions:
REMARK  status: ('A' for Active; 'I' for Inactive)
REMARK    1  A    between atoms: C_1  and  C_2
REMARK    2  A    between atoms: C_2  and  C_3
REMARK    3  A    between atoms: C_3  and  C_4
REMARK    4  A    between atoms: C_4  and  C_5
REMARK    5  A    between atoms: C_5  and  C_6
REMARK    6  A    between atoms: C_6  and  C_7
REMARK    7  A    between atoms: C_7  and  C_8
REMARK    8  A    between atoms: C_8  and  C_9
REMARK    9  A    between atoms: C_9  and  C_10
REMARK   10  A    between atoms: C_10  and  C_11
REMARK   11  A    between atoms: C_11  and  C_12
REMARK   12  A    between atoms: C_12  and  C_13
REMARK   13  A    between atoms: C_13  and  C_15
REMARK   14  A    between atoms: C_15  and  C_16
REMARK   15  A    between atoms: C_16  and  O_17
REMARK                            x       y       z     vdW  Elec       q    Type
REMARK                         _______ _______ _______ _____ _____    ______ ____
ROOT
ATOM      1  C   UNL     1       8.198  -2.360  22.471  0.00  0.00    +0.000 C 
ENDROOT
BRANCH   1   2
ATOM      2  C   UNL     1       9.544  -2.084  23.135  0.00  0.00    +0.000 C 
BRANCH   2   3
ATOM      3  C   UNL     1      10.342  -1.044  22.363  0.00  0.00    +0.000 C 
BRANCH   3   4
ATOM      4  C   UNL     1       9.414  -0.181  21.513  0.00  0.00    +0.000 C 
BRANCH   4   5
ATOM      5  C   UNL     1       9.636   1.298  21.809  0.00  0.00    -0.000 C 
BRANCH   5   6
ATOM      6  C   UNL     1      10.376   1.485  23.129  0.00  0.00    -0.000 C 
BRANCH   6   7
ATOM      7  C   UNL     1       9.491   2.198  24.148  0.00  0.00    -0.000 C 
BRANCH   7   8
ATOM      8  C   UNL     1       8.680   1.195  24.962  0.00  0.00    -0.000 C 
BRANCH   8  10
ATOM      9  C   UNL     1       6.887   2.632  23.945  0.00  0.00    +0.004 C 
ATOM     10  C   UNL     1       7.186   1.335  24.676  0.00  0.00    -0.003 C 
ENDBRANCH   8  10
ENDBRANCH   7   8
ENDBRANCH   6   7
ENDBRANCH   5   6
ENDBRANCH   4   5
ENDBRANCH   3   4
ENDBRANCH   2   3
ENDBRANCH   1   2
BRANCH   1  11
ATOM     11  C   UNL     1       7.082  -2.208  23.497  0.00  0.00    +0.007 C 
BRANCH  11  12
ATOM     12  C   UNL     1       7.582  -2.364  24.929  0.00  0.00    +0.075 C 
BRANCH  12  13
ATOM     13  C   UNL     1       7.199  -3.724  25.481  0.00  0.00    +0.144 C 
ATOM     14  O   UNL     1       6.037  -4.138  25.466  0.00  0.00    -0.297 OA
BRANCH  13  15
ATOM     15  C   UNL     1       8.309  -4.557  26.052  0.00  0.00    +0.194 C 
BRANCH  15  16
ATOM     16  C   UNL     1       9.207  -5.273  25.077  0.00  0.00    +0.312 C 
ATOM     17  O   UNL     1       8.800  -5.614  23.972  0.00  0.00    -0.251 OA
BRANCH  16  18
ATOM     18  O   UNL     1      10.471  -5.524  25.465  0.00  0.00    -0.480 OA
ATOM     19  H   UNL     1      11.096  -5.720  24.723  0.00  0.00    +0.295 HD
ENDBRANCH  16  18
ENDBRANCH  15  16
ENDBRANCH  13  15
ENDBRANCH  12  13
ENDBRANCH  11  12
ENDBRANCH   1  11
TORSDOF 14
ENDMDL
