MODEL 1
REMARK VINA RESULT:      -6.8      0.000      0.000
REMARK  Name = 
REMARK  9 active torsions:
REMARK  status: ('A' for Active; 'I' for Inactive)
REMARK    1  A    between atoms: O_1  and  C_2
REMARK    2  A    between atoms: C_2  and  C_4
REMARK    3  A    between atoms: C_4  and  C_27
REMARK    4  A    between atoms: N_7  and  C_8
REMARK    5  A    between atoms: C_8  and  C_9
REMARK    6  A    between atoms: C_9  and  C_10
REMARK    7  A    between atoms: C_10  and  C_11
REMARK    8  A    between atoms: C_10  and  C_13
REMARK    9  A    between atoms: C_10  and  C_19
REMARK                            x       y       z     vdW  Elec       q    Type
REMARK                         _______ _______ _______ _____ _____    ______ ____
ROOT
ATOM      1  C   UNL     1       9.478  -1.700  24.982  0.00  0.00    +0.086 C 
ENDROOT
BRANCH   1   5
ATOM      2  C   UNL     1       8.971   1.590  23.448  0.00  0.00    +0.095 C 
ATOM      3  C   UNL     1       9.645   1.267  24.813  0.00  0.00    +0.038 C 
ATOM      4  C   UNL     1      10.816   0.284  24.635  0.00  0.00    +0.086 C 
ATOM      5  N   UNL     1      10.378  -0.987  24.051  0.00  0.00    -0.302 NA
ATOM      6  C   UNL     1       9.838  -0.730  22.704  0.00  0.00    +0.086 C 
ATOM      7  C   UNL     1       8.686   0.279  22.666  0.00  0.00    +0.038 C 
BRANCH   2   8
ATOM      8  C   UNL     1       7.647   2.381  23.517  0.00  0.00    -0.031 A 
ATOM      9  C   UNL     1       6.711   2.406  22.478  0.00  0.00    +0.005 A 
ATOM     10  C   UNL     1       5.441   2.954  22.686  0.00  0.00    +0.000 A 
ATOM     11  C   UNL     1       5.101   3.502  23.922  0.00  0.00    +0.000 A 
ATOM     12  C   UNL     1       6.057   3.591  24.924  0.00  0.00    +0.000 A 
ATOM     13  C   UNL     1       7.330   3.072  24.708  0.00  0.00    +0.005 A 
ENDBRANCH   2   8
BRANCH   2  14
ATOM     14  C   UNL     1      10.016   2.475  22.735  0.00  0.00    +0.315 C 
ATOM     15  O   UNL     1      10.695   3.340  23.265  0.00  0.00    -0.250 OA
BRANCH  14  16
ATOM     16  O   UNL     1      10.141   2.204  21.397  0.00  0.00    -0.480 OA
ATOM     17  H   UNL     1      10.338   1.265  21.204  0.00  0.00    +0.295 HD
ENDBRANCH  14  16
ENDBRANCH   2  14
ENDBRANCH   1   5
BRANCH   1  18
ATOM     18  C   UNL     1       8.842  -2.927  24.352  0.00  0.00    +0.046 C 
BRANCH  18  19
ATOM     19  C   UNL     1       7.490  -3.422  24.954  0.00  0.00    +0.108 C 
BRANCH  19  20
ATOM     20  C   UNL     1       6.785  -4.274  23.822  0.00  0.00    -0.023 A 
ATOM     21  C   UNL     1       7.318  -4.366  22.511  0.00  0.00    +0.005 A 
ATOM     22  C   UNL     1       6.774  -5.215  21.543  0.00  0.00    +0.000 A 
ATOM     23  C   UNL     1       5.661  -5.984  21.848  0.00  0.00    +0.000 A 
ATOM     24  C   UNL     1       5.075  -5.873  23.105  0.00  0.00    +0.000 A 
ATOM     25  C   UNL     1       5.615  -5.018  24.075  0.00  0.00    +0.005 A 
ENDBRANCH  19  20
BRANCH  19  26
ATOM     26  C   UNL     1       6.634  -2.201  25.415  0.00  0.00    -0.023 A 
ATOM     27  C   UNL     1       6.451  -1.934  26.794  0.00  0.00    +0.005 A 
ATOM     28  C   UNL     1       5.814  -0.773  27.242  0.00  0.00    +0.000 A 
ATOM     29  C   UNL     1       5.328   0.146  26.323  0.00  0.00    +0.000 A 
ATOM     30  C   UNL     1       5.445  -0.115  24.961  0.00  0.00    +0.000 A 
ATOM     31  C   UNL     1       6.088  -1.275  24.511  0.00  0.00    +0.005 A 
ENDBRANCH  19  26
BRANCH  19  32
ATOM     32  C   UNL     1       7.735  -4.318  26.156  0.00  0.00    +0.079 C 
ATOM     33  N   UNL     1       7.937  -5.062  27.154  0.00  0.00    -0.195 NA
ENDBRANCH  19  32
ENDBRANCH  18  19
ENDBRANCH   1  18
TORSDOF 9
ENDMDL
MODEL 2
REMARK VINA RESULT:      -6.8      1.082      1.630
REMARK  Name = 
REMARK  9 active torsions:
REMARK  status: ('A' for Active; 'I' for Inactive)
REMARK    1  A    between atoms: O_1  and  C_2
REMARK    2  A    between atoms: C_2  and  C_4
REMARK    3  A    between atoms: C_4  and  C_27
REMARK    4  A    between atoms: N_7  and  C_8
REMARK    5  A    between atoms: C_8  and  C_9
REMARK    6  A    between atoms: C_9  and  C_10
REMARK    7  A    between atoms: C_10  and  C_11
REMARK    8  A    between atoms: C_10  and  C_13
REMARK    9  A    between atoms: C_10  and  C_19
REMARK                            x       y       z     vdW  Elec       q    Type
REMARK                         _______ _______ _______ _____ _____    ______ ____
ROOT
ATOM      1  C   UNL     1       9.711  -2.622  23.973  0.00  0.00    +0.086 C 
ENDROOT
BRANCH   1   5
ATOM      2  C   UNL     1       8.848   0.890  23.378  0.00  0.00    +0.095 C 
ATOM      3  C   UNL     1      10.026   0.327  24.223  0.00  0.00    +0.038 C 
ATOM      4  C   UNL     1      10.914  -0.609  23.384  0.00  0.00    +0.086 C 
ATOM      5  N   UNL     1      10.161  -1.754  22.864  0.00  0.00    -0.302 NA
ATOM      6  C   UNL     1       9.104  -1.261  21.964  0.00  0.00    +0.086 C 
ATOM      7  C   UNL     1       8.141  -0.260  22.610  0.00  0.00    +0.038 C 
BRANCH   2   8
ATOM      8  C   UNL     1       7.759   1.657  24.160  0.00  0.00    -0.031 A 
ATOM      9  C   UNL     1       8.030   2.440  25.286  0.00  0.00    +0.005 A 
ATOM     10  C   UNL     1       7.044   3.283  25.812  0.00  0.00    +0.000 A 
ATOM     11  C   UNL     1       5.776   3.335  25.235  0.00  0.00    +0.000 A 
ATOM     12  C   UNL     1       5.457   2.477  24.192  0.00  0.00    +0.000 A 
ATOM     13  C   UNL     1       6.428   1.619  23.686  0.00  0.00    +0.005 A 
ENDBRANCH   2   8
BRANCH   2  14
ATOM     14  C   UNL     1       9.537   1.887  22.422  0.00  0.00    +0.315 C 
ATOM     15  O   UNL     1      10.490   2.597  22.703  0.00  0.00    -0.250 OA
BRANCH  14  16
ATOM     16  O   UNL     1       8.983   1.916  21.169  0.00  0.00    -0.480 OA
ATOM     17  H   UNL     1       8.511   1.094  20.930  0.00  0.00    +0.295 HD
ENDBRANCH  14  16
ENDBRANCH   2  14
ENDBRANCH   1   5
BRANCH   1  18
ATOM     18  C   UNL     1       8.319  -3.186  23.745  0.00  0.00    +0.046 C 
BRANCH  18  19
ATOM     19  C   UNL     1       7.469  -3.528  25.007  0.00  0.00    +0.108 C 
BRANCH  19  20
ATOM     20  C   UNL     1       6.339  -4.525  24.525  0.00  0.00    -0.023 A 
ATOM     21  C   UNL     1       5.953  -4.619  23.164  0.00  0.00    +0.005 A 
ATOM     22  C   UNL     1       5.049  -5.584  22.711  0.00  0.00    +0.000 A 
ATOM     23  C   UNL     1       4.481  -6.474  23.609  0.00  0.00    +0.000 A 
ATOM     24  C   UNL     1       4.790  -6.371  24.962  0.00  0.00    +0.000 A 
ATOM     25  C   UNL     1       5.692  -5.401  25.420  0.00  0.00    +0.005 A 
ENDBRANCH  19  20
BRANCH  19  26
ATOM     26  C   UNL     1       6.894  -2.219  25.632  0.00  0.00    -0.023 A 
ATOM     27  C   UNL     1       5.570  -1.805  25.340  0.00  0.00    +0.005 A 
ATOM     28  C   UNL     1       4.976  -0.721  25.992  0.00  0.00    +0.000 A 
ATOM     29  C   UNL     1       5.694  -0.009  26.942  0.00  0.00    +0.000 A 
ATOM     30  C   UNL     1       7.014  -0.357  27.212  0.00  0.00    +0.000 A 
ATOM     31  C   UNL     1       7.609  -1.447  26.564  0.00  0.00    +0.005 A 
ENDBRANCH  19  26
BRANCH  19  32
ATOM     32  C   UNL     1       8.320  -4.226  26.054  0.00  0.00    +0.079 C 
ATOM     33  N   UNL     1       9.028  -4.805  26.922  0.00  0.00    -0.195 NA
ENDBRANCH  19  32
ENDBRANCH  18  19
ENDBRANCH   1  18
TORSDOF 9
ENDMDL
MODEL 3
REMARK VINA RESULT:      -6.7      3.616      7.512
REMARK  Name = 
REMARK  9 active torsions:
REMARK  status: ('A' for Active; 'I' for Inactive)
REMARK    1  A    between atoms: O_1  and  C_2
REMARK    2  A    between atoms: C_2  and  C_4
REMARK    3  A    between atoms: C_4  and  C_27
REMARK    4  A    between atoms: N_7  and  C_8
REMARK    5  A    between atoms: C_8  and  C_9
REMARK    6  A    between atoms: C_9  and  C_10
REMARK    7  A    between atoms: C_10  and  C_11
REMARK    8  A    between atoms: C_10  and  C_13
REMARK    9  A    between atoms: C_10  and  C_19
REMARK                            x       y       z     vdW  Elec       q    Type
REMARK                         _______ _______ _______ _____ _____    ______ ____
ROOT
ATOM      1  C   UNL     1       7.752   3.531  25.912  0.00  0.00    +0.086 C 
ENDROOT
BRANCH   1   5
ATOM      2  C   UNL     1       6.678   0.060  25.434  0.00  0.00    +0.095 C 
ATOM      3  C   UNL     1       7.487   0.653  26.622  0.00  0.00    +0.038 C 
ATOM      4  C   UNL     1       6.730   1.821  27.281  0.00  0.00    +0.086 C 
ATOM      5  N   UNL     1       6.478   2.911  26.335  0.00  0.00    -0.302 NA
ATOM      6  C   UNL     1       5.615   2.411  25.251  0.00  0.00    +0.086 C 
ATOM      7  C   UNL     1       6.178   1.198  24.503  0.00  0.00    +0.038 C 
BRANCH   2   8
ATOM      8  C   UNL     1       7.424  -0.962  24.549  0.00  0.00    -0.031 A 
ATOM      9  C   UNL     1       6.929  -1.428  23.327  0.00  0.00    +0.005 A 
ATOM     10  C   UNL     1       7.748  -2.176  22.474  0.00  0.00    +0.000 A 
ATOM     11  C   UNL     1       9.057  -2.486  22.841  0.00  0.00    +0.000 A 
ATOM     12  C   UNL     1       9.523  -2.132  24.099  0.00  0.00    +0.000 A 
ATOM     13  C   UNL     1       8.699  -1.412  24.960  0.00  0.00    +0.005 A 
ENDBRANCH   2   8
BRANCH   2  14
ATOM     14  C   UNL     1       5.510  -0.676  26.128  0.00  0.00    +0.315 C 
ATOM     15  O   UNL     1       4.326  -0.524  25.875  0.00  0.00    -0.250 OA
BRANCH  14  16
ATOM     16  O   UNL     1       5.918  -1.562  27.090  0.00  0.00    -0.480 OA
ATOM     17  H   UNL     1       5.341  -1.577  27.880  0.00  0.00    +0.295 HD
ENDBRANCH  14  16
ENDBRANCH   2  14
ENDBRANCH   1   5
BRANCH   1  18
ATOM     18  C   UNL     1       7.542   4.751  25.031  0.00  0.00    +0.046 C 
BRANCH  18  19
ATOM     19  C   UNL     1       8.523   4.948  23.834  0.00  0.00    +0.108 C 
BRANCH  19  20
ATOM     20  C   UNL     1       8.853   3.501  23.286  0.00  0.00    -0.023 A 
ATOM     21  C   UNL     1       8.157   2.939  22.186  0.00  0.00    +0.005 A 
ATOM     22  C   UNL     1       8.526   1.717  21.617  0.00  0.00    +0.000 A 
ATOM     23  C   UNL     1       9.591   1.003  22.144  0.00  0.00    +0.000 A 
ATOM     24  C   UNL     1      10.258   1.495  23.262  0.00  0.00    +0.000 A 
ATOM     25  C   UNL     1       9.886   2.717  23.838  0.00  0.00    +0.005 A 
ENDBRANCH  19  20
BRANCH  19  26
ATOM     26  C   UNL     1       9.793   5.721  24.309  0.00  0.00    -0.023 A 
ATOM     27  C   UNL     1       9.752   6.519  25.479  0.00  0.00    +0.005 A 
ATOM     28  C   UNL     1      10.902   7.107  26.011  0.00  0.00    +0.000 A 
ATOM     29  C   UNL     1      12.125   6.927  25.380  0.00  0.00    +0.000 A 
ATOM     30  C   UNL     1      12.188   6.194  24.199  0.00  0.00    +0.000 A 
ATOM     31  C   UNL     1      11.037   5.599  23.667  0.00  0.00    +0.005 A 
ENDBRANCH  19  26
BRANCH  19  32
ATOM     32  C   UNL     1       7.860   5.749  22.725  0.00  0.00    +0.079 C 
ATOM     33  N   UNL     1       7.312   6.414  21.805  0.00  0.00    -0.195 NA
ENDBRANCH  19  32
ENDBRANCH  18  19
ENDBRANCH   1  18
TORSDOF 9
ENDMDL
MODEL 4
REMARK VINA RESULT:      -6.5      1.550      3.491
REMARK  Name = 
REMARK  9 active torsions:
REMARK  status: ('A' for Active; 'I' for Inactive)
REMARK    1  A    between atoms: O_1  and  C_2
REMARK    2  A    between atoms: C_2  and  C_4
REMARK    3  A    between atoms: C_4  and  C_27
REMARK    4  A    between atoms: N_7  and  C_8
REMARK    5  A    between atoms: C_8  and  C_9
REMARK    6  A    between atoms: C_9  and  C_10
REMARK    7  A    between atoms: C_10  and  C_11
REMARK    8  A    between atoms: C_10  and  C_13
REMARK    9  A    between atoms: C_10  and  C_19
REMARK                            x       y       z     vdW  Elec       q    Type
REMARK                         _______ _______ _______ _____ _____    ______ ____
ROOT
ATOM      1  C   UNL     1       8.833  -1.578  25.357  0.00  0.00    +0.086 C 
ENDROOT
BRANCH   1   5
ATOM      2  C   UNL     1       8.749   1.575  23.490  0.00  0.00    +0.095 C 
ATOM      3  C   UNL     1       9.398   1.305  24.877  0.00  0.00    +0.038 C 
ATOM      4  C   UNL     1      10.421   0.157  24.797  0.00  0.00    +0.086 C 
ATOM      5  N   UNL     1       9.803  -1.095  24.351  0.00  0.00    -0.302 NA
ATOM      6  C   UNL     1       9.276  -0.907  22.988  0.00  0.00    +0.086 C 
ATOM      7  C   UNL     1       8.272   0.242  22.851  0.00  0.00    +0.038 C 
BRANCH   2   8
ATOM      8  C   UNL     1       7.546   2.544  23.482  0.00  0.00    -0.031 A 
ATOM      9  C   UNL     1       7.494   3.710  24.253  0.00  0.00    +0.005 A 
ATOM     10  C   UNL     1       6.483   4.653  24.035  0.00  0.00    +0.000 A 
ATOM     11  C   UNL     1       5.505   4.432  23.066  0.00  0.00    +0.000 A 
ATOM     12  C   UNL     1       5.476   3.228  22.377  0.00  0.00    +0.000 A 
ATOM     13  C   UNL     1       6.465   2.277  22.613  0.00  0.00    +0.005 A 
ENDBRANCH   2   8
BRANCH   2  14
ATOM     14  C   UNL     1       9.890   2.230  22.682  0.00  0.00    +0.315 C 
ATOM     15  O   UNL     1      10.793   2.906  23.149  0.00  0.00    -0.250 OA
BRANCH  14  16
ATOM     16  O   UNL     1       9.821   1.979  21.336  0.00  0.00    -0.480 OA
ATOM     17  H   UNL     1      10.141   2.719  20.782  0.00  0.00    +0.295 HD
ENDBRANCH  14  16
ENDBRANCH   2  14
ENDBRANCH   1   5
BRANCH   1  18
ATOM     18  C   UNL     1       8.433  -3.026  25.133  0.00  0.00    +0.046 C 
BRANCH  18  19
ATOM     19  C   UNL     1       6.931  -3.316  24.825  0.00  0.00    +0.108 C 
BRANCH  19  20
ATOM     20  C   UNL     1       6.403  -4.226  26.007  0.00  0.00    -0.023 A 
ATOM     21  C   UNL     1       5.028  -4.544  26.151  0.00  0.00    +0.005 A 
ATOM     22  C   UNL     1       4.570  -5.447  27.114  0.00  0.00    +0.000 A 
ATOM     23  C   UNL     1       5.469  -6.045  27.983  0.00  0.00    +0.000 A 
ATOM     24  C   UNL     1       6.818  -5.709  27.911  0.00  0.00    +0.000 A 
ATOM     25  C   UNL     1       7.279  -4.800  26.949  0.00  0.00    +0.005 A 
ENDBRANCH  19  20
BRANCH  19  26
ATOM     26  C   UNL     1       6.797  -3.999  23.428  0.00  0.00    -0.023 A 
ATOM     27  C   UNL     1       7.334  -5.292  23.207  0.00  0.00    +0.005 A 
ATOM     28  C   UNL     1       7.108  -5.990  22.018  0.00  0.00    +0.000 A 
ATOM     29  C   UNL     1       6.352  -5.410  21.009  0.00  0.00    +0.000 A 
ATOM     30  C   UNL     1       5.857  -4.120  21.176  0.00  0.00    +0.000 A 
ATOM     31  C   UNL     1       6.077  -3.421  22.369  0.00  0.00    +0.005 A 
ENDBRANCH  19  26
BRANCH  19  32
ATOM     32  C   UNL     1       6.129  -2.026  24.807  0.00  0.00    +0.079 C 
ATOM     33  N   UNL     1       5.463  -0.955  24.792  0.00  0.00    -0.195 NA
ENDBRANCH  19  32
ENDBRANCH  18  19
ENDBRANCH   1  18
TORSDOF 9
ENDMDL
MODEL 5
REMARK VINA RESULT:      -6.5      2.689      7.491
REMARK  Name = 
REMARK  9 active torsions:
REMARK  status: ('A' for Active; 'I' for Inactive)
REMARK    1  A    between atoms: O_1  and  C_2
REMARK    2  A    between atoms: C_2  and  C_4
REMARK    3  A    between atoms: C_4  and  C_27
REMARK    4  A    between atoms: N_7  and  C_8
REMARK    5  A    between atoms: C_8  and  C_9
REMARK    6  A    between atoms: C_9  and  C_10
REMARK    7  A    between atoms: C_10  and  C_11
REMARK    8  A    between atoms: C_10  and  C_13
REMARK    9  A    between atoms: C_10  and  C_19
REMARK                            x       y       z     vdW  Elec       q    Type
REMARK                         _______ _______ _______ _____ _____    ______ ____
ROOT
ATOM      1  C   UNL     1       8.281  -0.025  24.680  0.00  0.00    +0.086 C 
ENDROOT
BRANCH   1   5
ATOM      2  C   UNL     1       8.170  -3.688  24.708  0.00  0.00    +0.095 C 
ATOM      3  C   UNL     1       9.018  -2.766  23.785  0.00  0.00    +0.038 C 
ATOM      4  C   UNL     1       9.904  -1.816  24.611  0.00  0.00    +0.086 C 
ATOM      5  N   UNL     1       9.108  -0.950  25.484  0.00  0.00    -0.302 NA
ATOM      6  C   UNL     1       8.378  -1.789  26.451  0.00  0.00    +0.086 C 
ATOM      7  C   UNL     1       7.474  -2.848  25.812  0.00  0.00    +0.038 C 
BRANCH   2   8
ATOM      8  C   UNL     1       7.077  -4.526  24.009  0.00  0.00    -0.031 A 
ATOM      9  C   UNL     1       5.716  -4.424  24.316  0.00  0.00    +0.005 A 
ATOM     10  C   UNL     1       4.762  -5.040  23.501  0.00  0.00    +0.000 A 
ATOM     11  C   UNL     1       5.155  -5.783  22.387  0.00  0.00    +0.000 A 
ATOM     12  C   UNL     1       6.504  -5.991  22.138  0.00  0.00    +0.000 A 
ATOM     13  C   UNL     1       7.455  -5.401  22.966  0.00  0.00    +0.005 A 
ENDBRANCH   2   8
BRANCH   2  14
ATOM     14  C   UNL     1       9.214  -4.664  25.293  0.00  0.00    +0.315 C 
ATOM     15  O   UNL     1      10.304  -4.916  24.804  0.00  0.00    -0.250 OA
BRANCH  14  16
ATOM     16  O   UNL     1       8.814  -5.253  26.465  0.00  0.00    -0.480 OA
ATOM     17  H   UNL     1       8.144  -5.955  26.342  0.00  0.00    +0.295 HD
ENDBRANCH  14  16
ENDBRANCH   2  14
ENDBRANCH   1   5
BRANCH   1  18
ATOM     18  C   UNL     1       8.725   1.421  24.815  0.00  0.00    +0.046 C 
BRANCH  18  19
ATOM     19  C   UNL     1       8.485   2.362  23.594  0.00  0.00    +0.108 C 
BRANCH  19  20
ATOM     20  C   UNL     1       9.562   3.516  23.703  0.00  0.00    -0.023 A 
ATOM     21  C   UNL     1      10.921   3.309  23.356  0.00  0.00    +0.005 A 
ATOM     22  C   UNL     1      11.851   4.352  23.329  0.00  0.00    +0.000 A 
ATOM     23  C   UNL     1      11.456   5.637  23.671  0.00  0.00    +0.000 A 
ATOM     24  C   UNL     1      10.145   5.866  24.075  0.00  0.00    +0.000 A 
ATOM     25  C   UNL     1       9.212   4.820  24.109  0.00  0.00    +0.005 A 
ENDBRANCH  19  20
BRANCH  19  26
ATOM     26  C   UNL     1       7.019   2.897  23.614  0.00  0.00    -0.023 A 
ATOM     27  C   UNL     1       6.348   3.198  22.403  0.00  0.00    +0.005 A 
ATOM     28  C   UNL     1       4.994   3.541  22.376  0.00  0.00    +0.000 A 
ATOM     29  C   UNL     1       4.275   3.608  23.561  0.00  0.00    +0.000 A 
ATOM     30  C   UNL     1       4.919   3.371  24.771  0.00  0.00    +0.000 A 
ATOM     31  C   UNL     1       6.276   3.022  24.799  0.00  0.00    +0.005 A 
ENDBRANCH  19  26
BRANCH  19  32
ATOM     32  C   UNL     1       8.704   1.614  22.290  0.00  0.00    +0.079 C 
ATOM     33  N   UNL     1       8.887   0.992  21.208  0.00  0.00    -0.195 NA
ENDBRANCH  19  32
ENDBRANCH  18  19
ENDBRANCH   1  18
TORSDOF 9
ENDMDL
MODEL 6
REMARK VINA RESULT:      -6.5      3.003      6.965
REMARK  Name = 
REMARK  9 active torsions:
REMARK  status: ('A' for Active; 'I' for Inactive)
REMARK    1  A    between atoms: O_1  and  C_2
REMARK    2  A    between atoms: C_2  and  C_4
REMARK    3  A    between atoms: C_4  and  C_27
REMARK    4  A    between atoms: N_7  and  C_8
REMARK    5  A    between atoms: C_8  and  C_9
REMARK    6  A    between atoms: C_9  and  C_10
REMARK    7  A    between atoms: C_10  and  C_11
REMARK    8  A    between atoms: C_10  and  C_13
REMARK    9  A    between atoms: C_10  and  C_19
REMARK                            x       y       z     vdW  Elec       q    Type
REMARK                         _______ _______ _______ _____ _____    ______ ____
ROOT
ATOM      1  C   UNL     1       6.892   1.254  25.045  0.00  0.00    +0.086 C 
ENDROOT
BRANCH   1   5
ATOM      2  C   UNL     1       6.642  -2.394  25.296  0.00  0.00    +0.095 C 
ATOM      3  C   UNL     1       7.933  -1.527  25.247  0.00  0.00    +0.038 C 
ATOM      4  C   UNL     1       7.939  -0.476  26.371  0.00  0.00    +0.086 C 
ATOM      5  N   UNL     1       6.795   0.435  26.272  0.00  0.00    -0.302 NA
ATOM      6  C   UNL     1       5.553  -0.341  26.432  0.00  0.00    +0.086 C 
ATOM      7  C   UNL     1       5.390  -1.485  25.426  0.00  0.00    +0.038 C 
BRANCH   2   8
ATOM      8  C   UNL     1       6.408  -3.330  24.091  0.00  0.00    -0.031 A 
ATOM      9  C   UNL     1       7.406  -3.660  23.168  0.00  0.00    +0.005 A 
ATOM     10  C   UNL     1       7.193  -4.680  22.235  0.00  0.00    +0.000 A 
ATOM     11  C   UNL     1       5.977  -5.363  22.197  0.00  0.00    +0.000 A 
ATOM     12  C   UNL     1       4.938  -4.966  23.025  0.00  0.00    +0.000 A 
ATOM     13  C   UNL     1       5.139  -3.933  23.935  0.00  0.00    +0.005 A 
ENDBRANCH   2   8
BRANCH   2  14
ATOM     14  C   UNL     1       6.851  -3.275  26.547  0.00  0.00    +0.315 C 
ATOM     15  O   UNL     1       6.008  -3.511  27.398  0.00  0.00    -0.250 OA
BRANCH  14  16
ATOM     16  O   UNL     1       8.110  -3.808  26.637  0.00  0.00    -0.480 OA
ATOM     17  H   UNL     1       8.166  -4.586  27.226  0.00  0.00    +0.295 HD
ENDBRANCH  14  16
ENDBRANCH   2  14
ENDBRANCH   1   5
BRANCH   1  18
ATOM     18  C   UNL     1       8.138   2.123  25.020  0.00  0.00    +0.046 C 
BRANCH  18  19
ATOM     19  C   UNL     1       8.749   2.460  23.625  0.00  0.00    +0.108 C 
BRANCH  19  20
ATOM     20  C   UNL     1       9.387   1.117  23.083  0.00  0.00    -0.023 A 
ATOM     21  C   UNL     1      10.378   0.411  23.810  0.00  0.00    +0.005 A 
ATOM     22  C   UNL     1      10.854  -0.838  23.400  0.00  0.00    +0.000 A 
ATOM     23  C   UNL     1      10.371  -1.412  22.235  0.00  0.00    +0.000 A 
ATOM     24  C   UNL     1       9.443  -0.720  21.464  0.00  0.00    +0.000 A 
ATOM     25  C   UNL     1       8.968   0.535  21.869  0.00  0.00    +0.005 A 
ENDBRANCH  19  20
BRANCH  19  26
ATOM     26  C   UNL     1       9.792   3.613  23.766  0.00  0.00    -0.023 A 
ATOM     27  C   UNL     1      11.136   3.418  23.360  0.00  0.00    +0.005 A 
ATOM     28  C   UNL     1      12.058   4.467  23.337  0.00  0.00    +0.000 A 
ATOM     29  C   UNL     1      11.669   5.738  23.735  0.00  0.00    +0.000 A 
ATOM     30  C   UNL     1      10.371   5.949  24.190  0.00  0.00    +0.000 A 
ATOM     31  C   UNL     1       9.443   4.899  24.208  0.00  0.00    +0.005 A 
ENDBRANCH  19  26
BRANCH  19  32
ATOM     32  C   UNL     1       7.665   2.909  22.660  0.00  0.00    +0.079 C 
ATOM     33  N   UNL     1       6.764   3.281  21.860  0.00  0.00    -0.195 NA
ENDBRANCH  19  32
ENDBRANCH  18  19
ENDBRANCH   1  18
TORSDOF 9
ENDMDL
MODEL 7
REMARK VINA RESULT:      -6.5      1.842      2.913
REMARK  Name = 
REMARK  9 active torsions:
REMARK  status: ('A' for Active; 'I' for Inactive)
REMARK    1  A    between atoms: O_1  and  C_2
REMARK    2  A    between atoms: C_2  and  C_4
REMARK    3  A    between atoms: C_4  and  C_27
REMARK    4  A    between atoms: N_7  and  C_8
REMARK    5  A    between atoms: C_8  and  C_9
REMARK    6  A    between atoms: C_9  and  C_10
REMARK    7  A    between atoms: C_10  and  C_11
REMARK    8  A    between atoms: C_10  and  C_13
REMARK    9  A    between atoms: C_10  and  C_19
REMARK                            x       y       z     vdW  Elec       q    Type
REMARK                         _______ _______ _______ _____ _____    ______ ____
ROOT
ATOM      1  C   UNL     1       8.642  -2.002  25.130  0.00  0.00    +0.086 C 
ENDROOT
BRANCH   1   5
ATOM      2  C   UNL     1       8.831   1.377  23.723  0.00  0.00    +0.095 C 
ATOM      3  C   UNL     1       9.977   0.547  24.368  0.00  0.00    +0.038 C 
ATOM      4  C   UNL     1      10.147  -0.809  23.660  0.00  0.00    +0.086 C 
ATOM      5  N   UNL     1       8.927  -1.618  23.731  0.00  0.00    -0.302 NA
ATOM      6  C   UNL     1       7.844  -0.910  23.025  0.00  0.00    +0.086 C 
ATOM      7  C   UNL     1       7.561   0.500  23.555  0.00  0.00    +0.038 C 
BRANCH   2   8
ATOM      8  C   UNL     1       8.410   2.654  24.481  0.00  0.00    -0.031 A 
ATOM      9  C   UNL     1       7.480   2.657  25.526  0.00  0.00    +0.005 A 
ATOM     10  C   UNL     1       7.310   3.800  26.315  0.00  0.00    +0.000 A 
ATOM     11  C   UNL     1       8.045   4.956  26.054  0.00  0.00    +0.000 A 
ATOM     12  C   UNL     1       8.883   5.006  24.949  0.00  0.00    +0.000 A 
ATOM     13  C   UNL     1       9.032   3.879  24.148  0.00  0.00    +0.005 A 
ENDBRANCH   2   8
BRANCH   2  14
ATOM     14  C   UNL     1       9.423   1.807  22.362  0.00  0.00    +0.315 C 
ATOM     15  O   UNL     1      10.603   2.022  22.138  0.00  0.00    -0.250 OA
BRANCH  14  16
ATOM     16  O   UNL     1       8.483   1.928  21.372  0.00  0.00    -0.480 OA
ATOM     17  H   UNL     1       8.547   2.765  20.871  0.00  0.00    +0.295 HD
ENDBRANCH  14  16
ENDBRANCH   2  14
ENDBRANCH   1   5
BRANCH   1  18
ATOM     18  C   UNL     1       7.414  -2.887  25.253  0.00  0.00    +0.046 C 
BRANCH  18  19
ATOM     19  C   UNL     1       7.598  -4.412  24.981  0.00  0.00    +0.108 C 
BRANCH  19  20
ATOM     20  C   UNL     1       7.121  -4.659  23.493  0.00  0.00    -0.023 A 
ATOM     21  C   UNL     1       7.636  -5.720  22.706  0.00  0.00    +0.005 A 
ATOM     22  C   UNL     1       7.129  -6.022  21.439  0.00  0.00    +0.000 A 
ATOM     23  C   UNL     1       6.104  -5.256  20.905  0.00  0.00    +0.000 A 
ATOM     24  C   UNL     1       5.617  -4.169  21.623  0.00  0.00    +0.000 A 
ATOM     25  C   UNL     1       6.127  -3.860  22.891  0.00  0.00    +0.005 A 
ENDBRANCH  19  20
BRANCH  19  26
ATOM     26  C   UNL     1       6.785  -5.241  26.024  0.00  0.00    -0.023 A 
ATOM     27  C   UNL     1       7.149  -5.225  27.393  0.00  0.00    +0.005 A 
ATOM     28  C   UNL     1       6.361  -5.837  28.372  0.00  0.00    +0.000 A 
ATOM     29  C   UNL     1       5.196  -6.497  28.008  0.00  0.00    +0.000 A 
ATOM     30  C   UNL     1       4.841  -6.576  26.664  0.00  0.00    +0.000 A 
ATOM     31  C   UNL     1       5.626  -5.958  25.683  0.00  0.00    +0.005 A 
ENDBRANCH  19  26
BRANCH  19  32
ATOM     32  C   UNL     1       9.062  -4.803  25.094  0.00  0.00    +0.079 C 
ATOM     33  N   UNL     1      10.277  -5.128  25.188  0.00  0.00    -0.195 NA
ENDBRANCH  19  32
ENDBRANCH  18  19
ENDBRANCH   1  18
TORSDOF 9
ENDMDL
MODEL 8
REMARK VINA RESULT:      -6.3      4.005      7.231
REMARK  Name = 
REMARK  9 active torsions:
REMARK  status: ('A' for Active; 'I' for Inactive)
REMARK    1  A    between atoms: O_1  and  C_2
REMARK    2  A    between atoms: C_2  and  C_4
REMARK    3  A    between atoms: C_4  and  C_27
REMARK    4  A    between atoms: N_7  and  C_8
REMARK    5  A    between atoms: C_8  and  C_9
REMARK    6  A    between atoms: C_9  and  C_10
REMARK    7  A    between atoms: C_10  and  C_11
REMARK    8  A    between atoms: C_10  and  C_13
REMARK    9  A    between atoms: C_10  and  C_19
REMARK                            x       y       z     vdW  Elec       q    Type
REMARK                         _______ _______ _______ _____ _____    ______ ____
ROOT
ATOM      1  C   UNL     1       7.552  -4.198  26.182  0.00  0.00    +0.086 C 
ENDROOT
BRANCH   1   5
ATOM      2  C   UNL     1       4.156  -5.492  26.655  0.00  0.00    +0.095 C 
ATOM      3  C   UNL     1       5.487  -6.296  26.619  0.00  0.00    +0.038 C 
ATOM      4  C   UNL     1       6.481  -5.773  27.671  0.00  0.00    +0.086 C 
ATOM      5  N   UNL     1       6.815  -4.363  27.452  0.00  0.00    -0.302 NA
ATOM      6  C   UNL     1       5.590  -3.555  27.595  0.00  0.00    +0.086 C 
ATOM      7  C   UNL     1       4.450  -3.967  26.658  0.00  0.00    +0.038 C 
BRANCH   2   8
ATOM      8  C   UNL     1       3.166  -5.767  25.502  0.00  0.00    -0.031 A 
ATOM      9  C   UNL     1       2.237  -4.827  25.046  0.00  0.00    +0.005 A 
ATOM     10  C   UNL     1       1.528  -5.054  23.862  0.00  0.00    +0.000 A 
ATOM     11  C   UNL     1       1.720  -6.230  23.136  0.00  0.00    +0.000 A 
ATOM     12  C   UNL     1       2.550  -7.222  23.637  0.00  0.00    +0.000 A 
ATOM     13  C   UNL     1       3.235  -7.008  24.830  0.00  0.00    +0.005 A 
ENDBRANCH   2   8
BRANCH   2  14
ATOM     14  C   UNL     1       3.493  -5.957  27.970  0.00  0.00    +0.315 C 
ATOM     15  O   UNL     1       2.907  -5.237  28.763  0.00  0.00    -0.250 OA
BRANCH  14  16
ATOM     16  O   UNL     1       3.607  -7.305  28.193  0.00  0.00    -0.480 OA
ATOM     17  H   UNL     1       4.492  -7.663  27.985  0.00  0.00    +0.295 HD
ENDBRANCH  14  16
ENDBRANCH   2  14
ENDBRANCH   1   5
BRANCH   1  18
ATOM     18  C   UNL     1       7.902  -2.749  25.894  0.00  0.00    +0.046 C 
BRANCH  18  19
ATOM     19  C   UNL     1       7.341  -2.122  24.580  0.00  0.00    +0.108 C 
BRANCH  19  20
ATOM     20  C   UNL     1       6.840  -3.330  23.690  0.00  0.00    -0.023 A 
ATOM     21  C   UNL     1       7.707  -4.380  23.293  0.00  0.00    +0.005 A 
ATOM     22  C   UNL     1       7.245  -5.512  22.616  0.00  0.00    +0.000 A 
ATOM     23  C   UNL     1       5.901  -5.622  22.292  0.00  0.00    +0.000 A 
ATOM     24  C   UNL     1       5.033  -4.583  22.612  0.00  0.00    +0.000 A 
ATOM     25  C   UNL     1       5.494  -3.444  23.285  0.00  0.00    +0.005 A 
ENDBRANCH  19  20
BRANCH  19  26
ATOM     26  C   UNL     1       8.448  -1.273  23.881  0.00  0.00    -0.023 A 
ATOM     27  C   UNL     1       8.335  -0.936  22.508  0.00  0.00    +0.005 A 
ATOM     28  C   UNL     1       9.230  -0.061  21.888  0.00  0.00    +0.000 A 
ATOM     29  C   UNL     1      10.274   0.490  22.616  0.00  0.00    +0.000 A 
ATOM     30  C   UNL     1      10.444   0.136  23.951  0.00  0.00    +0.000 A 
ATOM     31  C   UNL     1       9.544  -0.737  24.577  0.00  0.00    +0.005 A 
ENDBRANCH  19  26
BRANCH  19  32
ATOM     32  C   UNL     1       6.160  -1.216  24.881  0.00  0.00    +0.079 C 
ATOM     33  N   UNL     1       5.179  -0.463  25.129  0.00  0.00    -0.195 NA
ENDBRANCH  19  32
ENDBRANCH  18  19
ENDBRANCH   1  18
TORSDOF 9
ENDMDL
MODEL 9
REMARK VINA RESULT:      -6.3      3.886      7.707
REMARK  Name = 
REMARK  9 active torsions:
REMARK  status: ('A' for Active; 'I' for Inactive)
REMARK    1  A    between atoms: O_1  and  C_2
REMARK    2  A    between atoms: C_2  and  C_4
REMARK    3  A    between atoms: C_4  and  C_27
REMARK    4  A    between atoms: N_7  and  C_8
REMARK    5  A    between atoms: C_8  and  C_9
REMARK    6  A    between atoms: C_9  and  C_10
REMARK    7  A    between atoms: C_10  and  C_11
REMARK    8  A    between atoms: C_10  and  C_13
REMARK    9  A    between atoms: C_10  and  C_19
REMARK                            x       y       z     vdW  Elec       q    Type
REMARK                         _______ _______ _______ _____ _____    ______ ____
ROOT
ATOM      1  C   UNL     1       7.634  -4.414  26.299  0.00  0.00    +0.086 C 
ENDROOT
BRANCH   1   5
ATOM      2  C   UNL     1       4.160  -5.519  26.679  0.00  0.00    +0.095 C 
ATOM      3  C   UNL     1       5.449  -6.386  26.747  0.00  0.00    +0.038 C 
ATOM      4  C   UNL     1       6.420  -5.853  27.817  0.00  0.00    +0.086 C 
ATOM      5  N   UNL     1       6.833  -4.474  27.541  0.00  0.00    -0.302 NA
ATOM      6  C   UNL     1       5.645  -3.604  27.583  0.00  0.00    +0.086 C 
ATOM      7  C   UNL     1       4.528  -4.012  26.616  0.00  0.00    +0.038 C 
BRANCH   2   8
ATOM      8  C   UNL     1       3.210  -5.809  25.496  0.00  0.00    -0.031 A 
ATOM      9  C   UNL     1       2.292  -4.878  25.001  0.00  0.00    +0.005 A 
ATOM     10  C   UNL     1       1.624  -5.120  23.796  0.00  0.00    +0.000 A 
ATOM     11  C   UNL     1       1.846  -6.301  23.087  0.00  0.00    +0.000 A 
ATOM     12  C   UNL     1       2.664  -7.284  23.625  0.00  0.00    +0.000 A 
ATOM     13  C   UNL     1       3.307  -7.056  24.838  0.00  0.00    +0.005 A 
ENDBRANCH   2   8
BRANCH   2  14
ATOM     14  C   UNL     1       3.416  -5.880  27.983  0.00  0.00    +0.315 C 
ATOM     15  O   UNL     1       2.835  -5.091  28.711  0.00  0.00    -0.250 OA
BRANCH  14  16
ATOM     16  O   UNL     1       3.449  -7.218  28.279  0.00  0.00    -0.480 OA
ATOM     17  H   UNL     1       4.345  -7.552  28.484  0.00  0.00    +0.295 HD
ENDBRANCH  14  16
ENDBRANCH   2  14
ENDBRANCH   1   5
BRANCH   1  18
ATOM     18  C   UNL     1       7.900  -2.989  25.846  0.00  0.00    +0.046 C 
BRANCH  18  19
ATOM     19  C   UNL     1       7.861  -2.706  24.312  0.00  0.00    +0.108 C 
BRANCH  19  20
ATOM     20  C   UNL     1       7.177  -1.290  24.139  0.00  0.00    -0.023 A 
ATOM     21  C   UNL     1       6.265  -0.776  25.095  0.00  0.00    +0.005 A 
ATOM     22  C   UNL     1       5.755   0.523  25.015  0.00  0.00    +0.000 A 
ATOM     23  C   UNL     1       6.121   1.344  23.960  0.00  0.00    +0.000 A 
ATOM     24  C   UNL     1       6.965   0.851  22.969  0.00  0.00    +0.000 A 
ATOM     25  C   UNL     1       7.474  -0.452  23.045  0.00  0.00    +0.005 A 
ENDBRANCH  19  20
BRANCH  19  26
ATOM     26  C   UNL     1       7.088  -3.847  23.580  0.00  0.00    -0.023 A 
ATOM     27  C   UNL     1       5.706  -3.709  23.294  0.00  0.00    +0.005 A 
ATOM     28  C   UNL     1       5.018  -4.643  22.517  0.00  0.00    +0.000 A 
ATOM     29  C   UNL     1       5.686  -5.751  22.015  0.00  0.00    +0.000 A 
ATOM     30  C   UNL     1       7.030  -5.942  22.323  0.00  0.00    +0.000 A 
ATOM     31  C   UNL     1       7.723  -5.003  23.098  0.00  0.00    +0.005 A 
ENDBRANCH  19  26
BRANCH  19  32
ATOM     32  C   UNL     1       9.269  -2.639  23.744  0.00  0.00    +0.079 C 
ATOM     33  N   UNL     1      10.437  -2.582  23.273  0.00  0.00    -0.195 NA
ENDBRANCH  19  32
ENDBRANCH  18  19
ENDBRANCH   1  18
TORSDOF 9
ENDMDL
