MODEL 1
REMARK VINA RESULT:      -6.6      0.000      0.000
REMARK  Name = 
REMARK  31 active torsions:
REMARK  status: ('A' for Active; 'I' for Inactive)
REMARK    1  A    between atoms: C_1  and  C_2
REMARK    2  A    between atoms: C_2  and  C_3
REMARK    3  A    between atoms: C_2  and  C_4
REMARK    4  A    between atoms: C_2  and  C_40
REMARK    5  A    between atoms: C_4  and  O_5
REMARK    6  A    between atoms: O_5  and  P_6
REMARK    7  A    between atoms: P_6  and  O_7
REMARK    8  A    between atoms: P_6  and  O_9
REMARK    9  A    between atoms: O_9  and  P_10
REMARK   10  A    between atoms: P_10  and  O_11
REMARK   11  A    between atoms: P_10  and  O_13
REMARK   12  A    between atoms: O_13  and  C_14
REMARK   13  A    between atoms: C_14  and  C_15
REMARK   14  A    between atoms: C_18  and  N_30
REMARK   15  A    between atoms: C_20  and  O_22
REMARK   16  A    between atoms: C_23  and  O_25
REMARK   17  A    between atoms: O_25  and  P_26
REMARK   18  A    between atoms: P_26  and  O_27
REMARK   19  A    between atoms: P_26  and  O_28
REMARK   20  A    between atoms: C_40  and  O_42
REMARK   21  A    between atoms: C_40  and  C_43
REMARK   22  A    between atoms: N_45  and  C_46
REMARK   23  A    between atoms: C_46  and  C_47
REMARK   24  A    between atoms: C_47  and  C_48
REMARK   25  A    between atoms: N_50  and  C_51
REMARK   26  A    between atoms: C_51  and  C_52
REMARK   27  A    between atoms: C_52  and  S_53
REMARK   28  A    between atoms: S_53  and  C_54
REMARK   29  A    between atoms: C_54  and  C_55
REMARK   30  A    between atoms: C_55  and  C_57
REMARK   31  A    between atoms: C_60  and  O_61
REMARK                            x       y       z     vdW  Elec       q    Type
REMARK                         _______ _______ _______ _____ _____    ______ ____
ROOT
ATOM      1  P   UNL     1       3.068   3.193  24.779  0.00  0.00    +0.483 P 
ATOM      2  O   UNL     1       2.507   2.976  23.377  0.00  0.00    -0.227 OA
ENDROOT
BRANCH   1   3
ATOM      3  O   UNL     1       1.710   2.312  25.391  0.00  0.00    -0.302 OA
ATOM      4  H   UNL     1       2.008   1.381  25.307  0.00  0.00    +0.222 HD
ENDBRANCH   1   3
BRANCH   1   5
ATOM      5  O   UNL     1       4.018   1.908  25.157  0.00  0.00    -0.286 OA
BRANCH   5   6
ATOM      6  C   UNL     1       4.145   1.640  26.549  0.00  0.00    +0.181 C 
BRANCH   6   8
ATOM      7  C   UNL     1       5.366  -0.297  25.495  0.00  0.00    +0.016 C 
ATOM      8  C   UNL     1       4.712   0.229  26.796  0.00  0.00    +0.024 C 
ATOM      9  C   UNL     1       5.817   0.286  27.867  0.00  0.00    +0.016 C 
BRANCH   8  10
ATOM     10  C   UNL     1       3.546  -0.720  27.188  0.00  0.00    +0.208 C 
BRANCH  10  11
ATOM     11  C   UNL     1       3.667  -2.141  26.591  0.00  0.00    +0.242 C 
ATOM     12  N   UNL     1       4.524  -2.978  27.277  0.00  0.00    -0.313 N 
ATOM     13  H   UNL     1       5.207  -2.492  27.851  0.00  0.00    +0.149 HD
ATOM     14  O   UNL     1       2.984  -2.500  25.634  0.00  0.00    -0.273 OA
BRANCH  12  15
ATOM     15  C   UNL     1       4.875  -4.288  26.759  0.00  0.00    +0.113 C 
BRANCH  15  16
ATOM     16  C   UNL     1       5.379  -5.229  27.849  0.00  0.00    +0.114 C 
BRANCH  16  17
ATOM     17  C   UNL     1       4.354  -6.310  28.126  0.00  0.00    +0.215 C 
ATOM     18  N   UNL     1       3.194  -6.176  27.390  0.00  0.00    -0.314 N 
ATOM     19  H   UNL     1       3.147  -5.467  26.671  0.00  0.00    +0.149 HD
ATOM     20  O   UNL     1       4.543  -7.213  28.934  0.00  0.00    -0.276 OA
BRANCH  18  21
ATOM     21  C   UNL     1       2.116  -7.158  27.437  0.00  0.00    +0.115 C 
BRANCH  21  22
ATOM     22  C   UNL     1       1.300  -7.207  26.143  0.00  0.00    +0.088 C 
BRANCH  22  23
ATOM     23  S   UNL     1       1.538  -5.744  25.087  0.00  0.00    -0.151 S 
BRANCH  23  24
ATOM     24  C   UNL     1       2.447  -6.491  23.689  0.00  0.00    +0.148 C 
BRANCH  24  25
ATOM     25  C   UNL     1       3.936  -6.672  23.944  0.00  0.00    +0.173 C 
ATOM     26  O   UNL     1       4.398  -7.540  24.682  0.00  0.00    -0.291 OA
BRANCH  25  27
ATOM     27  C   UNL     1       4.878  -5.724  23.265  0.00  0.00    +0.018 A 
ATOM     28  C   UNL     1       4.474  -4.392  23.106  0.00  0.00    +0.015 A 
ATOM     29  C   UNL     1       5.349  -3.450  22.560  0.00  0.00    +0.046 A 
ATOM     30  C   UNL     1       6.633  -3.844  22.202  0.00  0.00    +0.117 A 
ATOM     31  C   UNL     1       7.049  -5.163  22.335  0.00  0.00    +0.046 A 
ATOM     32  C   UNL     1       6.160  -6.110  22.857  0.00  0.00    +0.015 A 
BRANCH  30  33
ATOM     33  O   UNL     1       7.492  -2.881  21.765  0.00  0.00    -0.507 OA
ATOM     34  H   UNL     1       7.040  -2.372  21.070  0.00  0.00    +0.292 HD
ENDBRANCH  30  33
ENDBRANCH  25  27
ENDBRANCH  24  25
ENDBRANCH  23  24
ENDBRANCH  22  23
ENDBRANCH  21  22
ENDBRANCH  18  21
ENDBRANCH  16  17
ENDBRANCH  15  16
ENDBRANCH  12  15
ENDBRANCH  10  11
BRANCH  10  35
ATOM     35  O   UNL     1       2.293  -0.141  26.819  0.00  0.00    -0.382 OA
ATOM     36  H   UNL     1       2.388   0.823  26.932  0.00  0.00    +0.210 HD
ENDBRANCH  10  35
ENDBRANCH   8  10
ENDBRANCH   6   8
ENDBRANCH   5   6
ENDBRANCH   1   5
BRANCH   1  37
ATOM     37  O   UNL     1       4.427   4.072  24.167  0.00  0.00    -0.186 OA
BRANCH  37  38
ATOM     38  P   UNL     1       5.470   2.995  23.306  0.00  0.00    +0.483 P 
ATOM     39  O   UNL     1       6.694   3.769  23.796  0.00  0.00    -0.227 OA
BRANCH  38  40
ATOM     40  O   UNL     1       5.035   3.821  21.961  0.00  0.00    -0.302 OA
ATOM     41  H   UNL     1       4.810   4.721  22.284  0.00  0.00    +0.222 HD
ENDBRANCH  38  40
BRANCH  38  42
ATOM     42  O   UNL     1       6.514   1.918  22.444  0.00  0.00    -0.284 OA
BRANCH  42  43
ATOM     43  C   UNL     1       7.533   2.511  21.632  0.00  0.00    +0.206 C 
BRANCH  43  44
ATOM     44  C   UNL     1       8.902   1.906  21.913  0.00  0.00    +0.179 C 
ATOM     45  C   UNL     1       9.463   2.460  23.197  0.00  0.00    +0.194 C 
ATOM     46  C   UNL     1       9.344   1.335  24.223  0.00  0.00    +0.196 C 
ATOM     47  C   UNL     1       8.657   0.200  23.496  0.00  0.00    +0.253 C 
ATOM     48  O   UNL     1       8.787   0.484  22.096  0.00  0.00    -0.346 OA
BRANCH  47  49
ATOM     49  N   UNL     1       9.267  -1.086  23.799  0.00  0.00    -0.286 N 
ATOM     50  C   UNL     1       8.960  -1.903  24.859  0.00  0.00    +0.167 A 
ATOM     51  N   UNL     1       8.232  -1.617  25.953  0.00  0.00    -0.216 NA
ATOM     52  C   UNL     1       8.194  -2.691  26.783  0.00  0.00    +0.225 A 
ATOM     53  N   UNL     1       8.671  -3.938  26.572  0.00  0.00    -0.219 NA
ATOM     54  C   UNL     1       9.344  -4.181  25.427  0.00  0.00    +0.147 A 
ATOM     55  N   UNL     1       9.772  -5.467  25.162  0.00  0.00    -0.341 N 
ATOM     56  H   UNL     1      10.433  -5.559  24.398  0.00  0.00    +0.144 HD
ATOM     57  H   UNL     1       9.871  -6.070  25.964  0.00  0.00    +0.144 HD
ATOM     58  C   UNL     1       9.583  -3.105  24.558  0.00  0.00    +0.147 A 
ATOM     59  N   UNL     1      10.361  -2.980  23.434  0.00  0.00    -0.231 NA
ATOM     60  C   UNL     1      10.230  -1.723  23.072  0.00  0.00    +0.203 A 
ENDBRANCH  47  49
BRANCH  46  61
ATOM     61  O   UNL     1       8.629   1.790  25.368  0.00  0.00    -0.385 OA
ATOM     62  H   UNL     1       7.708   1.975  25.082  0.00  0.00    +0.210 HD
ENDBRANCH  46  61
BRANCH  45  63
ATOM     63  O   UNL     1      10.847   2.770  23.012  0.00  0.00    -0.278 OA
BRANCH  63  64
ATOM     64  P   UNL     1      11.076   4.320  23.748  0.00  0.00    +0.473 P 
ATOM     65  O   UNL     1      11.282   5.706  24.406  0.00  0.00    -0.228 OA
BRANCH  64  66
ATOM     66  O   UNL     1       9.629   4.649  23.063  0.00  0.00    -0.303 OA
ATOM     67  H   UNL     1       9.712   5.530  22.652  0.00  0.00    +0.222 HD
ENDBRANCH  64  66
BRANCH  64  68
ATOM     68  O   UNL     1      11.946   4.662  22.405  0.00  0.00    -0.303 OA
ATOM     69  H   UNL     1      12.705   4.058  22.302  0.00  0.00    +0.222 HD
ENDBRANCH  64  68
ENDBRANCH  63  64
ENDBRANCH  45  63
ENDBRANCH  43  44
ENDBRANCH  42  43
ENDBRANCH  38  42
ENDBRANCH  37  38
ENDBRANCH   1  37
TORSDOF 29
ENDMDL
MODEL 2
REMARK VINA RESULT:      -6.5      4.012      9.901
REMARK  Name = 
REMARK  31 active torsions:
REMARK  status: ('A' for Active; 'I' for Inactive)
REMARK    1  A    between atoms: C_1  and  C_2
REMARK    2  A    between atoms: C_2  and  C_3
REMARK    3  A    between atoms: C_2  and  C_4
REMARK    4  A    between atoms: C_2  and  C_40
REMARK    5  A    between atoms: C_4  and  O_5
REMARK    6  A    between atoms: O_5  and  P_6
REMARK    7  A    between atoms: P_6  and  O_7
REMARK    8  A    between atoms: P_6  and  O_9
REMARK    9  A    between atoms: O_9  and  P_10
REMARK   10  A    between atoms: P_10  and  O_11
REMARK   11  A    between atoms: P_10  and  O_13
REMARK   12  A    between atoms: O_13  and  C_14
REMARK   13  A    between atoms: C_14  and  C_15
REMARK   14  A    between atoms: C_18  and  N_30
REMARK   15  A    between atoms: C_20  and  O_22
REMARK   16  A    between atoms: C_23  and  O_25
REMARK   17  A    between atoms: O_25  and  P_26
REMARK   18  A    between atoms: P_26  and  O_27
REMARK   19  A    between atoms: P_26  and  O_28
REMARK   20  A    between atoms: C_40  and  O_42
REMARK   21  A    between atoms: C_40  and  C_43
REMARK   22  A    between atoms: N_45  and  C_46
REMARK   23  A    between atoms: C_46  and  C_47
REMARK   24  A    between atoms: C_47  and  C_48
REMARK   25  A    between atoms: N_50  and  C_51
REMARK   26  A    between atoms: C_51  and  C_52
REMARK   27  A    between atoms: C_52  and  S_53
REMARK   28  A    between atoms: S_53  and  C_54
REMARK   29  A    between atoms: C_54  and  C_55
REMARK   30  A    between atoms: C_55  and  C_57
REMARK   31  A    between atoms: C_60  and  O_61
REMARK                            x       y       z     vdW  Elec       q    Type
REMARK                         _______ _______ _______ _____ _____    ______ ____
ROOT
ATOM      1  P   UNL     1       6.632  -5.410  22.669  0.00  0.00    +0.483 P 
ATOM      2  O   UNL     1       6.959  -5.993  21.298  0.00  0.00    -0.227 OA
ENDROOT
BRANCH   1   3
ATOM      3  O   UNL     1       8.297  -5.629  23.089  0.00  0.00    -0.302 OA
ATOM      4  H   UNL     1       8.756  -5.082  22.417  0.00  0.00    +0.222 HD
ENDBRANCH   1   3
BRANCH   1   5
ATOM      5  O   UNL     1       6.902  -3.791  22.618  0.00  0.00    -0.286 OA
BRANCH   5   6
ATOM      6  C   UNL     1       8.098  -3.357  23.256  0.00  0.00    +0.181 C 
BRANCH   6   8
ATOM      7  C   UNL     1       8.978  -1.295  24.405  0.00  0.00    +0.016 C 
ATOM      8  C   UNL     1       8.270  -1.831  23.138  0.00  0.00    +0.024 C 
ATOM      9  C   UNL     1       9.176  -1.495  21.938  0.00  0.00    +0.016 C 
BRANCH   8  10
ATOM     10  C   UNL     1       6.867  -1.173  23.032  0.00  0.00    +0.208 C 
BRANCH  10  11
ATOM     11  C   UNL     1       6.904   0.370  22.931  0.00  0.00    +0.242 C 
ATOM     12  N   UNL     1       5.954   1.015  23.697  0.00  0.00    -0.313 N 
ATOM     13  H   UNL     1       5.159   0.434  23.949  0.00  0.00    +0.149 HD
ATOM     14  O   UNL     1       7.769   0.954  22.282  0.00  0.00    -0.273 OA
BRANCH  12  15
ATOM     15  C   UNL     1       5.747   2.448  23.593  0.00  0.00    +0.113 C 
BRANCH  15  16
ATOM     16  C   UNL     1       4.848   2.987  24.701  0.00  0.00    +0.114 C 
BRANCH  16  17
ATOM     17  C   UNL     1       4.392   4.394  24.371  0.00  0.00    +0.215 C 
ATOM     18  N   UNL     1       4.790   4.828  23.123  0.00  0.00    -0.314 N 
ATOM     19  H   UNL     1       5.243   4.176  22.497  0.00  0.00    +0.149 HD
ATOM     20  O   UNL     1       3.736   5.079  25.148  0.00  0.00    -0.276 OA
BRANCH  18  21
ATOM     21  C   UNL     1       4.383   6.115  22.572  0.00  0.00    +0.115 C 
BRANCH  21  22
ATOM     22  C   UNL     1       5.568   7.043  22.291  0.00  0.00    +0.088 C 
BRANCH  22  23
ATOM     23  S   UNL     1       7.166   6.174  22.238  0.00  0.00    -0.151 S 
BRANCH  23  24
ATOM     24  C   UNL     1       7.781   6.511  23.925  0.00  0.00    +0.148 C 
BRANCH  24  25
ATOM     25  C   UNL     1       8.558   5.357  24.543  0.00  0.00    +0.173 C 
ATOM     26  O   UNL     1       8.043   4.493  25.249  0.00  0.00    -0.291 OA
BRANCH  25  27
ATOM     27  C   UNL     1      10.032   5.292  24.281  0.00  0.00    +0.018 A 
ATOM     28  C   UNL     1      10.536   4.164  23.620  0.00  0.00    +0.015 A 
ATOM     29  C   UNL     1      11.888   4.095  23.272  0.00  0.00    +0.046 A 
ATOM     30  C   UNL     1      12.719   5.171  23.566  0.00  0.00    +0.117 A 
ATOM     31  C   UNL     1      12.244   6.291  24.237  0.00  0.00    +0.046 A 
ATOM     32  C   UNL     1      10.895   6.344  24.607  0.00  0.00    +0.015 A 
BRANCH  30  33
ATOM     33  O   UNL     1      14.008   5.113  23.127  0.00  0.00    -0.507 OA
ATOM     34  H   UNL     1      14.009   4.659  22.267  0.00  0.00    +0.292 HD
ENDBRANCH  30  33
ENDBRANCH  25  27
ENDBRANCH  24  25
ENDBRANCH  23  24
ENDBRANCH  22  23
ENDBRANCH  21  22
ENDBRANCH  18  21
ENDBRANCH  16  17
ENDBRANCH  15  16
ENDBRANCH  12  15
ENDBRANCH  10  11
BRANCH  10  35
ATOM     35  O   UNL     1       6.051  -1.570  24.135  0.00  0.00    -0.382 OA
ATOM     36  H   UNL     1       5.990  -2.543  24.100  0.00  0.00    +0.210 HD
ENDBRANCH  10  35
ENDBRANCH   8  10
ENDBRANCH   6   8
ENDBRANCH   5   6
ENDBRANCH   1   5
BRANCH   1  37
ATOM     37  O   UNL     1       4.969  -5.190  22.249  0.00  0.00    -0.186 OA
BRANCH  37  38
ATOM     38  P   UNL     1       3.991  -5.341  23.668  0.00  0.00    +0.483 P 
ATOM     39  O   UNL     1       2.724  -5.315  22.812  0.00  0.00    -0.227 OA
BRANCH  38  40
ATOM     40  O   UNL     1       4.294  -3.751  23.914  0.00  0.00    -0.302 OA
ATOM     41  H   UNL     1       4.672  -3.435  23.064  0.00  0.00    +0.222 HD
ENDBRANCH  38  40
BRANCH  38  42
ATOM     42  O   UNL     1       3.013  -5.491  25.087  0.00  0.00    -0.284 OA
BRANCH  42  43
ATOM     43  C   UNL     1       2.309  -4.321  25.518  0.00  0.00    +0.206 C 
BRANCH  43  44
ATOM     44  C   UNL     1       2.638  -3.964  26.962  0.00  0.00    +0.179 C 
ATOM     45  C   UNL     1       3.977  -4.538  27.348  0.00  0.00    +0.194 C 
ATOM     46  C   UNL     1       4.939  -3.354  27.394  0.00  0.00    +0.196 C 
ATOM     47  C   UNL     1       4.122  -2.155  26.967  0.00  0.00    +0.253 C 
ATOM     48  O   UNL     1       2.747  -2.538  27.107  0.00  0.00    -0.346 OA
BRANCH  47  49
ATOM     49  N   UNL     1       4.398  -0.989  27.792  0.00  0.00    -0.286 N 
ATOM     50  C   UNL     1       5.382  -0.055  27.580  0.00  0.00    +0.167 A 
ATOM     51  N   UNL     1       6.429  -0.120  26.739  0.00  0.00    -0.216 NA
ATOM     52  C   UNL     1       7.191   0.999  26.855  0.00  0.00    +0.225 A 
ATOM     53  N   UNL     1       6.947   2.115  27.577  0.00  0.00    -0.219 NA
ATOM     54  C   UNL     1       5.847   2.144  28.358  0.00  0.00    +0.147 A 
ATOM     55  N   UNL     1       5.543   3.305  29.043  0.00  0.00    -0.341 N 
ATOM     56  H   UNL     1       4.829   3.216  29.759  0.00  0.00    +0.144 HD
ATOM     57  H   UNL     1       6.315   3.934  29.203  0.00  0.00    +0.144 HD
ATOM     58  C   UNL     1       5.063   0.983  28.442  0.00  0.00    +0.147 A 
ATOM     59  N   UNL     1       4.012   0.634  29.253  0.00  0.00    -0.231 NA
ATOM     60  C   UNL     1       3.714  -0.598  28.907  0.00  0.00    +0.203 A 
ENDBRANCH  47  49
BRANCH  46  61
ATOM     61  O   UNL     1       6.063  -3.603  26.553  0.00  0.00    -0.385 OA
ATOM     62  H   UNL     1       6.611  -4.289  26.996  0.00  0.00    +0.210 HD
ENDBRANCH  46  61
BRANCH  45  63
ATOM     63  O   UNL     1       3.886  -5.109  28.656  0.00  0.00    -0.278 OA
BRANCH  63  64
ATOM     64  P   UNL     1       4.972  -6.456  28.649  0.00  0.00    +0.473 P 
ATOM     65  O   UNL     1       5.944  -7.661  28.644  0.00  0.00    -0.228 OA
BRANCH  64  66
ATOM     66  O   UNL     1       3.907  -7.069  27.573  0.00  0.00    -0.303 OA
ATOM     67  H   UNL     1       4.062  -8.033  27.547  0.00  0.00    +0.222 HD
ENDBRANCH  64  66
BRANCH  64  68
ATOM     68  O   UNL     1       4.135  -6.946  29.968  0.00  0.00    -0.303 OA
ATOM     69  H   UNL     1       3.172  -6.925  29.813  0.00  0.00    +0.222 HD
ENDBRANCH  64  68
ENDBRANCH  63  64
ENDBRANCH  45  63
ENDBRANCH  43  44
ENDBRANCH  42  43
ENDBRANCH  38  42
ENDBRANCH  37  38
ENDBRANCH   1  37
TORSDOF 29
ENDMDL
MODEL 3
REMARK VINA RESULT:      -6.5      3.239      8.115
REMARK  Name = 
REMARK  31 active torsions:
REMARK  status: ('A' for Active; 'I' for Inactive)
REMARK    1  A    between atoms: C_1  and  C_2
REMARK    2  A    between atoms: C_2  and  C_3
REMARK    3  A    between atoms: C_2  and  C_4
REMARK    4  A    between atoms: C_2  and  C_40
REMARK    5  A    between atoms: C_4  and  O_5
REMARK    6  A    between atoms: O_5  and  P_6
REMARK    7  A    between atoms: P_6  and  O_7
REMARK    8  A    between atoms: P_6  and  O_9
REMARK    9  A    between atoms: O_9  and  P_10
REMARK   10  A    between atoms: P_10  and  O_11
REMARK   11  A    between atoms: P_10  and  O_13
REMARK   12  A    between atoms: O_13  and  C_14
REMARK   13  A    between atoms: C_14  and  C_15
REMARK   14  A    between atoms: C_18  and  N_30
REMARK   15  A    between atoms: C_20  and  O_22
REMARK   16  A    between atoms: C_23  and  O_25
REMARK   17  A    between atoms: O_25  and  P_26
REMARK   18  A    between atoms: P_26  and  O_27
REMARK   19  A    between atoms: P_26  and  O_28
REMARK   20  A    between atoms: C_40  and  O_42
REMARK   21  A    between atoms: C_40  and  C_43
REMARK   22  A    between atoms: N_45  and  C_46
REMARK   23  A    between atoms: C_46  and  C_47
REMARK   24  A    between atoms: C_47  and  C_48
REMARK   25  A    between atoms: N_50  and  C_51
REMARK   26  A    between atoms: C_51  and  C_52
REMARK   27  A    between atoms: C_52  and  S_53
REMARK   28  A    between atoms: S_53  and  C_54
REMARK   29  A    between atoms: C_54  and  C_55
REMARK   30  A    between atoms: C_55  and  C_57
REMARK   31  A    between atoms: C_60  and  O_61
REMARK                            x       y       z     vdW  Elec       q    Type
REMARK                         _______ _______ _______ _____ _____    ______ ____
ROOT
ATOM      1  P   UNL     1      10.246   1.205  22.580  0.00  0.00    +0.483 P 
ATOM      2  O   UNL     1       8.919   0.725  22.000  0.00  0.00    -0.227 OA
ENDROOT
BRANCH   1   3
ATOM      3  O   UNL     1      10.153   2.560  21.509  0.00  0.00    -0.302 OA
ATOM      4  H   UNL     1      11.076   2.635  21.185  0.00  0.00    +0.222 HD
ENDBRANCH   1   3
BRANCH   1   5
ATOM      5  O   UNL     1       9.925   2.222  23.827  0.00  0.00    -0.286 OA
BRANCH   5   6
ATOM      6  C   UNL     1      10.137   3.602  23.551  0.00  0.00    +0.181 C 
BRANCH   6   8
ATOM      7  C   UNL     1       8.309   3.679  25.284  0.00  0.00    +0.016 C 
ATOM      8  C   UNL     1       9.023   4.472  24.163  0.00  0.00    +0.024 C 
ATOM      9  C   UNL     1       9.633   5.727  24.816  0.00  0.00    +0.016 C 
BRANCH   8  10
ATOM     10  C   UNL     1       7.988   4.815  23.056  0.00  0.00    +0.208 C 
BRANCH  10  11
ATOM     11  C   UNL     1       6.626   5.305  23.601  0.00  0.00    +0.242 C 
ATOM     12  N   UNL     1       5.619   4.362  23.552  0.00  0.00    -0.313 N 
ATOM     13  H   UNL     1       5.781   3.616  22.881  0.00  0.00    +0.149 HD
ATOM     14  O   UNL     1       6.495   6.418  24.106  0.00  0.00    -0.273 OA
BRANCH  12  15
ATOM     15  C   UNL     1       4.246   4.707  23.872  0.00  0.00    +0.113 C 
BRANCH  15  16
ATOM     16  C   UNL     1       3.664   3.820  24.967  0.00  0.00    +0.114 C 
BRANCH  16  17
ATOM     17  C   UNL     1       4.049   4.349  26.334  0.00  0.00    +0.215 C 
ATOM     18  N   UNL     1       2.971   4.574  27.165  0.00  0.00    -0.314 N 
ATOM     19  H   UNL     1       2.050   4.283  26.866  0.00  0.00    +0.149 HD
ATOM     20  O   UNL     1       5.212   4.560  26.660  0.00  0.00    -0.276 OA
BRANCH  18  21
ATOM     21  C   UNL     1       3.124   4.998  28.552  0.00  0.00    +0.115 C 
BRANCH  21  22
ATOM     22  C   UNL     1       2.840   3.874  29.552  0.00  0.00    +0.088 C 
BRANCH  22  23
ATOM     23  S   UNL     1       1.886   2.499  28.837  0.00  0.00    -0.151 S 
BRANCH  23  24
ATOM     24  C   UNL     1       3.181   1.214  28.739  0.00  0.00    +0.148 C 
BRANCH  24  25
ATOM     25  C   UNL     1       3.575   0.838  27.318  0.00  0.00    +0.173 C 
ATOM     26  O   UNL     1       2.770   0.733  26.396  0.00  0.00    -0.291 OA
BRANCH  25  27
ATOM     27  C   UNL     1       5.025   0.571  27.048  0.00  0.00    +0.018 A 
ATOM     28  C   UNL     1       5.429   0.407  25.716  0.00  0.00    +0.015 A 
ATOM     29  C   UNL     1       6.781   0.244  25.404  0.00  0.00    +0.046 A 
ATOM     30  C   UNL     1       7.722   0.275  26.428  0.00  0.00    +0.117 A 
ATOM     31  C   UNL     1       7.342   0.419  27.756  0.00  0.00    +0.046 A 
ATOM     32  C   UNL     1       5.983   0.555  28.067  0.00  0.00    +0.015 A 
BRANCH  30  33
ATOM     33  O   UNL     1       9.038   0.212  26.080  0.00  0.00    -0.507 OA
ATOM     34  H   UNL     1       9.548   0.006  26.881  0.00  0.00    +0.292 HD
ENDBRANCH  30  33
ENDBRANCH  25  27
ENDBRANCH  24  25
ENDBRANCH  23  24
ENDBRANCH  22  23
ENDBRANCH  21  22
ENDBRANCH  18  21
ENDBRANCH  16  17
ENDBRANCH  15  16
ENDBRANCH  12  15
ENDBRANCH  10  11
BRANCH  10  35
ATOM     35  O   UNL     1       7.794   3.690  22.196  0.00  0.00    -0.382 OA
ATOM     36  H   UNL     1       8.674   3.297  22.049  0.00  0.00    +0.210 HD
ENDBRANCH  10  35
ENDBRANCH   8  10
ENDBRANCH   6   8
ENDBRANCH   5   6
ENDBRANCH   1   5
BRANCH   1  37
ATOM     37  O   UNL     1      10.339  -0.150  23.652  0.00  0.00    -0.186 OA
BRANCH  37  38
ATOM     38  P   UNL     1       9.346  -1.432  23.049  0.00  0.00    +0.483 P 
ATOM     39  O   UNL     1       9.856  -2.361  24.151  0.00  0.00    -0.227 OA
BRANCH  38  40
ATOM     40  O   UNL     1      10.475  -1.609  21.876  0.00  0.00    -0.302 OA
ATOM     41  H   UNL     1      11.289  -1.885  22.353  0.00  0.00    +0.222 HD
ENDBRANCH  38  40
BRANCH  38  42
ATOM     42  O   UNL     1       8.354  -2.714  22.445  0.00  0.00    -0.284 OA
BRANCH  42  43
ATOM     43  C   UNL     1       6.944  -2.603  22.664  0.00  0.00    +0.206 C 
BRANCH  43  44
ATOM     44  C   UNL     1       6.373  -3.860  23.310  0.00  0.00    +0.179 C 
ATOM     45  C   UNL     1       7.357  -4.995  23.198  0.00  0.00    +0.194 C 
ATOM     46  C   UNL     1       7.938  -5.181  24.599  0.00  0.00    +0.196 C 
ATOM     47  C   UNL     1       7.306  -4.097  25.443  0.00  0.00    +0.253 C 
ATOM     48  O   UNL     1       6.157  -3.641  24.714  0.00  0.00    -0.346 OA
BRANCH  47  49
ATOM     49  N   UNL     1       6.899  -4.594  26.748  0.00  0.00    -0.286 N 
ATOM     50  C   UNL     1       5.881  -4.102  27.526  0.00  0.00    +0.167 A 
ATOM     51  N   UNL     1       5.205  -2.947  27.386  0.00  0.00    -0.216 NA
ATOM     52  C   UNL     1       4.296  -2.814  28.387  0.00  0.00    +0.225 A 
ATOM     53  N   UNL     1       3.957  -3.707  29.343  0.00  0.00    -0.219 NA
ATOM     54  C   UNL     1       4.631  -4.875  29.396  0.00  0.00    +0.147 A 
ATOM     55  N   UNL     1       4.246  -5.828  30.319  0.00  0.00    -0.341 N 
ATOM     56  H   UNL     1       4.897  -6.596  30.451  0.00  0.00    +0.144 HD
ATOM     57  H   UNL     1       3.732  -5.486  31.115  0.00  0.00    +0.144 HD
ATOM     58  C   UNL     1       5.703  -5.062  28.509  0.00  0.00    +0.147 A 
ATOM     59  N   UNL     1       6.671  -6.030  28.422  0.00  0.00    -0.231 NA
ATOM     60  C   UNL     1       7.435  -5.654  27.421  0.00  0.00    +0.203 A 
ENDBRANCH  47  49
BRANCH  46  61
ATOM     61  O   UNL     1       9.360  -5.109  24.553  0.00  0.00    -0.385 OA
ATOM     62  H   UNL     1       9.702  -5.592  25.337  0.00  0.00    +0.210 HD
ENDBRANCH  46  61
BRANCH  45  63
ATOM     63  O   UNL     1       6.661  -6.188  22.825  0.00  0.00    -0.278 OA
BRANCH  63  64
ATOM     64  P   UNL     1       4.984  -5.762  22.818  0.00  0.00    +0.473 P 
ATOM     65  O   UNL     1       3.484  -5.379  22.810  0.00  0.00    -0.228 OA
BRANCH  64  66
ATOM     66  O   UNL     1       4.805  -7.216  23.541  0.00  0.00    -0.303 OA
ATOM     67  H   UNL     1       5.650  -7.690  23.424  0.00  0.00    +0.222 HD
ENDBRANCH  64  66
BRANCH  64  68
ATOM     68  O   UNL     1       4.992  -6.363  21.295  0.00  0.00    -0.303 OA
ATOM     69  H   UNL     1       4.121  -6.722  21.044  0.00  0.00    +0.222 HD
ENDBRANCH  64  68
ENDBRANCH  63  64
ENDBRANCH  45  63
ENDBRANCH  43  44
ENDBRANCH  42  43
ENDBRANCH  38  42
ENDBRANCH  37  38
ENDBRANCH   1  37
TORSDOF 29
ENDMDL
MODEL 4
REMARK VINA RESULT:      -6.4      2.772      6.044
REMARK  Name = 
REMARK  31 active torsions:
REMARK  status: ('A' for Active; 'I' for Inactive)
REMARK    1  A    between atoms: C_1  and  C_2
REMARK    2  A    between atoms: C_2  and  C_3
REMARK    3  A    between atoms: C_2  and  C_4
REMARK    4  A    between atoms: C_2  and  C_40
REMARK    5  A    between atoms: C_4  and  O_5
REMARK    6  A    between atoms: O_5  and  P_6
REMARK    7  A    between atoms: P_6  and  O_7
REMARK    8  A    between atoms: P_6  and  O_9
REMARK    9  A    between atoms: O_9  and  P_10
REMARK   10  A    between atoms: P_10  and  O_11
REMARK   11  A    between atoms: P_10  and  O_13
REMARK   12  A    between atoms: O_13  and  C_14
REMARK   13  A    between atoms: C_14  and  C_15
REMARK   14  A    between atoms: C_18  and  N_30
REMARK   15  A    between atoms: C_20  and  O_22
REMARK   16  A    between atoms: C_23  and  O_25
REMARK   17  A    between atoms: O_25  and  P_26
REMARK   18  A    between atoms: P_26  and  O_27
REMARK   19  A    between atoms: P_26  and  O_28
REMARK   20  A    between atoms: C_40  and  O_42
REMARK   21  A    between atoms: C_40  and  C_43
REMARK   22  A    between atoms: N_45  and  C_46
REMARK   23  A    between atoms: C_46  and  C_47
REMARK   24  A    between atoms: C_47  and  C_48
REMARK   25  A    between atoms: N_50  and  C_51
REMARK   26  A    between atoms: C_51  and  C_52
REMARK   27  A    between atoms: C_52  and  S_53
REMARK   28  A    between atoms: S_53  and  C_54
REMARK   29  A    between atoms: C_54  and  C_55
REMARK   30  A    between atoms: C_55  and  C_57
REMARK   31  A    between atoms: C_60  and  O_61
REMARK                            x       y       z     vdW  Elec       q    Type
REMARK                         _______ _______ _______ _____ _____    ______ ____
ROOT
ATOM      1  P   UNL     1       9.759  -1.227  22.178  0.00  0.00    +0.483 P 
ATOM      2  O   UNL     1      10.166  -0.261  23.287  0.00  0.00    -0.227 OA
ENDROOT
BRANCH   1   3
ATOM      3  O   UNL     1      10.584  -2.474  23.047  0.00  0.00    -0.302 OA
ATOM      4  H   UNL     1      10.955  -3.024  22.325  0.00  0.00    +0.222 HD
ENDBRANCH   1   3
BRANCH   1   5
ATOM      5  O   UNL     1       8.338  -1.929  22.603  0.00  0.00    -0.286 OA
BRANCH   5   6
ATOM      6  C   UNL     1       7.968  -3.063  21.828  0.00  0.00    +0.181 C 
BRANCH   6   8
ATOM      7  C   UNL     1       7.157  -5.448  21.909  0.00  0.00    +0.016 C 
ATOM      8  C   UNL     1       7.238  -4.113  22.687  0.00  0.00    +0.024 C 
ATOM      9  C   UNL     1       8.040  -4.388  23.974  0.00  0.00    +0.016 C 
BRANCH   8  10
ATOM     10  C   UNL     1       5.796  -3.612  22.975  0.00  0.00    +0.208 C 
BRANCH  10  11
ATOM     11  C   UNL     1       4.779  -4.747  23.234  0.00  0.00    +0.242 C 
ATOM     12  N   UNL     1       4.578  -5.040  24.568  0.00  0.00    -0.313 N 
ATOM     13  H   UNL     1       5.334  -4.740  25.178  0.00  0.00    +0.149 HD
ATOM     14  O   UNL     1       4.153  -5.275  22.318  0.00  0.00    -0.273 OA
BRANCH  12  15
ATOM     15  C   UNL     1       3.781  -6.182  24.979  0.00  0.00    +0.113 C 
BRANCH  15  16
ATOM     16  C   UNL     1       4.564  -7.150  25.860  0.00  0.00    +0.114 C 
BRANCH  16  17
ATOM     17  C   UNL     1       5.285  -6.396  26.959  0.00  0.00    +0.215 C 
ATOM     18  N   UNL     1       4.489  -6.108  28.048  0.00  0.00    -0.314 N 
ATOM     19  H   UNL     1       3.554  -6.492  28.090  0.00  0.00    +0.149 HD
ATOM     20  O   UNL     1       6.465  -6.072  26.877  0.00  0.00    -0.276 OA
BRANCH  18  21
ATOM     21  C   UNL     1       5.006  -5.468  29.252  0.00  0.00    +0.115 C 
BRANCH  21  22
ATOM     22  C   UNL     1       4.166  -4.267  29.695  0.00  0.00    +0.088 C 
BRANCH  22  23
ATOM     23  S   UNL     1       2.701  -3.990  28.652  0.00  0.00    -0.151 S 
BRANCH  23  24
ATOM     24  C   UNL     1       3.075  -2.328  27.992  0.00  0.00    +0.148 C 
BRANCH  24  25
ATOM     25  C   UNL     1       3.585  -2.331  26.558  0.00  0.00    +0.173 C 
ATOM     26  O   UNL     1       2.895  -2.651  25.592  0.00  0.00    -0.291 OA
BRANCH  25  27
ATOM     27  C   UNL     1       5.012  -1.935  26.328  0.00  0.00    +0.018 A 
ATOM     28  C   UNL     1       6.010  -2.626  27.028  0.00  0.00    +0.015 A 
ATOM     29  C   UNL     1       7.359  -2.357  26.784  0.00  0.00    +0.046 A 
ATOM     30  C   UNL     1       7.699  -1.415  25.818  0.00  0.00    +0.117 A 
ATOM     31  C   UNL     1       6.726  -0.706  25.125  0.00  0.00    +0.046 A 
ATOM     32  C   UNL     1       5.375  -0.960  25.392  0.00  0.00    +0.015 A 
BRANCH  30  33
ATOM     33  O   UNL     1       9.021  -1.247  25.536  0.00  0.00    -0.507 OA
ATOM     34  H   UNL     1       9.471  -2.093  25.704  0.00  0.00    +0.292 HD
ENDBRANCH  30  33
ENDBRANCH  25  27
ENDBRANCH  24  25
ENDBRANCH  23  24
ENDBRANCH  22  23
ENDBRANCH  21  22
ENDBRANCH  18  21
ENDBRANCH  16  17
ENDBRANCH  15  16
ENDBRANCH  12  15
ENDBRANCH  10  11
BRANCH  10  35
ATOM     35  O   UNL     1       5.339  -2.782  21.905  0.00  0.00    -0.382 OA
ATOM     36  H   UNL     1       6.059  -2.153  21.714  0.00  0.00    +0.210 HD
ENDBRANCH  10  35
ENDBRANCH   8  10
ENDBRANCH   6   8
ENDBRANCH   5   6
ENDBRANCH   1   5
BRANCH   1  37
ATOM     37  O   UNL     1       8.934   0.021  21.309  0.00  0.00    -0.186 OA
BRANCH  37  38
ATOM     38  P   UNL     1       8.791   1.424  22.310  0.00  0.00    +0.483 P 
ATOM     39  O   UNL     1       7.606   1.913  21.478  0.00  0.00    -0.227 OA
BRANCH  38  40
ATOM     40  O   UNL     1      10.079   2.011  21.486  0.00  0.00    -0.302 OA
ATOM     41  H   UNL     1      10.563   1.212  21.180  0.00  0.00    +0.222 HD
ENDBRANCH  38  40
BRANCH  38  42
ATOM     42  O   UNL     1       8.649   2.828  23.312  0.00  0.00    -0.284 OA
BRANCH  42  43
ATOM     43  C   UNL     1       8.401   2.610  24.704  0.00  0.00    +0.206 C 
BRANCH  43  44
ATOM     44  C   UNL     1       7.405   3.618  25.264  0.00  0.00    +0.179 C 
ATOM     45  C   UNL     1       6.277   3.832  24.289  0.00  0.00    +0.194 C 
ATOM     46  C   UNL     1       5.070   3.110  24.885  0.00  0.00    +0.196 C 
ATOM     47  C   UNL     1       5.578   2.455  26.150  0.00  0.00    +0.253 C 
ATOM     48  O   UNL     1       6.813   3.111  26.472  0.00  0.00    -0.346 OA
BRANCH  47  49
ATOM     49  N   UNL     1       4.639   2.601  27.251  0.00  0.00    -0.286 N 
ATOM     50  C   UNL     1       3.437   1.949  27.389  0.00  0.00    +0.167 A 
ATOM     51  N   UNL     1       2.761   1.239  26.468  0.00  0.00    -0.216 NA
ATOM     52  C   UNL     1       1.594   0.785  26.994  0.00  0.00    +0.225 A 
ATOM     53  N   UNL     1       1.153   0.870  28.269  0.00  0.00    -0.219 NA
ATOM     54  C   UNL     1       1.905   1.546  29.163  0.00  0.00    +0.147 A 
ATOM     55  N   UNL     1       1.507   1.577  30.485  0.00  0.00    -0.341 N 
ATOM     56  H   UNL     1       1.989   2.251  31.071  0.00  0.00    +0.144 HD
ATOM     57  H   UNL     1       0.529   1.402  30.652  0.00  0.00    +0.144 HD
ATOM     58  C   UNL     1       3.061   2.195  28.700  0.00  0.00    +0.147 A 
ATOM     59  N   UNL     1       3.923   3.082  29.294  0.00  0.00    -0.231 NA
ATOM     60  C   UNL     1       4.792   3.387  28.356  0.00  0.00    +0.203 A 
ENDBRANCH  47  49
BRANCH  46  61
ATOM     61  O   UNL     1       4.538   2.184  23.941  0.00  0.00    -0.385 OA
ATOM     62  H   UNL     1       4.923   2.409  23.065  0.00  0.00    +0.210 HD
ENDBRANCH  46  61
BRANCH  45  63
ATOM     63  O   UNL     1       5.983   5.230  24.207  0.00  0.00    -0.278 OA
BRANCH  63  64
ATOM     64  P   UNL     1       6.756   5.780  22.760  0.00  0.00    +0.473 P 
ATOM     65  O   UNL     1       7.448   6.272  21.466  0.00  0.00    -0.228 OA
BRANCH  64  66
ATOM     66  O   UNL     1       5.326   6.531  22.506  0.00  0.00    -0.303 OA
ATOM     67  H   UNL     1       5.462   7.138  21.754  0.00  0.00    +0.222 HD
ENDBRANCH  64  66
BRANCH  64  68
ATOM     68  O   UNL     1       6.272   4.347  22.135  0.00  0.00    -0.303 OA
ATOM     69  H   UNL     1       6.218   4.377  21.162  0.00  0.00    +0.222 HD
ENDBRANCH  64  68
ENDBRANCH  63  64
ENDBRANCH  45  63
ENDBRANCH  43  44
ENDBRANCH  42  43
ENDBRANCH  38  42
ENDBRANCH  37  38
ENDBRANCH   1  37
TORSDOF 29
ENDMDL
MODEL 5
REMARK VINA RESULT:      -6.2      2.364      5.967
REMARK  Name = 
REMARK  31 active torsions:
REMARK  status: ('A' for Active; 'I' for Inactive)
REMARK    1  A    between atoms: C_1  and  C_2
REMARK    2  A    between atoms: C_2  and  C_3
REMARK    3  A    between atoms: C_2  and  C_4
REMARK    4  A    between atoms: C_2  and  C_40
REMARK    5  A    between atoms: C_4  and  O_5
REMARK    6  A    between atoms: O_5  and  P_6
REMARK    7  A    between atoms: P_6  and  O_7
REMARK    8  A    between atoms: P_6  and  O_9
REMARK    9  A    between atoms: O_9  and  P_10
REMARK   10  A    between atoms: P_10  and  O_11
REMARK   11  A    between atoms: P_10  and  O_13
REMARK   12  A    between atoms: O_13  and  C_14
REMARK   13  A    between atoms: C_14  and  C_15
REMARK   14  A    between atoms: C_18  and  N_30
REMARK   15  A    between atoms: C_20  and  O_22
REMARK   16  A    between atoms: C_23  and  O_25
REMARK   17  A    between atoms: O_25  and  P_26
REMARK   18  A    between atoms: P_26  and  O_27
REMARK   19  A    between atoms: P_26  and  O_28
REMARK   20  A    between atoms: C_40  and  O_42
REMARK   21  A    between atoms: C_40  and  C_43
REMARK   22  A    between atoms: N_45  and  C_46
REMARK   23  A    between atoms: C_46  and  C_47
REMARK   24  A    between atoms: C_47  and  C_48
REMARK   25  A    between atoms: N_50  and  C_51
REMARK   26  A    between atoms: C_51  and  C_52
REMARK   27  A    between atoms: C_52  and  S_53
REMARK   28  A    between atoms: S_53  and  C_54
REMARK   29  A    between atoms: C_54  and  C_55
REMARK   30  A    between atoms: C_55  and  C_57
REMARK   31  A    between atoms: C_60  and  O_61
REMARK                            x       y       z     vdW  Elec       q    Type
REMARK                         _______ _______ _______ _____ _____    ______ ____
ROOT
ATOM      1  P   UNL     1      10.194   3.838  23.296  0.00  0.00    +0.483 P 
ATOM      2  O   UNL     1      11.700   4.068  23.373  0.00  0.00    -0.227 OA
ENDROOT
BRANCH   1   3
ATOM      3  O   UNL     1      10.507   2.582  22.149  0.00  0.00    -0.302 OA
ATOM      4  H   UNL     1       9.813   2.737  21.473  0.00  0.00    +0.222 HD
ENDBRANCH   1   3
BRANCH   1   5
ATOM      5  O   UNL     1       9.794   2.681  24.390  0.00  0.00    -0.286 OA
BRANCH   5   6
ATOM      6  C   UNL     1       8.823   1.740  23.947  0.00  0.00    +0.181 C 
BRANCH   6   8
ATOM      7  C   UNL     1      10.625   0.238  24.868  0.00  0.00    +0.016 C 
ATOM      8  C   UNL     1       9.129   0.328  24.482  0.00  0.00    +0.024 C 
ATOM      9  C   UNL     1       8.315   0.064  25.763  0.00  0.00    +0.016 C 
BRANCH   8  10
ATOM     10  C   UNL     1       8.837  -0.709  23.363  0.00  0.00    +0.208 C 
BRANCH  10  11
ATOM     11  C   UNL     1       9.518  -2.079  23.585  0.00  0.00    +0.242 C 
ATOM     12  N   UNL     1       8.850  -2.913  24.460  0.00  0.00    -0.313 N 
ATOM     13  H   UNL     1       8.217  -2.430  25.091  0.00  0.00    +0.149 HD
ATOM     14  O   UNL     1      10.525  -2.409  22.963  0.00  0.00    -0.273 OA
BRANCH  12  15
ATOM     15  C   UNL     1       9.434  -4.166  24.903  0.00  0.00    +0.113 C 
BRANCH  15  16
ATOM     16  C   UNL     1       8.392  -5.266  25.072  0.00  0.00    +0.114 C 
BRANCH  16  17
ATOM     17  C   UNL     1       7.623  -5.070  26.363  0.00  0.00    +0.215 C 
ATOM     18  N   UNL     1       6.631  -6.006  26.566  0.00  0.00    -0.314 N 
ATOM     19  H   UNL     1       6.555  -6.788  25.929  0.00  0.00    +0.149 HD
ATOM     20  O   UNL     1       7.863  -4.157  27.146  0.00  0.00    -0.276 OA
BRANCH  18  21
ATOM     21  C   UNL     1       5.833  -6.054  27.785  0.00  0.00    +0.115 C 
BRANCH  21  22
ATOM     22  C   UNL     1       4.413  -5.517  27.588  0.00  0.00    +0.088 C 
BRANCH  22  23
ATOM     23  S   UNL     1       4.292  -3.712  27.789  0.00  0.00    -0.151 S 
BRANCH  23  24
ATOM     24  C   UNL     1       3.507  -3.255  26.204  0.00  0.00    +0.148 C 
BRANCH  24  25
ATOM     25  C   UNL     1       4.459  -2.622  25.200  0.00  0.00    +0.173 C 
ATOM     26  O   UNL     1       4.879  -1.472  25.295  0.00  0.00    -0.291 OA
BRANCH  25  27
ATOM     27  C   UNL     1       4.888  -3.455  24.029  0.00  0.00    +0.018 A 
ATOM     28  C   UNL     1       5.691  -2.854  23.051  0.00  0.00    +0.015 A 
ATOM     29  C   UNL     1       6.190  -3.609  21.987  0.00  0.00    +0.046 A 
ATOM     30  C   UNL     1       5.903  -4.969  21.926  0.00  0.00    +0.117 A 
ATOM     31  C   UNL     1       5.093  -5.580  22.875  0.00  0.00    +0.046 A 
ATOM     32  C   UNL     1       4.573  -4.814  23.925  0.00  0.00    +0.015 A 
BRANCH  30  33
ATOM     33  O   UNL     1       6.485  -5.695  20.930  0.00  0.00    -0.507 OA
ATOM     34  H   UNL     1       7.341  -6.017  21.259  0.00  0.00    +0.292 HD
ENDBRANCH  30  33
ENDBRANCH  25  27
ENDBRANCH  24  25
ENDBRANCH  23  24
ENDBRANCH  22  23
ENDBRANCH  21  22
ENDBRANCH  18  21
ENDBRANCH  16  17
ENDBRANCH  15  16
ENDBRANCH  12  15
ENDBRANCH  10  11
BRANCH  10  35
ATOM     35  O   UNL     1       9.212  -0.179  22.090  0.00  0.00    -0.382 OA
ATOM     36  H   UNL     1       8.540  -0.483  21.453  0.00  0.00    +0.210 HD
ENDBRANCH  10  35
ENDBRANCH   8  10
ENDBRANCH   6   8
ENDBRANCH   5   6
ENDBRANCH   1   5
BRANCH   1  37
ATOM     37  O   UNL     1       9.881   5.094  24.445  0.00  0.00    -0.186 OA
BRANCH  37  38
ATOM     38  P   UNL     1       8.187   5.442  24.470  0.00  0.00    +0.483 P 
ATOM     39  O   UNL     1       8.482   6.908  24.789  0.00  0.00    -0.227 OA
BRANCH  38  40
ATOM     40  O   UNL     1       8.175   4.745  25.952  0.00  0.00    -0.302 OA
ATOM     41  H   UNL     1       8.363   5.482  26.575  0.00  0.00    +0.222 HD
ENDBRANCH  38  40
BRANCH  38  42
ATOM     42  O   UNL     1       6.492   5.791  24.496  0.00  0.00    -0.284 OA
BRANCH  42  43
ATOM     43  C   UNL     1       5.645   4.959  23.697  0.00  0.00    +0.206 C 
BRANCH  43  44
ATOM     44  C   UNL     1       4.551   4.303  24.530  0.00  0.00    +0.179 C 
ATOM     45  C   UNL     1       4.104   3.019  23.882  0.00  0.00    +0.194 C 
ATOM     46  C   UNL     1       4.690   1.896  24.736  0.00  0.00    +0.196 C 
ATOM     47  C   UNL     1       5.506   2.589  25.805  0.00  0.00    +0.253 C 
ATOM     48  O   UNL     1       5.060   3.952  25.828  0.00  0.00    -0.346 OA
BRANCH  47  49
ATOM     49  N   UNL     1       5.312   1.982  27.112  0.00  0.00    -0.286 N 
ATOM     50  C   UNL     1       4.244   1.214  27.504  0.00  0.00    +0.167 A 
ATOM     51  N   UNL     1       3.062   1.047  26.884  0.00  0.00    -0.216 NA
ATOM     52  C   UNL     1       2.260   0.233  27.618  0.00  0.00    +0.225 A 
ATOM     53  N   UNL     1       2.559  -0.456  28.742  0.00  0.00    -0.219 NA
ATOM     54  C   UNL     1       3.783  -0.293  29.286  0.00  0.00    +0.147 A 
ATOM     55  N   UNL     1       4.130  -1.046  30.391  0.00  0.00    -0.341 N 
ATOM     56  H   UNL     1       4.972  -0.750  30.874  0.00  0.00    +0.144 HD
ATOM     57  H   UNL     1       3.362  -1.409  30.933  0.00  0.00    +0.144 HD
ATOM     58  C   UNL     1       4.648   0.646  28.702  0.00  0.00    +0.147 A 
ATOM     59  N   UNL     1       5.855   1.163  29.101  0.00  0.00    -0.231 NA
ATOM     60  C   UNL     1       6.167   2.042  28.175  0.00  0.00    +0.203 A 
ENDBRANCH  47  49
BRANCH  46  61
ATOM     61  O   UNL     1       5.455   1.011  23.922  0.00  0.00    -0.385 OA
ATOM     62  H   UNL     1       4.877   0.248  23.700  0.00  0.00    +0.210 HD
ENDBRANCH  46  61
BRANCH  45  63
ATOM     63  O   UNL     1       2.677   2.937  23.930  0.00  0.00    -0.278 OA
BRANCH  63  64
ATOM     64  P   UNL     1       2.121   3.684  22.471  0.00  0.00    +0.473 P 
ATOM     65  O   UNL     1       1.625   4.352  21.166  0.00  0.00    -0.228 OA
BRANCH  64  66
ATOM     66  O   UNL     1       1.071   2.431  22.452  0.00  0.00    -0.303 OA
ATOM     67  H   UNL     1       1.167   2.003  21.580  0.00  0.00    +0.222 HD
ENDBRANCH  64  66
BRANCH  64  68
ATOM     68  O   UNL     1       3.340   2.854  21.760  0.00  0.00    -0.303 OA
ATOM     69  H   UNL     1       3.543   2.029  22.239  0.00  0.00    +0.222 HD
ENDBRANCH  64  68
ENDBRANCH  63  64
ENDBRANCH  45  63
ENDBRANCH  43  44
ENDBRANCH  42  43
ENDBRANCH  38  42
ENDBRANCH  37  38
ENDBRANCH   1  37
TORSDOF 29
ENDMDL
MODEL 6
REMARK VINA RESULT:      -6.0      2.575      6.188
REMARK  Name = 
REMARK  31 active torsions:
REMARK  status: ('A' for Active; 'I' for Inactive)
REMARK    1  A    between atoms: C_1  and  C_2
REMARK    2  A    between atoms: C_2  and  C_3
REMARK    3  A    between atoms: C_2  and  C_4
REMARK    4  A    between atoms: C_2  and  C_40
REMARK    5  A    between atoms: C_4  and  O_5
REMARK    6  A    between atoms: O_5  and  P_6
REMARK    7  A    between atoms: P_6  and  O_7
REMARK    8  A    between atoms: P_6  and  O_9
REMARK    9  A    between atoms: O_9  and  P_10
REMARK   10  A    between atoms: P_10  and  O_11
REMARK   11  A    between atoms: P_10  and  O_13
REMARK   12  A    between atoms: O_13  and  C_14
REMARK   13  A    between atoms: C_14  and  C_15
REMARK   14  A    between atoms: C_18  and  N_30
REMARK   15  A    between atoms: C_20  and  O_22
REMARK   16  A    between atoms: C_23  and  O_25
REMARK   17  A    between atoms: O_25  and  P_26
REMARK   18  A    between atoms: P_26  and  O_27
REMARK   19  A    between atoms: P_26  and  O_28
REMARK   20  A    between atoms: C_40  and  O_42
REMARK   21  A    between atoms: C_40  and  C_43
REMARK   22  A    between atoms: N_45  and  C_46
REMARK   23  A    between atoms: C_46  and  C_47
REMARK   24  A    between atoms: C_47  and  C_48
REMARK   25  A    between atoms: N_50  and  C_51
REMARK   26  A    between atoms: C_51  and  C_52
REMARK   27  A    between atoms: C_52  and  S_53
REMARK   28  A    between atoms: S_53  and  C_54
REMARK   29  A    between atoms: C_54  and  C_55
REMARK   30  A    between atoms: C_55  and  C_57
REMARK   31  A    between atoms: C_60  and  O_61
REMARK                            x       y       z     vdW  Elec       q    Type
REMARK                         _______ _______ _______ _____ _____    ______ ____
ROOT
ATOM      1  P   UNL     1      10.243   3.766  23.194  0.00  0.00    +0.483 P 
ATOM      2  O   UNL     1      11.762   3.694  23.309  0.00  0.00    -0.227 OA
ENDROOT
BRANCH   1   3
ATOM      3  O   UNL     1      10.349   2.612  21.909  0.00  0.00    -0.302 OA
ATOM      4  H   UNL     1       9.405   2.446  21.697  0.00  0.00    +0.222 HD
ENDBRANCH   1   3
BRANCH   1   5
ATOM      5  O   UNL     1       9.599   2.590  24.140  0.00  0.00    -0.286 OA
BRANCH   5   6
ATOM      6  C   UNL     1       8.855   1.595  23.445  0.00  0.00    +0.181 C 
BRANCH   6   8
ATOM      7  C   UNL     1      10.682   0.178  24.447  0.00  0.00    +0.016 C 
ATOM      8  C   UNL     1       9.222   0.181  23.934  0.00  0.00    +0.024 C 
ATOM      9  C   UNL     1       8.325  -0.214  25.123  0.00  0.00    +0.016 C 
BRANCH   8  10
ATOM     10  C   UNL     1       9.107  -0.809  22.742  0.00  0.00    +0.208 C 
BRANCH  10  11
ATOM     11  C   UNL     1       9.146  -2.298  23.159  0.00  0.00    +0.242 C 
ATOM     12  N   UNL     1       8.026  -3.020  22.799  0.00  0.00    -0.313 N 
ATOM     13  H   UNL     1       7.203  -2.451  22.626  0.00  0.00    +0.149 HD
ATOM     14  O   UNL     1      10.136  -2.794  23.692  0.00  0.00    -0.273 OA
BRANCH  12  15
ATOM     15  C   UNL     1       7.831  -4.385  23.253  0.00  0.00    +0.113 C 
BRANCH  15  16
ATOM     16  C   UNL     1       7.111  -5.245  22.219  0.00  0.00    +0.114 C 
BRANCH  16  17
ATOM     17  C   UNL     1       5.616  -5.009  22.287  0.00  0.00    +0.215 C 
ATOM     18  N   UNL     1       4.907  -6.085  22.780  0.00  0.00    -0.314 N 
ATOM     19  H   UNL     1       5.412  -6.880  23.150  0.00  0.00    +0.149 HD
ATOM     20  O   UNL     1       5.093  -3.960  21.928  0.00  0.00    -0.276 OA
BRANCH  18  21
ATOM     21  C   UNL     1       3.468  -6.038  23.012  0.00  0.00    +0.115 C 
BRANCH  21  22
ATOM     22  C   UNL     1       3.059  -6.675  24.342  0.00  0.00    +0.088 C 
BRANCH  22  23
ATOM     23  S   UNL     1       2.170  -5.532  25.445  0.00  0.00    -0.151 S 
BRANCH  23  24
ATOM     24  C   UNL     1       3.168  -4.018  25.223  0.00  0.00    +0.148 C 
BRANCH  24  25
ATOM     25  C   UNL     1       3.971  -3.619  26.452  0.00  0.00    +0.173 C 
ATOM     26  O   UNL     1       3.497  -3.001  27.403  0.00  0.00    -0.291 OA
BRANCH  25  27
ATOM     27  C   UNL     1       5.423  -3.993  26.484  0.00  0.00    +0.018 A 
ATOM     28  C   UNL     1       6.367  -2.963  26.591  0.00  0.00    +0.015 A 
ATOM     29  C   UNL     1       7.727  -3.263  26.714  0.00  0.00    +0.046 A 
ATOM     30  C   UNL     1       8.126  -4.594  26.757  0.00  0.00    +0.117 A 
ATOM     31  C   UNL     1       7.208  -5.630  26.635  0.00  0.00    +0.046 A 
ATOM     32  C   UNL     1       5.850  -5.325  26.484  0.00  0.00    +0.015 A 
BRANCH  30  33
ATOM     33  O   UNL     1       9.446  -4.852  26.976  0.00  0.00    -0.507 OA
ATOM     34  H   UNL     1       9.813  -5.236  26.162  0.00  0.00    +0.292 HD
ENDBRANCH  30  33
ENDBRANCH  25  27
ENDBRANCH  24  25
ENDBRANCH  23  24
ENDBRANCH  22  23
ENDBRANCH  21  22
ENDBRANCH  18  21
ENDBRANCH  16  17
ENDBRANCH  15  16
ENDBRANCH  12  15
ENDBRANCH  10  11
BRANCH  10  35
ATOM     35  O   UNL     1      10.131  -0.544  21.781  0.00  0.00    -0.382 OA
ATOM     36  H   UNL     1       9.781   0.143  21.184  0.00  0.00    +0.210 HD
ENDBRANCH  10  35
ENDBRANCH   8  10
ENDBRANCH   6   8
ENDBRANCH   5   6
ENDBRANCH   1   5
BRANCH   1  37
ATOM     37  O   UNL     1      10.137   4.919  24.479  0.00  0.00    -0.186 OA
BRANCH  37  38
ATOM     38  P   UNL     1       8.526   5.543  24.563  0.00  0.00    +0.483 P 
ATOM     39  O   UNL     1       9.063   6.906  24.998  0.00  0.00    -0.227 OA
BRANCH  38  40
ATOM     40  O   UNL     1       8.402   4.733  25.981  0.00  0.00    -0.302 OA
ATOM     41  H   UNL     1       7.534   4.275  25.931  0.00  0.00    +0.222 HD
ENDBRANCH  38  40
BRANCH  38  42
ATOM     42  O   UNL     1       6.914   6.166  24.648  0.00  0.00    -0.284 OA
BRANCH  42  43
ATOM     43  C   UNL     1       5.969   5.655  23.702  0.00  0.00    +0.206 C 
BRANCH  43  44
ATOM     44  C   UNL     1       4.854   4.873  24.385  0.00  0.00    +0.179 C 
ATOM     45  C   UNL     1       4.277   3.853  23.437  0.00  0.00    +0.194 C 
ATOM     46  C   UNL     1       4.798   2.500  23.916  0.00  0.00    +0.196 C 
ATOM     47  C   UNL     1       5.707   2.808  25.084  0.00  0.00    +0.253 C 
ATOM     48  O   UNL     1       5.378   4.140  25.506  0.00  0.00    -0.346 OA
BRANCH  47  49
ATOM     49  N   UNL     1       5.511   1.878  26.184  0.00  0.00    -0.286 N 
ATOM     50  C   UNL     1       5.985   2.019  27.465  0.00  0.00    +0.167 A 
ATOM     51  N   UNL     1       6.903   2.887  27.926  0.00  0.00    -0.216 NA
ATOM     52  C   UNL     1       7.120   2.678  29.250  0.00  0.00    +0.225 A 
ATOM     53  N   UNL     1       6.469   1.843  30.090  0.00  0.00    -0.219 NA
ATOM     54  C   UNL     1       5.515   1.037  29.580  0.00  0.00    +0.147 A 
ATOM     55  N   UNL     1       4.789   0.232  30.437  0.00  0.00    -0.341 N 
ATOM     56  H   UNL     1       4.229  -0.487  29.992  0.00  0.00    +0.144 HD
ATOM     57  H   UNL     1       5.226   0.029  31.322  0.00  0.00    +0.144 HD
ATOM     58  C   UNL     1       5.309   1.050  28.191  0.00  0.00    +0.147 A 
ATOM     59  N   UNL     1       4.563   0.253  27.360  0.00  0.00    -0.231 NA
ATOM     60  C   UNL     1       4.798   0.714  26.152  0.00  0.00    +0.203 A 
ENDBRANCH  47  49
BRANCH  46  61
ATOM     61  O   UNL     1       5.455   1.823  22.848  0.00  0.00    -0.385 OA
ATOM     62  H   UNL     1       4.758   1.402  22.297  0.00  0.00    +0.210 HD
ENDBRANCH  46  61
BRANCH  45  63
ATOM     63  O   UNL     1       2.851   3.863  23.545  0.00  0.00    -0.278 OA
BRANCH  63  64
ATOM     64  P   UNL     1       2.269   3.279  22.023  0.00  0.00    +0.473 P 
ATOM     65  O   UNL     1       1.747   2.755  20.663  0.00  0.00    -0.228 OA
BRANCH  64  66
ATOM     66  O   UNL     1       3.187   4.489  21.420  0.00  0.00    -0.303 OA
ATOM     67  H   UNL     1       4.008   4.076  21.092  0.00  0.00    +0.222 HD
ENDBRANCH  64  66
BRANCH  64  68
ATOM     68  O   UNL     1       0.970   4.228  22.326  0.00  0.00    -0.303 OA
ATOM     69  H   UNL     1       0.368   4.270  21.560  0.00  0.00    +0.222 HD
ENDBRANCH  64  68
ENDBRANCH  63  64
ENDBRANCH  45  63
ENDBRANCH  43  44
ENDBRANCH  42  43
ENDBRANCH  38  42
ENDBRANCH  37  38
ENDBRANCH   1  37
TORSDOF 29
ENDMDL
MODEL 7
REMARK VINA RESULT:      -6.0      3.848      9.701
REMARK  Name = 
REMARK  31 active torsions:
REMARK  status: ('A' for Active; 'I' for Inactive)
REMARK    1  A    between atoms: C_1  and  C_2
REMARK    2  A    between atoms: C_2  and  C_3
REMARK    3  A    between atoms: C_2  and  C_4
REMARK    4  A    between atoms: C_2  and  C_40
REMARK    5  A    between atoms: C_4  and  O_5
REMARK    6  A    between atoms: O_5  and  P_6
REMARK    7  A    between atoms: P_6  and  O_7
REMARK    8  A    between atoms: P_6  and  O_9
REMARK    9  A    between atoms: O_9  and  P_10
REMARK   10  A    between atoms: P_10  and  O_11
REMARK   11  A    between atoms: P_10  and  O_13
REMARK   12  A    between atoms: O_13  and  C_14
REMARK   13  A    between atoms: C_14  and  C_15
REMARK   14  A    between atoms: C_18  and  N_30
REMARK   15  A    between atoms: C_20  and  O_22
REMARK   16  A    between atoms: C_23  and  O_25
REMARK   17  A    between atoms: O_25  and  P_26
REMARK   18  A    between atoms: P_26  and  O_27
REMARK   19  A    between atoms: P_26  and  O_28
REMARK   20  A    between atoms: C_40  and  O_42
REMARK   21  A    between atoms: C_40  and  C_43
REMARK   22  A    between atoms: N_45  and  C_46
REMARK   23  A    between atoms: C_46  and  C_47
REMARK   24  A    between atoms: C_47  and  C_48
REMARK   25  A    between atoms: N_50  and  C_51
REMARK   26  A    between atoms: C_51  and  C_52
REMARK   27  A    between atoms: C_52  and  S_53
REMARK   28  A    between atoms: S_53  and  C_54
REMARK   29  A    between atoms: C_54  and  C_55
REMARK   30  A    between atoms: C_55  and  C_57
REMARK   31  A    between atoms: C_60  and  O_61
REMARK                            x       y       z     vdW  Elec       q    Type
REMARK                         _______ _______ _______ _____ _____    ______ ____
ROOT
ATOM      1  P   UNL     1       6.155  -5.215  22.076  0.00  0.00    +0.483 P 
ATOM      2  O   UNL     1       6.075  -5.263  20.553  0.00  0.00    -0.227 OA
ENDROOT
BRANCH   1   3
ATOM      3  O   UNL     1       7.771  -5.818  21.947  0.00  0.00    -0.302 OA
ATOM      4  H   UNL     1       7.649  -6.633  21.415  0.00  0.00    +0.222 HD
ENDBRANCH   1   3
BRANCH   1   5
ATOM      5  O   UNL     1       6.778  -3.760  22.512  0.00  0.00    -0.286 OA
BRANCH   5   6
ATOM      6  C   UNL     1       7.897  -3.820  23.389  0.00  0.00    +0.181 C 
BRANCH   6   8
ATOM      7  C   UNL     1       8.790  -2.413  25.278  0.00  0.00    +0.016 C 
ATOM      8  C   UNL     1       8.368  -2.410  23.790  0.00  0.00    +0.024 C 
ATOM      9  C   UNL     1       9.612  -2.018  22.968  0.00  0.00    +0.016 C 
BRANCH   8  10
ATOM     10  C   UNL     1       7.190  -1.414  23.605  0.00  0.00    +0.208 C 
BRANCH  10  11
ATOM     11  C   UNL     1       7.633   0.060  23.461  0.00  0.00    +0.242 C 
ATOM     12  N   UNL     1       7.438   0.595  22.204  0.00  0.00    -0.313 N 
ATOM     13  H   UNL     1       7.359  -0.098  21.465  0.00  0.00    +0.149 HD
ATOM     14  O   UNL     1       8.045   0.708  24.421  0.00  0.00    -0.273 OA
BRANCH  12  15
ATOM     15  C   UNL     1       7.946   1.910  21.856  0.00  0.00    +0.113 C 
BRANCH  15  16
ATOM     16  C   UNL     1       6.876   2.993  21.959  0.00  0.00    +0.114 C 
BRANCH  16  17
ATOM     17  C   UNL     1       7.498   4.309  22.378  0.00  0.00    +0.215 C 
ATOM     18  N   UNL     1       8.522   4.172  23.292  0.00  0.00    -0.314 N 
ATOM     19  H   UNL     1       8.850   3.245  23.528  0.00  0.00    +0.149 HD
ATOM     20  O   UNL     1       7.115   5.391  21.946  0.00  0.00    -0.276 OA
BRANCH  18  21
ATOM     21  C   UNL     1       9.315   5.304  23.759  0.00  0.00    +0.115 C 
BRANCH  21  22
ATOM     22  C   UNL     1       9.042   5.657  25.223  0.00  0.00    +0.088 C 
BRANCH  22  23
ATOM     23  S   UNL     1       7.778   4.599  25.995  0.00  0.00    -0.151 S 
BRANCH  23  24
ATOM     24  C   UNL     1       6.292   5.635  25.761  0.00  0.00    +0.148 C 
BRANCH  24  25
ATOM     25  C   UNL     1       4.984   4.857  25.775  0.00  0.00    +0.173 C 
ATOM     26  O   UNL     1       4.501   4.359  26.790  0.00  0.00    -0.291 OA
BRANCH  25  27
ATOM     27  C   UNL     1       4.266   4.682  24.471  0.00  0.00    +0.018 A 
ATOM     28  C   UNL     1       4.148   5.796  23.628  0.00  0.00    +0.015 A 
ATOM     29  C   UNL     1       3.566   5.665  22.364  0.00  0.00    +0.046 A 
ATOM     30  C   UNL     1       3.133   4.413  21.943  0.00  0.00    +0.117 A 
ATOM     31  C   UNL     1       3.224   3.300  22.769  0.00  0.00    +0.046 A 
ATOM     32  C   UNL     1       3.783   3.440  24.046  0.00  0.00    +0.015 A 
BRANCH  30  33
ATOM     33  O   UNL     1       2.661   4.302  20.670  0.00  0.00    -0.507 OA
ATOM     34  H   UNL     1       2.999   5.058  20.161  0.00  0.00    +0.292 HD
ENDBRANCH  30  33
ENDBRANCH  25  27
ENDBRANCH  24  25
ENDBRANCH  23  24
ENDBRANCH  22  23
ENDBRANCH  21  22
ENDBRANCH  18  21
ENDBRANCH  16  17
ENDBRANCH  15  16
ENDBRANCH  12  15
ENDBRANCH  10  11
BRANCH  10  35
ATOM     35  O   UNL     1       6.262  -1.542  24.684  0.00  0.00    -0.382 OA
ATOM     36  H   UNL     1       6.104  -0.642  25.023  0.00  0.00    +0.210 HD
ENDBRANCH  10  35
ENDBRANCH   8  10
ENDBRANCH   6   8
ENDBRANCH   5   6
ENDBRANCH   1   5
BRANCH   1  37
ATOM     37  O   UNL     1       4.539  -4.610  22.204  0.00  0.00    -0.186 OA
BRANCH  37  38
ATOM     38  P   UNL     1       3.880  -5.048  23.742  0.00  0.00    +0.483 P 
ATOM     39  O   UNL     1       2.462  -4.876  23.196  0.00  0.00    -0.227 OA
BRANCH  38  40
ATOM     40  O   UNL     1       4.270  -3.531  24.220  0.00  0.00    -0.302 OA
ATOM     41  H   UNL     1       4.052  -3.509  25.178  0.00  0.00    +0.222 HD
ENDBRANCH  38  40
BRANCH  38  42
ATOM     42  O   UNL     1       3.220  -5.485  25.280  0.00  0.00    -0.284 OA
BRANCH  42  43
ATOM     43  C   UNL     1       2.240  -4.606  25.841  0.00  0.00    +0.206 C 
BRANCH  43  44
ATOM     44  C   UNL     1       2.569  -4.239  27.282  0.00  0.00    +0.179 C 
ATOM     45  C   UNL     1       3.954  -4.717  27.637  0.00  0.00    +0.194 C 
ATOM     46  C   UNL     1       4.827  -3.465  27.679  0.00  0.00    +0.196 C 
ATOM     47  C   UNL     1       3.917  -2.326  27.280  0.00  0.00    +0.253 C 
ATOM     48  O   UNL     1       2.576  -2.810  27.441  0.00  0.00    -0.346 OA
BRANCH  47  49
ATOM     49  N   UNL     1       4.122  -1.151  28.112  0.00  0.00    -0.286 N 
ATOM     50  C   UNL     1       5.197  -0.298  28.067  0.00  0.00    +0.167 A 
ATOM     51  N   UNL     1       6.376  -0.471  27.443  0.00  0.00    -0.216 NA
ATOM     52  C   UNL     1       7.186   0.594  27.673  0.00  0.00    +0.225 A 
ATOM     53  N   UNL     1       6.898   1.753  28.306  0.00  0.00    -0.219 NA
ATOM     54  C   UNL     1       5.677   1.892  28.863  0.00  0.00    +0.147 A 
ATOM     55  N   UNL     1       5.340   3.097  29.448  0.00  0.00    -0.341 N 
ATOM     56  H   UNL     1       4.500   3.087  30.017  0.00  0.00    +0.144 HD
ATOM     57  H   UNL     1       6.114   3.675  29.736  0.00  0.00    +0.144 HD
ATOM     58  C   UNL     1       4.803   0.793  28.826  0.00  0.00    +0.147 A 
ATOM     59  N   UNL     1       3.595   0.553  29.431  0.00  0.00    -0.231 NA
ATOM     60  C   UNL     1       3.273  -0.668  29.066  0.00  0.00    +0.203 A 
ENDBRANCH  47  49
BRANCH  46  61
ATOM     61  O   UNL     1       5.950  -3.624  26.815  0.00  0.00    -0.385 OA
ATOM     62  H   UNL     1       6.467  -2.789  26.854  0.00  0.00    +0.210 HD
ENDBRANCH  46  61
BRANCH  45  63
ATOM     63  O   UNL     1       3.930  -5.305  28.941  0.00  0.00    -0.278 OA
BRANCH  63  64
ATOM     64  P   UNL     1       5.170  -6.512  28.927  0.00  0.00    +0.473 P 
ATOM     65  O   UNL     1       6.279  -7.591  28.914  0.00  0.00    -0.228 OA
BRANCH  64  66
ATOM     66  O   UNL     1       4.284  -7.139  27.705  0.00  0.00    -0.303 OA
ATOM     67  H   UNL     1       4.284  -6.472  26.992  0.00  0.00    +0.222 HD
ENDBRANCH  64  66
BRANCH  64  68
ATOM     68  O   UNL     1       4.289  -7.218  30.113  0.00  0.00    -0.303 OA
ATOM     69  H   UNL     1       3.345  -7.278  29.874  0.00  0.00    +0.222 HD
ENDBRANCH  64  68
ENDBRANCH  63  64
ENDBRANCH  45  63
ENDBRANCH  43  44
ENDBRANCH  42  43
ENDBRANCH  38  42
ENDBRANCH  37  38
ENDBRANCH   1  37
TORSDOF 29
ENDMDL
MODEL 8
REMARK VINA RESULT:      -5.8      2.726      5.006
REMARK  Name = 
REMARK  31 active torsions:
REMARK  status: ('A' for Active; 'I' for Inactive)
REMARK    1  A    between atoms: C_1  and  C_2
REMARK    2  A    between atoms: C_2  and  C_3
REMARK    3  A    between atoms: C_2  and  C_4
REMARK    4  A    between atoms: C_2  and  C_40
REMARK    5  A    between atoms: C_4  and  O_5
REMARK    6  A    between atoms: O_5  and  P_6
REMARK    7  A    between atoms: P_6  and  O_7
REMARK    8  A    between atoms: P_6  and  O_9
REMARK    9  A    between atoms: O_9  and  P_10
REMARK   10  A    between atoms: P_10  and  O_11
REMARK   11  A    between atoms: P_10  and  O_13
REMARK   12  A    between atoms: O_13  and  C_14
REMARK   13  A    between atoms: C_14  and  C_15
REMARK   14  A    between atoms: C_18  and  N_30
REMARK   15  A    between atoms: C_20  and  O_22
REMARK   16  A    between atoms: C_23  and  O_25
REMARK   17  A    between atoms: O_25  and  P_26
REMARK   18  A    between atoms: P_26  and  O_27
REMARK   19  A    between atoms: P_26  and  O_28
REMARK   20  A    between atoms: C_40  and  O_42
REMARK   21  A    between atoms: C_40  and  C_43
REMARK   22  A    between atoms: N_45  and  C_46
REMARK   23  A    between atoms: C_46  and  C_47
REMARK   24  A    between atoms: C_47  and  C_48
REMARK   25  A    between atoms: N_50  and  C_51
REMARK   26  A    between atoms: C_51  and  C_52
REMARK   27  A    between atoms: C_52  and  S_53
REMARK   28  A    between atoms: S_53  and  C_54
REMARK   29  A    between atoms: C_54  and  C_55
REMARK   30  A    between atoms: C_55  and  C_57
REMARK   31  A    between atoms: C_60  and  O_61
REMARK                            x       y       z     vdW  Elec       q    Type
REMARK                         _______ _______ _______ _____ _____    ______ ____
ROOT
ATOM      1  P   UNL     1       5.306   0.836  27.128  0.00  0.00    +0.483 P 
ATOM      2  O   UNL     1       6.663   0.597  26.473  0.00  0.00    -0.227 OA
ENDROOT
BRANCH   1   3
ATOM      3  O   UNL     1       4.572   0.337  25.643  0.00  0.00    -0.302 OA
ATOM      4  H   UNL     1       4.005   1.107  25.421  0.00  0.00    +0.222 HD
ENDBRANCH   1   3
BRANCH   1   5
ATOM      5  O   UNL     1       4.804  -0.575  27.801  0.00  0.00    -0.286 OA
BRANCH   5   6
ATOM      6  C   UNL     1       3.400  -0.680  28.006  0.00  0.00    +0.181 C 
BRANCH   6   8
ATOM      7  C   UNL     1       4.197  -2.997  28.597  0.00  0.00    +0.016 C 
ATOM      8  C   UNL     1       2.971  -2.149  28.182  0.00  0.00    +0.024 C 
ATOM      9  C   UNL     1       1.937  -2.262  29.319  0.00  0.00    +0.016 C 
BRANCH   8  10
ATOM     10  C   UNL     1       2.430  -2.681  26.826  0.00  0.00    +0.208 C 
BRANCH  10  11
ATOM     11  C   UNL     1       2.252  -4.216  26.781  0.00  0.00    +0.242 C 
ATOM     12  N   UNL     1       3.086  -4.861  25.890  0.00  0.00    -0.313 N 
ATOM     13  H   UNL     1       3.451  -4.263  25.154  0.00  0.00    +0.149 HD
ATOM     14  O   UNL     1       1.485  -4.801  27.543  0.00  0.00    -0.273 OA
BRANCH  12  15
ATOM     15  C   UNL     1       2.937  -6.278  25.607  0.00  0.00    +0.113 C 
BRANCH  15  16
ATOM     16  C   UNL     1       4.273  -7.014  25.607  0.00  0.00    +0.114 C 
BRANCH  16  17
ATOM     17  C   UNL     1       5.140  -6.533  26.753  0.00  0.00    +0.215 C 
ATOM     18  N   UNL     1       6.364  -6.038  26.352  0.00  0.00    -0.314 N 
ATOM     19  H   UNL     1       6.552  -5.931  25.364  0.00  0.00    +0.149 HD
ATOM     20  O   UNL     1       4.781  -6.588  27.924  0.00  0.00    -0.276 OA
BRANCH  18  21
ATOM     21  C   UNL     1       7.314  -5.443  27.285  0.00  0.00    +0.115 C 
BRANCH  21  22
ATOM     22  C   UNL     1       8.208  -4.387  26.630  0.00  0.00    +0.088 C 
BRANCH  22  23
ATOM     23  S   UNL     1       7.451  -2.733  26.580  0.00  0.00    -0.151 S 
BRANCH  23  24
ATOM     24  C   UNL     1       8.078  -2.131  24.973  0.00  0.00    +0.148 C 
BRANCH  24  25
ATOM     25  C   UNL     1       8.398  -3.238  23.979  0.00  0.00    +0.173 C 
ATOM     26  O   UNL     1       9.540  -3.529  23.632  0.00  0.00    -0.291 OA
BRANCH  25  27
ATOM     27  C   UNL     1       7.247  -3.995  23.388  0.00  0.00    +0.018 A 
ATOM     28  C   UNL     1       7.482  -5.296  22.923  0.00  0.00    +0.015 A 
ATOM     29  C   UNL     1       6.425  -6.075  22.445  0.00  0.00    +0.046 A 
ATOM     30  C   UNL     1       5.136  -5.555  22.463  0.00  0.00    +0.117 A 
ATOM     31  C   UNL     1       4.883  -4.261  22.903  0.00  0.00    +0.046 A 
ATOM     32  C   UNL     1       5.949  -3.474  23.356  0.00  0.00    +0.015 A 
BRANCH  30  33
ATOM     33  O   UNL     1       4.117  -6.375  22.082  0.00  0.00    -0.507 OA
ATOM     34  H   UNL     1       3.751  -6.029  21.251  0.00  0.00    +0.292 HD
ENDBRANCH  30  33
ENDBRANCH  25  27
ENDBRANCH  24  25
ENDBRANCH  23  24
ENDBRANCH  22  23
ENDBRANCH  21  22
ENDBRANCH  18  21
ENDBRANCH  16  17
ENDBRANCH  15  16
ENDBRANCH  12  15
ENDBRANCH  10  11
BRANCH  10  35
ATOM     35  O   UNL     1       3.277  -2.256  25.757  0.00  0.00    -0.382 OA
ATOM     36  H   UNL     1       4.108  -1.950  26.165  0.00  0.00    +0.210 HD
ENDBRANCH  10  35
ENDBRANCH   8  10
ENDBRANCH   6   8
ENDBRANCH   5   6
ENDBRANCH   1   5
BRANCH   1  37
ATOM     37  O   UNL     1       6.041   1.333  28.614  0.00  0.00    -0.186 OA
BRANCH  37  38
ATOM     38  P   UNL     1       6.595   2.965  28.464  0.00  0.00    +0.483 P 
ATOM     39  O   UNL     1       7.625   2.729  29.569  0.00  0.00    -0.227 OA
BRANCH  38  40
ATOM     40  O   UNL     1       5.253   3.383  29.304  0.00  0.00    -0.302 OA
ATOM     41  H   UNL     1       4.890   2.532  29.633  0.00  0.00    +0.222 HD
ENDBRANCH  38  40
BRANCH  38  42
ATOM     42  O   UNL     1       7.148   4.598  28.316  0.00  0.00    -0.284 OA
BRANCH  42  43
ATOM     43  C   UNL     1       7.241   5.134  26.993  0.00  0.00    +0.206 C 
BRANCH  43  44
ATOM     44  C   UNL     1       6.593   4.216  25.965  0.00  0.00    +0.179 C 
ATOM     45  C   UNL     1       5.983   5.028  24.852  0.00  0.00    +0.194 C 
ATOM     46  C   UNL     1       6.907   4.845  23.649  0.00  0.00    +0.196 C 
ATOM     47  C   UNL     1       8.047   3.983  24.145  0.00  0.00    +0.253 C 
ATOM     48  O   UNL     1       7.586   3.371  25.359  0.00  0.00    -0.346 OA
BRANCH  47  49
ATOM     49  N   UNL     1       8.410   2.957  23.180  0.00  0.00    -0.286 N 
ATOM     50  C   UNL     1       9.297   1.928  23.380  0.00  0.00    +0.167 A 
ATOM     51  N   UNL     1      10.182   1.770  24.381  0.00  0.00    -0.216 NA
ATOM     52  C   UNL     1      10.900   0.632  24.193  0.00  0.00    +0.225 A 
ATOM     53  N   UNL     1      10.737  -0.323  23.252  0.00  0.00    -0.219 NA
ATOM     54  C   UNL     1       9.792  -0.136  22.306  0.00  0.00    +0.147 A 
ATOM     55  N   UNL     1       9.561  -1.136  21.382  0.00  0.00    -0.341 N 
ATOM     56  H   UNL     1       8.989  -0.873  20.586  0.00  0.00    +0.144 HD
ATOM     57  H   UNL     1      10.319  -1.786  21.241  0.00  0.00    +0.144 HD
ATOM     58  C   UNL     1       9.088   1.079  22.305  0.00  0.00    +0.147 A 
ATOM     59  N   UNL     1       8.215   1.640  21.407  0.00  0.00    -0.231 NA
ATOM     60  C   UNL     1       7.917   2.815  21.916  0.00  0.00    +0.203 A 
ENDBRANCH  47  49
BRANCH  46  61
ATOM     61  O   UNL     1       7.327   6.114  23.157  0.00  0.00    -0.385 OA
ATOM     62  H   UNL     1       7.453   6.023  22.187  0.00  0.00    +0.210 HD
ENDBRANCH  46  61
BRANCH  45  63
ATOM     63  O   UNL     1       4.696   4.496  24.529  0.00  0.00    -0.278 OA
BRANCH  63  64
ATOM     64  P   UNL     1       3.829   4.444  26.026  0.00  0.00    +0.473 P 
ATOM     65  O   UNL     1       3.053   4.398  27.365  0.00  0.00    -0.228 OA
BRANCH  64  66
ATOM     66  O   UNL     1       3.136   3.121  25.362  0.00  0.00    -0.303 OA
ATOM     67  H   UNL     1       3.824   2.428  25.342  0.00  0.00    +0.222 HD
ENDBRANCH  64  66
BRANCH  64  68
ATOM     68  O   UNL     1       2.816   5.508  25.303  0.00  0.00    -0.303 OA
ATOM     69  H   UNL     1       3.009   6.426  25.567  0.00  0.00    +0.222 HD
ENDBRANCH  64  68
ENDBRANCH  63  64
ENDBRANCH  45  63
ENDBRANCH  43  44
ENDBRANCH  42  43
ENDBRANCH  38  42
ENDBRANCH  37  38
ENDBRANCH   1  37
TORSDOF 29
ENDMDL
MODEL 9
REMARK VINA RESULT:      -5.7      3.413      6.487
REMARK  Name = 
REMARK  31 active torsions:
REMARK  status: ('A' for Active; 'I' for Inactive)
REMARK    1  A    between atoms: C_1  and  C_2
REMARK    2  A    between atoms: C_2  and  C_3
REMARK    3  A    between atoms: C_2  and  C_4
REMARK    4  A    between atoms: C_2  and  C_40
REMARK    5  A    between atoms: C_4  and  O_5
REMARK    6  A    between atoms: O_5  and  P_6
REMARK    7  A    between atoms: P_6  and  O_7
REMARK    8  A    between atoms: P_6  and  O_9
REMARK    9  A    between atoms: O_9  and  P_10
REMARK   10  A    between atoms: P_10  and  O_11
REMARK   11  A    between atoms: P_10  and  O_13
REMARK   12  A    between atoms: O_13  and  C_14
REMARK   13  A    between atoms: C_14  and  C_15
REMARK   14  A    between atoms: C_18  and  N_30
REMARK   15  A    between atoms: C_20  and  O_22
REMARK   16  A    between atoms: C_23  and  O_25
REMARK   17  A    between atoms: O_25  and  P_26
REMARK   18  A    between atoms: P_26  and  O_27
REMARK   19  A    between atoms: P_26  and  O_28
REMARK   20  A    between atoms: C_40  and  O_42
REMARK   21  A    between atoms: C_40  and  C_43
REMARK   22  A    between atoms: N_45  and  C_46
REMARK   23  A    between atoms: C_46  and  C_47
REMARK   24  A    between atoms: C_47  and  C_48
REMARK   25  A    between atoms: N_50  and  C_51
REMARK   26  A    between atoms: C_51  and  C_52
REMARK   27  A    between atoms: C_52  and  S_53
REMARK   28  A    between atoms: S_53  and  C_54
REMARK   29  A    between atoms: C_54  and  C_55
REMARK   30  A    between atoms: C_55  and  C_57
REMARK   31  A    between atoms: C_60  and  O_61
REMARK                            x       y       z     vdW  Elec       q    Type
REMARK                         _______ _______ _______ _____ _____    ______ ____
ROOT
ATOM      1  P   UNL     1       1.330  -0.369  27.491  0.00  0.00    +0.483 P 
ATOM      2  O   UNL     1       1.955   0.666  26.561  0.00  0.00    -0.227 OA
ENDROOT
BRANCH   1   3
ATOM      3  O   UNL     1       0.842  -1.247  26.083  0.00  0.00    -0.302 OA
ATOM      4  H   UNL     1       0.571  -2.112  26.458  0.00  0.00    +0.222 HD
ENDBRANCH   1   3
BRANCH   1   5
ATOM      5  O   UNL     1       2.444  -1.539  27.782  0.00  0.00    -0.286 OA
BRANCH   5   6
ATOM      6  C   UNL     1       1.911  -2.798  28.175  0.00  0.00    +0.181 C 
BRANCH   6   8
ATOM      7  C   UNL     1       4.185  -3.329  29.120  0.00  0.00    +0.016 C 
ATOM      8  C   UNL     1       3.014  -3.868  28.264  0.00  0.00    +0.024 C 
ATOM      9  C   UNL     1       2.474  -5.123  28.977  0.00  0.00    +0.016 C 
BRANCH   8  10
ATOM     10  C   UNL     1       3.538  -4.172  26.833  0.00  0.00    +0.208 C 
BRANCH  10  11
ATOM     11  C   UNL     1       2.442  -4.650  25.853  0.00  0.00    +0.242 C 
ATOM     12  N   UNL     1       2.136  -5.993  25.950  0.00  0.00    -0.313 N 
ATOM     13  H   UNL     1       2.865  -6.555  26.379  0.00  0.00    +0.149 HD
ATOM     14  O   UNL     1       1.848  -3.867  25.115  0.00  0.00    -0.273 OA
BRANCH  12  15
ATOM     15  C   UNL     1       1.249  -6.636  24.997  0.00  0.00    +0.113 C 
BRANCH  15  16
ATOM     16  C   UNL     1       2.000  -7.535  24.020  0.00  0.00    +0.114 C 
BRANCH  16  17
ATOM     17  C   UNL     1       3.451  -7.110  23.921  0.00  0.00    +0.215 C 
ATOM     18  N   UNL     1       3.720  -6.304  22.834  0.00  0.00    -0.314 N 
ATOM     19  H   UNL     1       2.953  -5.974  22.264  0.00  0.00    +0.149 HD
ATOM     20  O   UNL     1       4.301  -7.460  24.732  0.00  0.00    -0.276 OA
BRANCH  18  21
ATOM     21  C   UNL     1       5.032  -5.711  22.602  0.00  0.00    +0.115 C 
BRANCH  21  22
ATOM     22  C   UNL     1       5.112  -4.249  23.047  0.00  0.00    +0.088 C 
BRANCH  22  23
ATOM     23  S   UNL     1       6.633  -3.858  23.965  0.00  0.00    -0.151 S 
BRANCH  23  24
ATOM     24  C   UNL     1       7.699  -3.270  22.603  0.00  0.00    +0.148 C 
BRANCH  24  25
ATOM     25  C   UNL     1       8.812  -2.331  23.047  0.00  0.00    +0.173 C 
ATOM     26  O   UNL     1       9.755  -2.682  23.752  0.00  0.00    -0.291 OA
BRANCH  25  27
ATOM     27  C   UNL     1       8.732  -0.901  22.605  0.00  0.00    +0.018 A 
ATOM     28  C   UNL     1       7.518  -0.223  22.783  0.00  0.00    +0.015 A 
ATOM     29  C   UNL     1       7.417   1.136  22.470  0.00  0.00    +0.046 A 
ATOM     30  C   UNL     1       8.542   1.811  22.008  0.00  0.00    +0.117 A 
ATOM     31  C   UNL     1       9.750   1.154  21.809  0.00  0.00    +0.046 A 
ATOM     32  C   UNL     1       9.839  -0.214  22.097  0.00  0.00    +0.015 A 
BRANCH  30  33
ATOM     33  O   UNL     1       8.435   3.154  21.807  0.00  0.00    -0.507 OA
ATOM     34  H   UNL     1       8.888   3.367  20.973  0.00  0.00    +0.292 HD
ENDBRANCH  30  33
ENDBRANCH  25  27
ENDBRANCH  24  25
ENDBRANCH  23  24
ENDBRANCH  22  23
ENDBRANCH  21  22
ENDBRANCH  18  21
ENDBRANCH  16  17
ENDBRANCH  15  16
ENDBRANCH  12  15
ENDBRANCH  10  11
BRANCH  10  35
ATOM     35  O   UNL     1       4.596  -5.131  26.888  0.00  0.00    -0.382 OA
ATOM     36  H   UNL     1       5.046  -5.099  26.024  0.00  0.00    +0.210 HD
ENDBRANCH  10  35
ENDBRANCH   8  10
ENDBRANCH   6   8
ENDBRANCH   5   6
ENDBRANCH   1   5
BRANCH   1  37
ATOM     37  O   UNL     1       1.819   0.509  28.900  0.00  0.00    -0.186 OA
BRANCH  37  38
ATOM     38  P   UNL     1       3.538   0.699  28.892  0.00  0.00    +0.483 P 
ATOM     39  O   UNL     1       3.567   0.606  30.418  0.00  0.00    -0.227 OA
BRANCH  38  40
ATOM     40  O   UNL     1       3.252   2.290  28.632  0.00  0.00    -0.302 OA
ATOM     41  H   UNL     1       2.617   2.548  29.336  0.00  0.00    +0.222 HD
ENDBRANCH  38  40
BRANCH  38  42
ATOM     42  O   UNL     1       5.258   0.890  28.885  0.00  0.00    -0.284 OA
BRANCH  42  43
ATOM     43  C   UNL     1       5.763   2.225  28.987  0.00  0.00    +0.206 C 
BRANCH  43  44
ATOM     44  C   UNL     1       6.668   2.577  27.813  0.00  0.00    +0.179 C 
ATOM     45  C   UNL     1       6.603   1.497  26.765  0.00  0.00    +0.194 C 
ATOM     46  C   UNL     1       5.780   2.079  25.618  0.00  0.00    +0.196 C 
ATOM     47  C   UNL     1       5.350   3.451  26.088  0.00  0.00    +0.253 C 
ATOM     48  O   UNL     1       6.214   3.787  27.183  0.00  0.00    -0.346 OA
BRANCH  47  49
ATOM     49  N   UNL     1       5.475   4.448  25.036  0.00  0.00    -0.286 N 
ATOM     50  C   UNL     1       6.646   4.948  24.521  0.00  0.00    +0.167 A 
ATOM     51  N   UNL     1       7.893   4.824  25.009  0.00  0.00    -0.216 NA
ATOM     52  C   UNL     1       8.771   5.498  24.221  0.00  0.00    +0.225 A 
ATOM     53  N   UNL     1       8.544   6.116  23.042  0.00  0.00    -0.219 NA
ATOM     54  C   UNL     1       7.279   6.158  22.573  0.00  0.00    +0.147 A 
ATOM     55  N   UNL     1       7.041   6.720  21.334  0.00  0.00    -0.341 N 
ATOM     56  H   UNL     1       6.067   6.902  21.116  0.00  0.00    +0.144 HD
ATOM     57  H   UNL     1       7.741   7.365  21.004  0.00  0.00    +0.144 HD
ATOM     58  C   UNL     1       6.257   5.630  23.378  0.00  0.00    +0.147 A 
ATOM     59  N   UNL     1       4.889   5.669  23.279  0.00  0.00    -0.231 NA
ATOM     60  C   UNL     1       4.455   5.044  24.351  0.00  0.00    +0.203 A 
ENDBRANCH  47  49
BRANCH  46  61
ATOM     61  O   UNL     1       4.688   1.217  25.312  0.00  0.00    -0.385 OA
ATOM     62  H   UNL     1       3.921   1.516  25.849  0.00  0.00    +0.210 HD
ENDBRANCH  46  61
BRANCH  45  63
ATOM     63  O   UNL     1       7.924   1.221  26.289  0.00  0.00    -0.278 OA
BRANCH  63  64
ATOM     64  P   UNL     1       8.155  -0.478  26.525  0.00  0.00    +0.473 P 
ATOM     65  O   UNL     1       8.361  -1.997  26.735  0.00  0.00    -0.228 OA
BRANCH  64  66
ATOM     66  O   UNL     1       8.665  -0.012  28.006  0.00  0.00    -0.303 OA
ATOM     67  H   UNL     1       7.899  -0.104  28.604  0.00  0.00    +0.222 HD
ENDBRANCH  64  66
BRANCH  64  68
ATOM     68  O   UNL     1       9.600  -0.230  25.797  0.00  0.00    -0.303 OA
ATOM     69  H   UNL     1       9.735  -0.838  25.047  0.00  0.00    +0.222 HD
ENDBRANCH  64  68
ENDBRANCH  63  64
ENDBRANCH  45  63
ENDBRANCH  43  44
ENDBRANCH  42  43
ENDBRANCH  38  42
ENDBRANCH  37  38
ENDBRANCH   1  37
TORSDOF 29
ENDMDL
