MODEL 1
REMARK VINA RESULT:      -4.2      0.000      0.000
REMARK  Name = 
REMARK  2 active torsions:
REMARK  status: ('A' for Active; 'I' for Inactive)
REMARK    1  A    between atoms: O_1  and  C_2
REMARK    2  A    between atoms: C_7  and  O_8
REMARK                            x       y       z     vdW  Elec       q    Type
REMARK                         _______ _______ _______ _____ _____    ______ ____
ROOT
ATOM      1  C   UNL     1      10.049   1.245  22.442  0.00  0.00    +0.158 A 
ATOM      2  C   UNL     1       9.805  -0.108  22.210  0.00  0.00    +0.158 A 
ATOM      3  C   UNL     1       9.865  -1.023  23.260  0.00  0.00    +0.049 A 
ATOM      4  C   UNL     1      10.169  -0.574  24.548  0.00  0.00    +0.004 A 
ATOM      5  C   UNL     1      10.413   0.781  24.779  0.00  0.00    +0.004 A 
ATOM      6  C   UNL     1      10.352   1.695  23.726  0.00  0.00    +0.049 A 
ENDROOT
BRANCH   1   7
ATOM      7  O   UNL     1       9.988   2.127  21.398  0.00  0.00    -0.503 OA
ATOM      8  H   UNL     1       9.194   1.939  20.873  0.00  0.00    +0.292 HD
ENDBRANCH   1   7
BRANCH   2   9
ATOM      9  O   UNL     1       9.510  -0.530  20.943  0.00  0.00    -0.503 OA
ATOM     10  H   UNL     1      10.317  -0.500  20.406  0.00  0.00    +0.292 HD
ENDBRANCH   2   9
TORSDOF 2
ENDMDL
MODEL 2
REMARK VINA RESULT:      -4.2      0.042      2.193
REMARK  Name = 
REMARK  2 active torsions:
REMARK  status: ('A' for Active; 'I' for Inactive)
REMARK    1  A    between atoms: O_1  and  C_2
REMARK    2  A    between atoms: C_7  and  O_8
REMARK                            x       y       z     vdW  Elec       q    Type
REMARK                         _______ _______ _______ _____ _____    ______ ____
ROOT
ATOM      1  C   UNL     1       9.808  -0.096  22.197  0.00  0.00    +0.158 A 
ATOM      2  C   UNL     1      10.027   1.264  22.416  0.00  0.00    +0.158 A 
ATOM      3  C   UNL     1      10.332   1.729  23.694  0.00  0.00    +0.049 A 
ATOM      4  C   UNL     1      10.418   0.824  24.755  0.00  0.00    +0.004 A 
ATOM      5  C   UNL     1      10.198  -0.536  24.535  0.00  0.00    +0.004 A 
ATOM      6  C   UNL     1       9.893  -1.000  23.254  0.00  0.00    +0.049 A 
ENDROOT
BRANCH   1   7
ATOM      7  O   UNL     1       9.508  -0.533  20.937  0.00  0.00    -0.503 OA
ATOM      8  H   UNL     1       8.797  -1.189  20.991  0.00  0.00    +0.292 HD
ENDBRANCH   1   7
BRANCH   2   9
ATOM      9  O   UNL     1       9.938   2.136  21.367  0.00  0.00    -0.503 OA
ATOM     10  H   UNL     1      10.833   2.372  21.076  0.00  0.00    +0.292 HD
ENDBRANCH   2   9
TORSDOF 2
ENDMDL
MODEL 3
REMARK VINA RESULT:      -4.2      1.227      2.279
REMARK  Name = 
REMARK  2 active torsions:
REMARK  status: ('A' for Active; 'I' for Inactive)
REMARK    1  A    between atoms: O_1  and  C_2
REMARK    2  A    between atoms: C_7  and  O_8
REMARK                            x       y       z     vdW  Elec       q    Type
REMARK                         _______ _______ _______ _____ _____    ______ ____
ROOT
ATOM      1  C   UNL     1      10.330   0.874  23.414  0.00  0.00    +0.158 A 
ATOM      2  C   UNL     1       9.908   0.974  22.088  0.00  0.00    +0.158 A 
ATOM      3  C   UNL     1       9.494  -0.162  21.395  0.00  0.00    +0.049 A 
ATOM      4  C   UNL     1       9.503  -1.403  22.037  0.00  0.00    +0.004 A 
ATOM      5  C   UNL     1       9.925  -1.502  23.364  0.00  0.00    +0.004 A 
ATOM      6  C   UNL     1      10.339  -0.363  24.056  0.00  0.00    +0.049 A 
ENDROOT
BRANCH   1   7
ATOM      7  O   UNL     1      10.734   2.000  24.076  0.00  0.00    -0.503 OA
ATOM      8  H   UNL     1      11.155   1.741  24.910  0.00  0.00    +0.292 HD
ENDBRANCH   1   7
BRANCH   2   9
ATOM      9  O   UNL     1       9.907   2.196  21.474  0.00  0.00    -0.503 OA
ATOM     10  H   UNL     1       9.875   2.066  20.514  0.00  0.00    +0.292 HD
ENDBRANCH   2   9
TORSDOF 2
ENDMDL
MODEL 4
REMARK VINA RESULT:      -4.2      1.226      2.426
REMARK  Name = 
REMARK  2 active torsions:
REMARK  status: ('A' for Active; 'I' for Inactive)
REMARK    1  A    between atoms: O_1  and  C_2
REMARK    2  A    between atoms: C_7  and  O_8
REMARK                            x       y       z     vdW  Elec       q    Type
REMARK                         _______ _______ _______ _____ _____    ______ ____
ROOT
ATOM      1  C   UNL     1       9.896   0.952  22.084  0.00  0.00    +0.158 A 
ATOM      2  C   UNL     1      10.310   0.852  23.413  0.00  0.00    +0.158 A 
ATOM      3  C   UNL     1      10.319  -0.385  24.055  0.00  0.00    +0.049 A 
ATOM      4  C   UNL     1       9.911  -1.526  23.359  0.00  0.00    +0.004 A 
ATOM      5  C   UNL     1       9.498  -1.425  22.029  0.00  0.00    +0.004 A 
ATOM      6  C   UNL     1       9.490  -0.185  21.388  0.00  0.00    +0.049 A 
ENDROOT
BRANCH   1   7
ATOM      7  O   UNL     1       9.893   2.174  21.472  0.00  0.00    -0.503 OA
ATOM      8  H   UNL     1       9.839   2.046  20.513  0.00  0.00    +0.292 HD
ENDBRANCH   1   7
BRANCH   2   9
ATOM      9  O   UNL     1      10.704   1.979  24.080  0.00  0.00    -0.503 OA
ATOM     10  H   UNL     1      11.442   1.755  24.667  0.00  0.00    +0.292 HD
ENDBRANCH   2   9
TORSDOF 2
ENDMDL
MODEL 5
REMARK VINA RESULT:      -4.1      1.223      2.414
REMARK  Name = 
REMARK  2 active torsions:
REMARK  status: ('A' for Active; 'I' for Inactive)
REMARK    1  A    between atoms: O_1  and  C_2
REMARK    2  A    between atoms: C_7  and  O_8
REMARK                            x       y       z     vdW  Elec       q    Type
REMARK                         _______ _______ _______ _____ _____    ______ ____
ROOT
ATOM      1  C   UNL     1      10.179  -0.674  23.304  0.00  0.00    +0.158 A 
ATOM      2  C   UNL     1       9.874  -0.116  22.063  0.00  0.00    +0.158 A 
ATOM      3  C   UNL     1       9.883   1.268  21.894  0.00  0.00    +0.049 A 
ATOM      4  C   UNL     1      10.200   2.092  22.977  0.00  0.00    +0.004 A 
ATOM      5  C   UNL     1      10.504   1.533  24.218  0.00  0.00    +0.004 A 
ATOM      6  C   UNL     1      10.496   0.147  24.385  0.00  0.00    +0.049 A 
ENDROOT
BRANCH   1   7
ATOM      7  O   UNL     1      10.163  -2.034  23.451  0.00  0.00    -0.503 OA
ATOM      8  H   UNL     1      10.300  -2.252  24.385  0.00  0.00    +0.292 HD
ENDBRANCH   1   7
BRANCH   2   9
ATOM      9  O   UNL     1       9.565  -0.937  21.014  0.00  0.00    -0.503 OA
ATOM     10  H   UNL     1       9.128  -0.415  20.324  0.00  0.00    +0.292 HD
ENDBRANCH   2   9
TORSDOF 2
ENDMDL
MODEL 6
REMARK VINA RESULT:      -4.1      1.226      2.209
REMARK  Name = 
REMARK  2 active torsions:
REMARK  status: ('A' for Active; 'I' for Inactive)
REMARK    1  A    between atoms: O_1  and  C_2
REMARK    2  A    between atoms: C_7  and  O_8
REMARK                            x       y       z     vdW  Elec       q    Type
REMARK                         _______ _______ _______ _____ _____    ______ ____
ROOT
ATOM      1  C   UNL     1       9.875  -0.115  22.060  0.00  0.00    +0.158 A 
ATOM      2  C   UNL     1      10.191  -0.669  23.301  0.00  0.00    +0.158 A 
ATOM      3  C   UNL     1      10.512   0.156  24.377  0.00  0.00    +0.049 A 
ATOM      4  C   UNL     1      10.514   1.542  24.207  0.00  0.00    +0.004 A 
ATOM      5  C   UNL     1      10.198   2.096  22.965  0.00  0.00    +0.004 A 
ATOM      6  C   UNL     1       9.876   1.268  21.888  0.00  0.00    +0.049 A 
ENDROOT
BRANCH   1   7
ATOM      7  O   UNL     1       9.565  -0.940  21.015  0.00  0.00    -0.503 OA
ATOM      8  H   UNL     1       9.233  -0.405  20.278  0.00  0.00    +0.292 HD
ENDBRANCH   1   7
BRANCH   2   9
ATOM      9  O   UNL     1      10.186  -2.029  23.450  0.00  0.00    -0.503 OA
ATOM     10  H   UNL     1      10.008  -2.243  24.378  0.00  0.00    +0.292 HD
ENDBRANCH   2   9
TORSDOF 2
ENDMDL
MODEL 7
REMARK VINA RESULT:      -3.9      2.089      3.457
REMARK  Name = 
REMARK  2 active torsions:
REMARK  status: ('A' for Active; 'I' for Inactive)
REMARK    1  A    between atoms: O_1  and  C_2
REMARK    2  A    between atoms: C_7  and  O_8
REMARK                            x       y       z     vdW  Elec       q    Type
REMARK                         _______ _______ _______ _____ _____    ______ ____
ROOT
ATOM      1  C   UNL     1       9.893  -0.741  23.482  0.00  0.00    +0.158 A 
ATOM      2  C   UNL     1      10.277   0.462  24.077  0.00  0.00    +0.158 A 
ATOM      3  C   UNL     1      10.254   1.647  23.342  0.00  0.00    +0.049 A 
ATOM      4  C   UNL     1       9.844   1.622  22.007  0.00  0.00    +0.004 A 
ATOM      5  C   UNL     1       9.460   0.419  21.413  0.00  0.00    +0.004 A 
ATOM      6  C   UNL     1       9.482  -0.766  22.151  0.00  0.00    +0.049 A 
ENDROOT
BRANCH   1   7
ATOM      7  O   UNL     1       9.922  -1.892  24.218  0.00  0.00    -0.503 OA
ATOM      8  H   UNL     1      10.069  -1.668  25.150  0.00  0.00    +0.292 HD
ENDBRANCH   1   7
BRANCH   2   9
ATOM      9  O   UNL     1      10.677   0.467  25.384  0.00  0.00    -0.503 OA
ATOM     10  H   UNL     1      10.113  -0.140  25.888  0.00  0.00    +0.292 HD
ENDBRANCH   2   9
TORSDOF 2
ENDMDL
MODEL 8
REMARK VINA RESULT:      -3.9      2.086      2.710
REMARK  Name = 
REMARK  2 active torsions:
REMARK  status: ('A' for Active; 'I' for Inactive)
REMARK    1  A    between atoms: O_1  and  C_2
REMARK    2  A    between atoms: C_7  and  O_8
REMARK                            x       y       z     vdW  Elec       q    Type
REMARK                         _______ _______ _______ _____ _____    ______ ____
ROOT
ATOM      1  C   UNL     1      10.284   0.466  24.066  0.00  0.00    +0.158 A 
ATOM      2  C   UNL     1       9.905  -0.738  23.471  0.00  0.00    +0.158 A 
ATOM      3  C   UNL     1       9.490  -0.764  22.140  0.00  0.00    +0.049 A 
ATOM      4  C   UNL     1       9.456   0.424  21.406  0.00  0.00    +0.004 A 
ATOM      5  C   UNL     1       9.836   1.628  22.001  0.00  0.00    +0.004 A 
ATOM      6  C   UNL     1      10.252   1.652  23.334  0.00  0.00    +0.049 A 
ENDROOT
BRANCH   1   7
ATOM      7  O   UNL     1      10.688   0.471  25.372  0.00  0.00    -0.503 OA
ATOM      8  H   UNL     1      10.746  -0.443  25.688  0.00  0.00    +0.292 HD
ENDBRANCH   1   7
BRANCH   2   9
ATOM      9  O   UNL     1       9.943  -1.891  24.205  0.00  0.00    -0.503 OA
ATOM     10  H   UNL     1       9.217  -2.468  23.922  0.00  0.00    +0.292 HD
ENDBRANCH   2   9
TORSDOF 2
ENDMDL
MODEL 9
REMARK VINA RESULT:      -3.8      6.142      7.308
REMARK  Name = 
REMARK  2 active torsions:
REMARK  status: ('A' for Active; 'I' for Inactive)
REMARK    1  A    between atoms: O_1  and  C_2
REMARK    2  A    between atoms: C_7  and  O_8
REMARK                            x       y       z     vdW  Elec       q    Type
REMARK                         _______ _______ _______ _____ _____    ______ ____
ROOT
ATOM      1  C   UNL     1       7.610  -5.460  26.493  0.00  0.00    +0.158 A 
ATOM      2  C   UNL     1       8.801  -4.981  25.947  0.00  0.00    +0.158 A 
ATOM      3  C   UNL     1       8.831  -4.501  24.638  0.00  0.00    +0.049 A 
ATOM      4  C   UNL     1       7.660  -4.503  23.877  0.00  0.00    +0.004 A 
ATOM      5  C   UNL     1       6.469  -4.983  24.424  0.00  0.00    +0.004 A 
ATOM      6  C   UNL     1       6.440  -5.462  25.735  0.00  0.00    +0.049 A 
ENDROOT
BRANCH   1   7
ATOM      7  O   UNL     1       7.601  -5.928  27.777  0.00  0.00    -0.503 OA
ATOM      8  H   UNL     1       6.841  -5.548  28.246  0.00  0.00    +0.292 HD
ENDBRANCH   1   7
BRANCH   2   9
ATOM      9  O   UNL     1       9.938  -4.988  26.706  0.00  0.00    -0.503 OA
ATOM     10  H   UNL     1      10.705  -5.102  26.123  0.00  0.00    +0.292 HD
ENDBRANCH   2   9
TORSDOF 2
ENDMDL
