MODEL 1
REMARK VINA RESULT:      -7.3      0.000      0.000
REMARK  Name = 
REMARK  9 active torsions:
REMARK  status: ('A' for Active; 'I' for Inactive)
REMARK    1  A    between atoms: C_1  and  O_2
REMARK    2  A    between atoms: O_2  and  C_3
REMARK    3  A    between atoms: C_6  and  S_27
REMARK    4  A    between atoms: C_8  and  N_9
REMARK    5  A    between atoms: C_13  and  C_15
REMARK    6  A    between atoms: C_17  and  C_21
REMARK    7  A    between atoms: S_27  and  N_30
REMARK    8  A    between atoms: N_30  and  C_31
REMARK    9  A    between atoms: C_31  and  C_32
REMARK                            x       y       z     vdW  Elec       q    Type
REMARK                         _______ _______ _______ _____ _____    ______ ____
ROOT
ATOM      1  N   UNL     1       7.948  -3.090  22.591  0.00  0.00    -0.266 N 
ATOM      2  H   UNL     1       8.422  -3.950  22.330  0.00  0.00    +0.157 HD
ATOM      3  C   UNL     1       8.648  -1.952  22.426  0.00  0.00    +0.292 A 
ATOM      4  O   UNL     1       8.025  -0.750  22.608  0.00  0.00    -0.424 OA
ATOM      5  C   UNL     1       8.976   0.201  22.341  0.00  0.00    +0.157 A 
ATOM      6  C   UNL     1      10.120  -0.482  21.994  0.00  0.00    +0.163 A 
ATOM      7  N   UNL     1       9.903  -1.840  22.039  0.00  0.00    -0.203 NA
ENDROOT
BRANCH   1   9
ATOM      8  C   UNL     1       5.725  -4.081  22.448  0.00  0.00    +0.141 A 
ATOM      9  C   UNL     1       6.679  -3.322  23.169  0.00  0.00    +0.079 A 
ATOM     10  C   UNL     1       6.271  -2.754  24.388  0.00  0.00    +0.055 A 
ATOM     11  C   UNL     1       4.971  -2.962  24.872  0.00  0.00    +0.107 A 
ATOM     12  C   UNL     1       4.084  -3.798  24.200  0.00  0.00    +0.032 A 
ATOM     13  C   UNL     1       4.467  -4.373  23.000  0.00  0.00    +0.049 A 
BRANCH  11  14
ATOM     14  S   UNL     1       4.378  -2.006  26.241  0.00  0.00    +0.058 S 
ATOM     15  O   UNL     1       5.242  -2.241  27.375  0.00  0.00    -0.153 OA
ATOM     16  O   UNL     1       2.948  -2.215  26.329  0.00  0.00    -0.153 OA
BRANCH  14  17
ATOM     17  N   UNL     1       4.589  -0.419  25.738  0.00  0.00    -0.190 NA
ATOM     18  H   UNL     1       3.691  -0.011  25.478  0.00  0.00    +0.148 HD
BRANCH  17  19
ATOM     19  C   UNL     1       5.479   0.417  26.537  0.00  0.00    +0.109 C 
BRANCH  19  20
ATOM     20  C   UNL     1       6.509   1.038  25.642  0.00  0.00    +0.005 C 
ATOM     21  C   UNL     1       7.965   0.974  26.035  0.00  0.00    +0.005 C 
ATOM     22  C   UNL     1       7.254   2.296  26.027  0.00  0.00    +0.005 C 
ENDBRANCH  19  20
ENDBRANCH  17  19
ENDBRANCH  14  17
ENDBRANCH  11  14
BRANCH   8  24
ATOM     23  C   UNL     1       6.233  -5.926  21.078  0.00  0.00    +0.277 C 
ATOM     24  O   UNL     1       6.073  -4.504  21.180  0.00  0.00    -0.493 OA
ENDBRANCH   8  24
ENDBRANCH   1   9
BRANCH   5  25
ATOM     25  C   UNL     1       8.584   1.599  22.491  0.00  0.00    +0.019 A 
ATOM     26  C   UNL     1       7.313   2.038  22.101  0.00  0.00    +0.011 A 
ATOM     27  C   UNL     1       6.934   3.368  22.275  0.00  0.00    +0.001 A 
ATOM     28  C   UNL     1       7.827   4.285  22.834  0.00  0.00    +0.008 A 
ATOM     29  C   UNL     1       9.119   3.900  23.231  0.00  0.00    -0.016 A 
ATOM     30  C   UNL     1       9.471   2.543  23.049  0.00  0.00    +0.020 A 
BRANCH  29  31
ATOM     31  C   UNL     1      10.070   4.880  23.808  0.00  0.00    +0.000 A 
ATOM     32  C   UNL     1       9.680   5.851  24.741  0.00  0.00    +0.011 A 
ATOM     33  C   UNL     1      10.608   6.745  25.279  0.00  0.00    +0.020 A 
ATOM     34  C   UNL     1      11.927   6.645  24.876  0.00  0.00    +0.111 A 
ATOM     35  N   UNL     1      12.361   5.739  23.980  0.00  0.00    -0.263 NA
ATOM     36  C   UNL     1      11.430   4.893  23.470  0.00  0.00    +0.119 A 
ENDBRANCH  29  31
ENDBRANCH   5  25
TORSDOF 8
ENDMDL
MODEL 2
REMARK VINA RESULT:      -7.2      1.264      1.324
REMARK  Name = 
REMARK  9 active torsions:
REMARK  status: ('A' for Active; 'I' for Inactive)
REMARK    1  A    between atoms: C_1  and  O_2
REMARK    2  A    between atoms: O_2  and  C_3
REMARK    3  A    between atoms: C_6  and  S_27
REMARK    4  A    between atoms: C_8  and  N_9
REMARK    5  A    between atoms: C_13  and  C_15
REMARK    6  A    between atoms: C_17  and  C_21
REMARK    7  A    between atoms: S_27  and  N_30
REMARK    8  A    between atoms: N_30  and  C_31
REMARK    9  A    between atoms: C_31  and  C_32
REMARK                            x       y       z     vdW  Elec       q    Type
REMARK                         _______ _______ _______ _____ _____    ______ ____
ROOT
ATOM      1  N   UNL     1       8.135  -4.203  23.933  0.00  0.00    -0.266 N 
ATOM      2  H   UNL     1       8.668  -5.068  23.961  0.00  0.00    +0.157 HD
ATOM      3  C   UNL     1       8.844  -3.073  23.752  0.00  0.00    +0.292 A 
ATOM      4  O   UNL     1       8.184  -1.893  23.551  0.00  0.00    -0.424 OA
ATOM      5  C   UNL     1       9.163  -0.951  23.372  0.00  0.00    +0.157 A 
ATOM      6  C   UNL     1      10.364  -1.619  23.457  0.00  0.00    +0.163 A 
ATOM      7  N   UNL     1      10.155  -2.959  23.687  0.00  0.00    -0.203 NA
ENDROOT
BRANCH   1   9
ATOM      8  C   UNL     1       6.046  -5.357  23.431  0.00  0.00    +0.141 A 
ATOM      9  C   UNL     1       6.761  -4.404  24.198  0.00  0.00    +0.079 A 
ATOM     10  C   UNL     1       6.032  -3.634  25.120  0.00  0.00    +0.055 A 
ATOM     11  C   UNL     1       4.654  -3.831  25.283  0.00  0.00    +0.107 A 
ATOM     12  C   UNL     1       3.992  -4.844  24.596  0.00  0.00    +0.032 A 
ATOM     13  C   UNL     1       4.690  -5.620  23.687  0.00  0.00    +0.049 A 
BRANCH  11  14
ATOM     14  S   UNL     1       3.702  -2.664  26.217  0.00  0.00    +0.058 S 
ATOM     15  O   UNL     1       3.964  -2.875  27.622  0.00  0.00    -0.153 OA
ATOM     16  O   UNL     1       2.352  -2.688  25.693  0.00  0.00    -0.153 OA
BRANCH  14  17
ATOM     17  N   UNL     1       4.349  -1.180  25.777  0.00  0.00    -0.190 NA
ATOM     18  H   UNL     1       3.638  -0.607  25.323  0.00  0.00    +0.148 HD
BRANCH  17  19
ATOM     19  C   UNL     1       5.200  -0.512  26.757  0.00  0.00    +0.109 C 
BRANCH  19  20
ATOM     20  C   UNL     1       6.448  -0.030  26.080  0.00  0.00    +0.005 C 
ATOM     21  C   UNL     1       7.781  -0.234  26.758  0.00  0.00    +0.005 C 
ATOM     22  C   UNL     1       7.234   1.155  26.594  0.00  0.00    +0.005 C 
ENDBRANCH  19  20
ENDBRANCH  17  19
ENDBRANCH  14  17
ENDBRANCH  11  14
BRANCH   8  24
ATOM     23  C   UNL     1       6.268  -5.641  21.105  0.00  0.00    +0.277 C 
ATOM     24  O   UNL     1       6.727  -5.999  22.416  0.00  0.00    -0.493 OA
ENDBRANCH   8  24
ENDBRANCH   1   9
BRANCH   5  25
ATOM     25  C   UNL     1       8.732   0.428  23.163  0.00  0.00    +0.019 A 
ATOM     26  C   UNL     1       7.440   0.721  22.713  0.00  0.00    +0.011 A 
ATOM     27  C   UNL     1       7.026   2.041  22.546  0.00  0.00    +0.001 A 
ATOM     28  C   UNL     1       7.904   3.092  22.816  0.00  0.00    +0.008 A 
ATOM     29  C   UNL     1       9.217   2.854  23.259  0.00  0.00    -0.016 A 
ATOM     30  C   UNL     1       9.605   1.505  23.426  0.00  0.00    +0.020 A 
BRANCH  29  31
ATOM     31  C   UNL     1      10.152   3.972  23.528  0.00  0.00    +0.000 A 
ATOM     32  C   UNL     1       9.730   5.196  24.068  0.00  0.00    +0.011 A 
ATOM     33  C   UNL     1      10.643   6.219  24.328  0.00  0.00    +0.020 A 
ATOM     34  C   UNL     1      11.979   5.997  24.049  0.00  0.00    +0.111 A 
ATOM     35  N   UNL     1      12.444   4.846  23.525  0.00  0.00    -0.263 NA
ATOM     36  C   UNL     1      11.527   3.877  23.275  0.00  0.00    +0.119 A 
ENDBRANCH  29  31
ENDBRANCH   5  25
TORSDOF 8
ENDMDL
MODEL 3
REMARK VINA RESULT:      -7.1      3.524      5.273
REMARK  Name = 
REMARK  9 active torsions:
REMARK  status: ('A' for Active; 'I' for Inactive)
REMARK    1  A    between atoms: C_1  and  O_2
REMARK    2  A    between atoms: O_2  and  C_3
REMARK    3  A    between atoms: C_6  and  S_27
REMARK    4  A    between atoms: C_8  and  N_9
REMARK    5  A    between atoms: C_13  and  C_15
REMARK    6  A    between atoms: C_17  and  C_21
REMARK    7  A    between atoms: S_27  and  N_30
REMARK    8  A    between atoms: N_30  and  C_31
REMARK    9  A    between atoms: C_31  and  C_32
REMARK                            x       y       z     vdW  Elec       q    Type
REMARK                         _______ _______ _______ _____ _____    ______ ____
ROOT
ATOM      1  N   UNL     1       4.688  -6.803  23.382  0.00  0.00    -0.266 N 
ATOM      2  H   UNL     1       4.286  -7.529  22.795  0.00  0.00    +0.157 HD
ATOM      3  C   UNL     1       5.708  -6.105  22.849  0.00  0.00    +0.292 A 
ATOM      4  O   UNL     1       6.194  -5.015  23.516  0.00  0.00    -0.424 OA
ATOM      5  C   UNL     1       7.188  -4.510  22.718  0.00  0.00    +0.157 A 
ATOM      6  C   UNL     1       7.235  -5.314  21.601  0.00  0.00    +0.163 A 
ATOM      7  N   UNL     1       6.292  -6.312  21.686  0.00  0.00    -0.203 NA
ENDROOT
BRANCH   1   9
ATOM      8  C   UNL     1       2.718  -6.657  24.813  0.00  0.00    +0.141 A 
ATOM      9  C   UNL     1       4.124  -6.778  24.678  0.00  0.00    +0.079 A 
ATOM     10  C   UNL     1       4.892  -6.766  25.854  0.00  0.00    +0.055 A 
ATOM     11  C   UNL     1       4.275  -6.664  27.109  0.00  0.00    +0.107 A 
ATOM     12  C   UNL     1       2.888  -6.653  27.223  0.00  0.00    +0.032 A 
ATOM     13  C   UNL     1       2.110  -6.670  26.079  0.00  0.00    +0.049 A 
BRANCH  11  14
ATOM     14  S   UNL     1       5.257  -6.349  28.550  0.00  0.00    +0.058 S 
ATOM     15  O   UNL     1       6.066  -7.515  28.821  0.00  0.00    -0.153 OA
ATOM     16  O   UNL     1       4.380  -5.792  29.559  0.00  0.00    -0.153 OA
BRANCH  14  17
ATOM     17  N   UNL     1       6.274  -5.102  28.073  0.00  0.00    -0.190 NA
ATOM     18  H   UNL     1       6.914  -5.428  27.349  0.00  0.00    +0.148 HD
BRANCH  17  19
ATOM     19  C   UNL     1       5.664  -3.793  27.864  0.00  0.00    +0.109 C 
BRANCH  19  20
ATOM     20  C   UNL     1       6.149  -3.224  26.564  0.00  0.00    +0.005 C 
ATOM     21  C   UNL     1       6.447  -1.747  26.469  0.00  0.00    +0.005 C 
ATOM     22  C   UNL     1       5.286  -2.323  25.710  0.00  0.00    +0.005 C 
ENDBRANCH  19  20
ENDBRANCH  17  19
ENDBRANCH  14  17
ENDBRANCH  11  14
BRANCH   8  24
ATOM     23  C   UNL     1       1.362  -5.218  23.537  0.00  0.00    +0.277 C 
ATOM     24  O   UNL     1       1.978  -6.508  23.657  0.00  0.00    -0.493 OA
ENDBRANCH   8  24
ENDBRANCH   1   9
BRANCH   5  25
ATOM     25  C   UNL     1       7.911  -3.341  23.211  0.00  0.00    +0.019 A 
ATOM     26  C   UNL     1       9.022  -3.481  24.049  0.00  0.00    +0.011 A 
ATOM     27  C   UNL     1       9.726  -2.361  24.491  0.00  0.00    +0.001 A 
ATOM     28  C   UNL     1       9.320  -1.081  24.109  0.00  0.00    +0.008 A 
ATOM     29  C   UNL     1       8.203  -0.884  23.279  0.00  0.00    -0.016 A 
ATOM     30  C   UNL     1       7.515  -2.039  22.841  0.00  0.00    +0.020 A 
BRANCH  29  31
ATOM     31  C   UNL     1       7.765   0.478  22.890  0.00  0.00    +0.000 A 
ATOM     32  C   UNL     1       8.394   1.212  21.875  0.00  0.00    +0.011 A 
ATOM     33  C   UNL     1       7.941   2.484  21.521  0.00  0.00    +0.020 A 
ATOM     34  C   UNL     1       6.847   3.003  22.190  0.00  0.00    +0.111 A 
ATOM     35  N   UNL     1       6.205   2.349  23.177  0.00  0.00    -0.263 NA
ATOM     36  C   UNL     1       6.680   1.119  23.502  0.00  0.00    +0.119 A 
ENDBRANCH  29  31
ENDBRANCH   5  25
TORSDOF 8
ENDMDL
MODEL 4
REMARK VINA RESULT:      -6.9      2.556      8.407
REMARK  Name = 
REMARK  9 active torsions:
REMARK  status: ('A' for Active; 'I' for Inactive)
REMARK    1  A    between atoms: C_1  and  O_2
REMARK    2  A    between atoms: O_2  and  C_3
REMARK    3  A    between atoms: C_6  and  S_27
REMARK    4  A    between atoms: C_8  and  N_9
REMARK    5  A    between atoms: C_13  and  C_15
REMARK    6  A    between atoms: C_17  and  C_21
REMARK    7  A    between atoms: S_27  and  N_30
REMARK    8  A    between atoms: N_30  and  C_31
REMARK    9  A    between atoms: C_31  and  C_32
REMARK                            x       y       z     vdW  Elec       q    Type
REMARK                         _______ _______ _______ _____ _____    ______ ____
ROOT
ATOM      1  N   UNL     1       7.898   1.813  26.247  0.00  0.00    -0.266 N 
ATOM      2  H   UNL     1       8.193   2.596  26.823  0.00  0.00    +0.157 HD
ATOM      3  C   UNL     1       6.931   1.030  26.759  0.00  0.00    +0.292 A 
ATOM      4  O   UNL     1       6.377   0.053  25.979  0.00  0.00    -0.424 OA
ATOM      5  C   UNL     1       5.419  -0.541  26.760  0.00  0.00    +0.157 A 
ATOM      6  C   UNL     1       5.435   0.124  27.966  0.00  0.00    +0.163 A 
ATOM      7  N   UNL     1       6.384   1.119  27.955  0.00  0.00    -0.203 NA
ENDROOT
BRANCH   1   9
ATOM      8  C   UNL     1       9.162   2.857  24.441  0.00  0.00    +0.141 A 
ATOM      9  C   UNL     1       8.667   1.686  25.067  0.00  0.00    +0.079 A 
ATOM     10  C   UNL     1       8.888   0.460  24.419  0.00  0.00    +0.055 A 
ATOM     11  C   UNL     1       9.597   0.410  23.210  0.00  0.00    +0.107 A 
ATOM     12  C   UNL     1      10.166   1.558  22.668  0.00  0.00    +0.032 A 
ATOM     13  C   UNL     1       9.966   2.777  23.292  0.00  0.00    +0.049 A 
BRANCH  11  14
ATOM     14  S   UNL     1       9.609  -1.086  22.258  0.00  0.00    +0.058 S 
ATOM     15  O   UNL     1      10.840  -1.793  22.526  0.00  0.00    -0.153 OA
ATOM     16  O   UNL     1       9.218  -0.741  20.907  0.00  0.00    -0.153 OA
BRANCH  14  17
ATOM     17  N   UNL     1       8.340  -1.975  22.900  0.00  0.00    -0.190 NA
ATOM     18  H   UNL     1       7.490  -1.815  22.360  0.00  0.00    +0.148 HD
BRANCH  17  19
ATOM     19  C   UNL     1       8.623  -3.356  23.278  0.00  0.00    +0.109 C 
BRANCH  19  20
ATOM     20  C   UNL     1       8.992  -3.405  24.730  0.00  0.00    +0.005 C 
ATOM     21  C   UNL     1       9.596  -4.667  25.297  0.00  0.00    +0.005 C 
ATOM     22  C   UNL     1       8.222  -4.242  25.727  0.00  0.00    +0.005 C 
ENDBRANCH  19  20
ENDBRANCH  17  19
ENDBRANCH  14  17
ENDBRANCH  11  14
BRANCH   8  24
ATOM     23  C   UNL     1       9.430   5.193  24.346  0.00  0.00    +0.277 C 
ATOM     24  O   UNL     1       8.810   4.073  24.993  0.00  0.00    -0.493 OA
ENDBRANCH   8  24
ENDBRANCH   1   9
BRANCH   5  25
ATOM     25  C   UNL     1       4.679  -1.656  26.177  0.00  0.00    +0.019 A 
ATOM     26  C   UNL     1       3.416  -2.015  26.659  0.00  0.00    +0.011 A 
ATOM     27  C   UNL     1       2.702  -3.062  26.078  0.00  0.00    +0.001 A 
ATOM     28  C   UNL     1       3.248  -3.775  25.008  0.00  0.00    +0.008 A 
ATOM     29  C   UNL     1       4.519  -3.464  24.493  0.00  0.00    -0.016 A 
ATOM     30  C   UNL     1       5.214  -2.392  25.099  0.00  0.00    +0.020 A 
BRANCH  29  31
ATOM     31  C   UNL     1       5.103  -4.234  23.370  0.00  0.00    +0.000 A 
ATOM     32  C   UNL     1       5.491  -5.576  23.495  0.00  0.00    +0.011 A 
ATOM     33  C   UNL     1       6.019  -6.276  22.409  0.00  0.00    +0.020 A 
ATOM     34  C   UNL     1       6.143  -5.618  21.199  0.00  0.00    +0.111 A 
ATOM     35  N   UNL     1       5.793  -4.330  21.018  0.00  0.00    -0.263 NA
ATOM     36  C   UNL     1       5.294  -3.677  22.098  0.00  0.00    +0.119 A 
ENDBRANCH  29  31
ENDBRANCH   5  25
TORSDOF 8
ENDMDL
MODEL 5
REMARK VINA RESULT:      -6.9      3.226      9.051
REMARK  Name = 
REMARK  9 active torsions:
REMARK  status: ('A' for Active; 'I' for Inactive)
REMARK    1  A    between atoms: C_1  and  O_2
REMARK    2  A    between atoms: O_2  and  C_3
REMARK    3  A    between atoms: C_6  and  S_27
REMARK    4  A    between atoms: C_8  and  N_9
REMARK    5  A    between atoms: C_13  and  C_15
REMARK    6  A    between atoms: C_17  and  C_21
REMARK    7  A    between atoms: S_27  and  N_30
REMARK    8  A    between atoms: N_30  and  C_31
REMARK    9  A    between atoms: C_31  and  C_32
REMARK                            x       y       z     vdW  Elec       q    Type
REMARK                         _______ _______ _______ _____ _____    ______ ____
ROOT
ATOM      1  N   UNL     1       8.796   0.004  25.501  0.00  0.00    -0.266 N 
ATOM      2  H   UNL     1       9.151   0.416  26.359  0.00  0.00    +0.157 HD
ATOM      3  C   UNL     1       8.449  -1.295  25.563  0.00  0.00    +0.292 A 
ATOM      4  O   UNL     1       7.822  -1.873  24.495  0.00  0.00    -0.424 OA
ATOM      5  C   UNL     1       7.576  -3.168  24.871  0.00  0.00    +0.157 A 
ATOM      6  C   UNL     1       8.055  -3.296  26.156  0.00  0.00    +0.163 A 
ATOM      7  N   UNL     1       8.594  -2.108  26.590  0.00  0.00    -0.203 NA
ENDROOT
BRANCH   1   9
ATOM      8  C   UNL     1       9.755   0.631  23.348  0.00  0.00    +0.141 A 
ATOM      9  C   UNL     1       8.851   0.898  24.406  0.00  0.00    +0.079 A 
ATOM     10  C   UNL     1       8.126   2.100  24.354  0.00  0.00    +0.055 A 
ATOM     11  C   UNL     1       8.281   2.980  23.273  0.00  0.00    +0.107 A 
ATOM     12  C   UNL     1       9.093   2.649  22.193  0.00  0.00    +0.032 A 
ATOM     13  C   UNL     1       9.813   1.467  22.220  0.00  0.00    +0.049 A 
BRANCH  11  14
ATOM     14  S   UNL     1       7.597   4.613  23.363  0.00  0.00    +0.058 S 
ATOM     15  O   UNL     1       7.467   4.982  24.754  0.00  0.00    -0.153 OA
ATOM     16  O   UNL     1       6.463   4.658  22.464  0.00  0.00    -0.153 OA
BRANCH  14  17
ATOM     17  N   UNL     1       8.783   5.579  22.671  0.00  0.00    -0.190 NA
ATOM     18  H   UNL     1       8.402   6.080  21.868  0.00  0.00    +0.148 HD
BRANCH  17  19
ATOM     19  C   UNL     1       9.626   6.347  23.581  0.00  0.00    +0.109 C 
BRANCH  19  20
ATOM     20  C   UNL     1      10.835   5.535  23.938  0.00  0.00    +0.005 C 
ATOM     21  C   UNL     1      12.071   6.234  24.449  0.00  0.00    +0.005 C 
ATOM     22  C   UNL     1      12.097   5.565  23.105  0.00  0.00    +0.005 C 
ENDBRANCH  19  20
ENDBRANCH  17  19
ENDBRANCH  14  17
ENDBRANCH  11  14
BRANCH   8  24
ATOM     23  C   UNL     1      10.430  -1.422  22.417  0.00  0.00    +0.277 C 
ATOM     24  O   UNL     1      10.582  -0.467  23.476  0.00  0.00    -0.493 OA
ENDBRANCH   8  24
ENDBRANCH   1   9
BRANCH   5  25
ATOM     25  C   UNL     1       6.931  -4.037  23.891  0.00  0.00    +0.019 A 
ATOM     26  C   UNL     1       7.454  -4.185  22.602  0.00  0.00    +0.011 A 
ATOM     27  C   UNL     1       6.850  -5.039  21.682  0.00  0.00    +0.001 A 
ATOM     28  C   UNL     1       5.702  -5.752  22.034  0.00  0.00    +0.008 A 
ATOM     29  C   UNL     1       5.127  -5.631  23.311  0.00  0.00    -0.016 A 
ATOM     30  C   UNL     1       5.768  -4.763  24.225  0.00  0.00    +0.020 A 
BRANCH  29  31
ATOM     31  C   UNL     1       3.899  -6.375  23.676  0.00  0.00    +0.000 A 
ATOM     32  C   UNL     1       2.652  -6.105  23.095  0.00  0.00    +0.011 A 
ATOM     33  C   UNL     1       1.519  -6.842  23.449  0.00  0.00    +0.020 A 
ATOM     34  C   UNL     1       1.656  -7.853  24.381  0.00  0.00    +0.111 A 
ATOM     35  N   UNL     1       2.825  -8.155  24.979  0.00  0.00    -0.263 NA
ATOM     36  C   UNL     1       3.903  -7.412  24.619  0.00  0.00    +0.119 A 
ENDBRANCH  29  31
ENDBRANCH   5  25
TORSDOF 8
ENDMDL
MODEL 6
REMARK VINA RESULT:      -6.9      2.435      3.367
REMARK  Name = 
REMARK  9 active torsions:
REMARK  status: ('A' for Active; 'I' for Inactive)
REMARK    1  A    between atoms: C_1  and  O_2
REMARK    2  A    between atoms: O_2  and  C_3
REMARK    3  A    between atoms: C_6  and  S_27
REMARK    4  A    between atoms: C_8  and  N_9
REMARK    5  A    between atoms: C_13  and  C_15
REMARK    6  A    between atoms: C_17  and  C_21
REMARK    7  A    between atoms: S_27  and  N_30
REMARK    8  A    between atoms: N_30  and  C_31
REMARK    9  A    between atoms: C_31  and  C_32
REMARK                            x       y       z     vdW  Elec       q    Type
REMARK                         _______ _______ _______ _____ _____    ______ ____
ROOT
ATOM      1  N   UNL     1       8.503  -4.342  23.853  0.00  0.00    -0.266 N 
ATOM      2  H   UNL     1       9.091  -5.002  23.353  0.00  0.00    +0.157 HD
ATOM      3  C   UNL     1       8.984  -3.090  23.972  0.00  0.00    +0.292 A 
ATOM      4  O   UNL     1       8.184  -2.113  24.496  0.00  0.00    -0.424 OA
ATOM      5  C   UNL     1       8.934  -0.966  24.457  0.00  0.00    +0.157 A 
ATOM      6  C   UNL     1      10.143  -1.311  23.894  0.00  0.00    +0.163 A 
ATOM      7  N   UNL     1      10.163  -2.650  23.581  0.00  0.00    -0.203 NA
ENDROOT
BRANCH   1   9
ATOM      8  C   UNL     1       6.220  -5.148  23.562  0.00  0.00    +0.141 A 
ATOM      9  C   UNL     1       7.347  -4.947  24.397  0.00  0.00    +0.079 A 
ATOM     10  C   UNL     1       7.213  -5.273  25.757  0.00  0.00    +0.055 A 
ATOM     11  C   UNL     1       6.012  -5.803  26.249  0.00  0.00    +0.107 A 
ATOM     12  C   UNL     1       4.955  -6.091  25.392  0.00  0.00    +0.032 A 
ATOM     13  C   UNL     1       5.065  -5.783  24.047  0.00  0.00    +0.049 A 
BRANCH  11  14
ATOM     14  S   UNL     1       5.756  -5.927  27.999  0.00  0.00    +0.058 S 
ATOM     15  O   UNL     1       6.966  -6.429  28.607  0.00  0.00    -0.153 OA
ATOM     16  O   UNL     1       4.482  -6.585  28.204  0.00  0.00    -0.153 OA
BRANCH  14  17
ATOM     17  N   UNL     1       5.544  -4.334  28.483  0.00  0.00    -0.190 NA
ATOM     18  H   UNL     1       6.449  -3.873  28.576  0.00  0.00    +0.148 HD
BRANCH  17  19
ATOM     19  C   UNL     1       4.489  -3.575  27.820  0.00  0.00    +0.109 C 
BRANCH  19  20
ATOM     20  C   UNL     1       5.101  -2.430  27.070  0.00  0.00    +0.005 C 
ATOM     21  C   UNL     1       4.224  -1.284  26.627  0.00  0.00    +0.005 C 
ATOM     22  C   UNL     1       4.832  -2.197  25.601  0.00  0.00    +0.005 C 
ENDBRANCH  19  20
ENDBRANCH  17  19
ENDBRANCH  14  17
ENDBRANCH  11  14
BRANCH   8  24
ATOM     23  C   UNL     1       6.352  -5.727  21.284  0.00  0.00    +0.277 C 
ATOM     24  O   UNL     1       6.297  -4.681  22.265  0.00  0.00    -0.493 OA
ENDBRANCH   8  24
ENDBRANCH   1   9
BRANCH   5  25
ATOM     25  C   UNL     1       8.325   0.249  24.992  0.00  0.00    +0.019 A 
ATOM     26  C   UNL     1       7.623   0.230  26.202  0.00  0.00    +0.011 A 
ATOM     27  C   UNL     1       7.071   1.400  26.723  0.00  0.00    +0.001 A 
ATOM     28  C   UNL     1       7.203   2.606  26.032  0.00  0.00    +0.008 A 
ATOM     29  C   UNL     1       7.887   2.678  24.807  0.00  0.00    -0.016 A 
ATOM     30  C   UNL     1       8.443   1.477  24.309  0.00  0.00    +0.020 A 
BRANCH  29  31
ATOM     31  C   UNL     1       8.010   3.957  24.068  0.00  0.00    +0.000 A 
ATOM     32  C   UNL     1       7.181   4.287  22.986  0.00  0.00    +0.011 A 
ATOM     33  C   UNL     1       7.313   5.510  22.327  0.00  0.00    +0.020 A 
ATOM     34  C   UNL     1       8.276   6.397  22.771  0.00  0.00    +0.111 A 
ATOM     35  N   UNL     1       9.105   6.136  23.800  0.00  0.00    -0.263 NA
ATOM     36  C   UNL     1       8.956   4.932  24.411  0.00  0.00    +0.119 A 
ENDBRANCH  29  31
ENDBRANCH   5  25
TORSDOF 8
ENDMDL
MODEL 7
REMARK VINA RESULT:      -6.8      3.073      8.027
REMARK  Name = 
REMARK  9 active torsions:
REMARK  status: ('A' for Active; 'I' for Inactive)
REMARK    1  A    between atoms: C_1  and  O_2
REMARK    2  A    between atoms: O_2  and  C_3
REMARK    3  A    between atoms: C_6  and  S_27
REMARK    4  A    between atoms: C_8  and  N_9
REMARK    5  A    between atoms: C_13  and  C_15
REMARK    6  A    between atoms: C_17  and  C_21
REMARK    7  A    between atoms: S_27  and  N_30
REMARK    8  A    between atoms: N_30  and  C_31
REMARK    9  A    between atoms: C_31  and  C_32
REMARK                            x       y       z     vdW  Elec       q    Type
REMARK                         _______ _______ _______ _____ _____    ______ ____
ROOT
ATOM      1  N   UNL     1      10.444   1.030  23.754  0.00  0.00    -0.266 N 
ATOM      2  H   UNL     1      11.416   1.261  23.568  0.00  0.00    +0.157 HD
ATOM      3  C   UNL     1      10.065  -0.227  23.457  0.00  0.00    +0.292 A 
ATOM      4  O   UNL     1       8.819  -0.654  23.821  0.00  0.00    -0.424 OA
ATOM      5  C   UNL     1       8.746  -1.962  23.414  0.00  0.00    +0.157 A 
ATOM      6  C   UNL     1       9.962  -2.258  22.840  0.00  0.00    +0.163 A 
ATOM      7  N   UNL     1      10.793  -1.162  22.880  0.00  0.00    -0.203 NA
ENDROOT
BRANCH   1   9
ATOM      8  C   UNL     1      10.075   3.440  23.765  0.00  0.00    +0.141 A 
ATOM      9  C   UNL     1       9.695   2.145  24.195  0.00  0.00    +0.079 A 
ATOM     10  C   UNL     1       8.645   2.050  25.124  0.00  0.00    +0.055 A 
ATOM     11  C   UNL     1       7.989   3.203  25.579  0.00  0.00    +0.107 A 
ATOM     12  C   UNL     1       8.307   4.456  25.064  0.00  0.00    +0.032 A 
ATOM     13  C   UNL     1       9.334   4.573  24.143  0.00  0.00    +0.049 A 
BRANCH  11  14
ATOM     14  S   UNL     1       6.883   3.099  26.960  0.00  0.00    +0.058 S 
ATOM     15  O   UNL     1       5.526   3.107  26.466  0.00  0.00    -0.153 OA
ATOM     16  O   UNL     1       7.330   4.062  27.946  0.00  0.00    -0.153 OA
BRANCH  14  17
ATOM     17  N   UNL     1       7.199   1.584  27.609  0.00  0.00    -0.190 NA
ATOM     18  H   UNL     1       7.879   1.661  28.365  0.00  0.00    +0.148 HD
BRANCH  17  19
ATOM     19  C   UNL     1       6.052   0.713  27.847  0.00  0.00    +0.109 C 
BRANCH  19  20
ATOM     20  C   UNL     1       6.073  -0.411  26.856  0.00  0.00    +0.005 C 
ATOM     21  C   UNL     1       5.541  -0.178  25.462  0.00  0.00    +0.005 C 
ATOM     22  C   UNL     1       4.806  -1.098  26.394  0.00  0.00    +0.005 C 
ENDBRANCH  19  20
ENDBRANCH  17  19
ENDBRANCH  14  17
ENDBRANCH  11  14
BRANCH   8  24
ATOM     23  C   UNL     1      12.059   4.637  23.352  0.00  0.00    +0.277 C 
ATOM     24  O   UNL     1      11.204   3.546  22.979  0.00  0.00    -0.493 OA
ENDBRANCH   8  24
ENDBRANCH   1   9
BRANCH   5  25
ATOM     25  C   UNL     1       7.490  -2.667  23.655  0.00  0.00    +0.019 A 
ATOM     26  C   UNL     1       6.412  -2.544  22.771  0.00  0.00    +0.011 A 
ATOM     27  C   UNL     1       5.227  -3.244  22.990  0.00  0.00    +0.001 A 
ATOM     28  C   UNL     1       5.098  -4.071  24.108  0.00  0.00    +0.008 A 
ATOM     29  C   UNL     1       6.144  -4.221  25.034  0.00  0.00    -0.016 A 
ATOM     30  C   UNL     1       7.336  -3.504  24.779  0.00  0.00    +0.020 A 
BRANCH  29  31
ATOM     31  C   UNL     1       5.997  -5.086  26.228  0.00  0.00    +0.000 A 
ATOM     32  C   UNL     1       4.858  -5.873  26.454  0.00  0.00    +0.011 A 
ATOM     33  C   UNL     1       4.763  -6.692  27.581  0.00  0.00    +0.020 A 
ATOM     34  C   UNL     1       5.823  -6.719  28.467  0.00  0.00    +0.111 A 
ATOM     35  N   UNL     1       6.939  -5.982  28.308  0.00  0.00    -0.263 NA
ATOM     36  C   UNL     1       6.993  -5.189  27.207  0.00  0.00    +0.119 A 
ENDBRANCH  29  31
ENDBRANCH   5  25
TORSDOF 8
ENDMDL
MODEL 8
REMARK VINA RESULT:      -6.8      2.927      8.106
REMARK  Name = 
REMARK  9 active torsions:
REMARK  status: ('A' for Active; 'I' for Inactive)
REMARK    1  A    between atoms: C_1  and  O_2
REMARK    2  A    between atoms: O_2  and  C_3
REMARK    3  A    between atoms: C_6  and  S_27
REMARK    4  A    between atoms: C_8  and  N_9
REMARK    5  A    between atoms: C_13  and  C_15
REMARK    6  A    between atoms: C_17  and  C_21
REMARK    7  A    between atoms: S_27  and  N_30
REMARK    8  A    between atoms: N_30  and  C_31
REMARK    9  A    between atoms: C_31  and  C_32
REMARK                            x       y       z     vdW  Elec       q    Type
REMARK                         _______ _______ _______ _____ _____    ______ ____
ROOT
ATOM      1  N   UNL     1       8.941   2.254  21.882  0.00  0.00    -0.266 N 
ATOM      2  H   UNL     1       9.491   2.663  21.133  0.00  0.00    +0.157 HD
ATOM      3  C   UNL     1       9.025   0.917  22.019  0.00  0.00    +0.292 A 
ATOM      4  O   UNL     1       8.438   0.316  23.097  0.00  0.00    -0.424 OA
ATOM      5  C   UNL     1       8.720  -1.020  22.971  0.00  0.00    +0.157 A 
ATOM      6  C   UNL     1       9.480  -1.150  21.831  0.00  0.00    +0.163 A 
ATOM      7  N   UNL     1       9.677   0.077  21.241  0.00  0.00    -0.203 NA
ENDROOT
BRANCH   1   9
ATOM      8  C   UNL     1       8.743   4.148  23.405  0.00  0.00    +0.141 A 
ATOM      9  C   UNL     1       8.130   3.205  22.544  0.00  0.00    +0.079 A 
ATOM     10  C   UNL     1       6.728   3.205  22.473  0.00  0.00    +0.055 A 
ATOM     11  C   UNL     1       5.976   4.129  23.213  0.00  0.00    +0.107 A 
ATOM     12  C   UNL     1       6.602   5.115  23.970  0.00  0.00    +0.032 A 
ATOM     13  C   UNL     1       7.983   5.138  24.049  0.00  0.00    +0.049 A 
BRANCH  11  14
ATOM     14  S   UNL     1       4.220   3.927  23.350  0.00  0.00    +0.058 S 
ATOM     15  O   UNL     1       3.644   3.993  22.027  0.00  0.00    -0.153 OA
ATOM     16  O   UNL     1       3.766   4.801  24.412  0.00  0.00    -0.153 OA
BRANCH  14  17
ATOM     17  N   UNL     1       4.044   2.361  23.925  0.00  0.00    -0.190 NA
ATOM     18  H   UNL     1       4.314   1.690  23.205  0.00  0.00    +0.148 HD
BRANCH  17  19
ATOM     19  C   UNL     1       4.521   2.094  25.278  0.00  0.00    +0.109 C 
BRANCH  19  20
ATOM     20  C   UNL     1       5.536   0.991  25.234  0.00  0.00    +0.005 C 
ATOM     21  C   UNL     1       5.240  -0.315  25.931  0.00  0.00    +0.005 C 
ATOM     22  C   UNL     1       6.327   0.579  26.456  0.00  0.00    +0.005 C 
ENDBRANCH  19  20
ENDBRANCH  17  19
ENDBRANCH  14  17
ENDBRANCH  11  14
BRANCH   8  24
ATOM     23  C   UNL     1      10.761   5.315  23.731  0.00  0.00    +0.277 C 
ATOM     24  O   UNL     1      10.107   4.045  23.597  0.00  0.00    -0.493 OA
ENDBRANCH   8  24
ENDBRANCH   1   9
BRANCH   5  25
ATOM     25  C   UNL     1       8.179  -1.915  23.989  0.00  0.00    +0.019 A 
ATOM     26  C   UNL     1       8.664  -1.894  25.302  0.00  0.00    +0.011 A 
ATOM     27  C   UNL     1       8.121  -2.730  26.276  0.00  0.00    +0.001 A 
ATOM     28  C   UNL     1       7.089  -3.612  25.948  0.00  0.00    +0.008 A 
ATOM     29  C   UNL     1       6.574  -3.684  24.643  0.00  0.00    -0.016 A 
ATOM     30  C   UNL     1       7.140  -2.817  23.679  0.00  0.00    +0.020 A 
BRANCH  29  31
ATOM     31  C   UNL     1       5.491  -4.634  24.294  0.00  0.00    +0.000 A 
ATOM     32  C   UNL     1       5.315  -5.855  24.960  0.00  0.00    +0.011 A 
ATOM     33  C   UNL     1       4.270  -6.716  24.619  0.00  0.00    +0.020 A 
ATOM     34  C   UNL     1       3.405  -6.333  23.611  0.00  0.00    +0.111 A 
ATOM     35  N   UNL     1       3.526  -5.177  22.930  0.00  0.00    -0.263 NA
ATOM     36  C   UNL     1       4.559  -4.370  23.282  0.00  0.00    +0.119 A 
ENDBRANCH  29  31
ENDBRANCH   5  25
TORSDOF 8
ENDMDL
MODEL 9
REMARK VINA RESULT:      -6.8      3.708      5.528
REMARK  Name = 
REMARK  9 active torsions:
REMARK  status: ('A' for Active; 'I' for Inactive)
REMARK    1  A    between atoms: C_1  and  O_2
REMARK    2  A    between atoms: O_2  and  C_3
REMARK    3  A    between atoms: C_6  and  S_27
REMARK    4  A    between atoms: C_8  and  N_9
REMARK    5  A    between atoms: C_13  and  C_15
REMARK    6  A    between atoms: C_17  and  C_21
REMARK    7  A    between atoms: S_27  and  N_30
REMARK    8  A    between atoms: N_30  and  C_31
REMARK    9  A    between atoms: C_31  and  C_32
REMARK                            x       y       z     vdW  Elec       q    Type
REMARK                         _______ _______ _______ _____ _____    ______ ____
ROOT
ATOM      1  N   UNL     1       4.507  -6.431  23.351  0.00  0.00    -0.266 N 
ATOM      2  H   UNL     1       4.069  -7.201  22.855  0.00  0.00    +0.157 HD
ATOM      3  C   UNL     1       5.309  -5.634  22.621  0.00  0.00    +0.292 A 
ATOM      4  O   UNL     1       5.809  -4.491  23.183  0.00  0.00    -0.424 OA
ATOM      5  C   UNL     1       6.550  -3.892  22.197  0.00  0.00    +0.157 A 
ATOM      6  C   UNL     1       6.442  -4.699  21.086  0.00  0.00    +0.163 A 
ATOM      7  N   UNL     1       5.650  -5.790  21.358  0.00  0.00    -0.203 NA
ENDROOT
BRANCH   1   9
ATOM      8  C   UNL     1       2.895  -6.302  25.176  0.00  0.00    +0.141 A 
ATOM      9  C   UNL     1       4.234  -6.452  24.738  0.00  0.00    +0.079 A 
ATOM     10  C   UNL     1       5.235  -6.514  25.721  0.00  0.00    +0.055 A 
ATOM     11  C   UNL     1       4.904  -6.456  27.082  0.00  0.00    +0.107 A 
ATOM     12  C   UNL     1       3.575  -6.416  27.492  0.00  0.00    +0.032 A 
ATOM     13  C   UNL     1       2.570  -6.359  26.541  0.00  0.00    +0.049 A 
BRANCH  11  14
ATOM     14  S   UNL     1       6.181  -6.234  28.291  0.00  0.00    +0.058 S 
ATOM     15  O   UNL     1       6.325  -7.461  29.041  0.00  0.00    -0.153 OA
ATOM     16  O   UNL     1       5.934  -4.971  28.955  0.00  0.00    -0.153 OA
BRANCH  14  17
ATOM     17  N   UNL     1       7.566  -6.016  27.369  0.00  0.00    -0.190 NA
ATOM     18  H   UNL     1       7.558  -6.646  26.567  0.00  0.00    +0.148 HD
BRANCH  17  19
ATOM     19  C   UNL     1       7.981  -4.640  27.113  0.00  0.00    +0.109 C 
BRANCH  19  20
ATOM     20  C   UNL     1       8.155  -4.444  25.637  0.00  0.00    +0.005 C 
ATOM     21  C   UNL     1       9.004  -5.418  24.856  0.00  0.00    +0.005 C 
ATOM     22  C   UNL     1       9.470  -4.001  25.035  0.00  0.00    +0.005 C 
ENDBRANCH  19  20
ENDBRANCH  17  19
ENDBRANCH  14  17
ENDBRANCH  11  14
BRANCH   8  24
ATOM     23  C   UNL     1       0.848  -7.021  24.264  0.00  0.00    +0.277 C 
ATOM     24  O   UNL     1       1.930  -6.081  24.213  0.00  0.00    -0.493 OA
ENDBRANCH   8  24
ENDBRANCH   1   9
BRANCH   5  25
ATOM     25  C   UNL     1       7.233  -2.648  22.538  0.00  0.00    +0.019 A 
ATOM     26  C   UNL     1       8.402  -2.261  21.874  0.00  0.00    +0.011 A 
ATOM     27  C   UNL     1       9.032  -1.057  22.184  0.00  0.00    +0.001 A 
ATOM     28  C   UNL     1       8.507  -0.224  23.175  0.00  0.00    +0.008 A 
ATOM     29  C   UNL     1       7.343  -0.571  23.882  0.00  0.00    -0.016 A 
ATOM     30  C   UNL     1       6.722  -1.795  23.539  0.00  0.00    +0.020 A 
BRANCH  29  31
ATOM     31  C   UNL     1       6.798   0.306  24.945  0.00  0.00    +0.000 A 
ATOM     32  C   UNL     1       5.426   0.395  25.221  0.00  0.00    +0.011 A 
ATOM     33  C   UNL     1       4.950   1.217  26.244  0.00  0.00    +0.020 A 
ATOM     34  C   UNL     1       5.865   1.937  26.989  0.00  0.00    +0.111 A 
ATOM     35  N   UNL     1       7.193   1.899  26.768  0.00  0.00    -0.263 NA
ATOM     36  C   UNL     1       7.619   1.097  25.758  0.00  0.00    +0.119 A 
ENDBRANCH  29  31
ENDBRANCH   5  25
TORSDOF 8
ENDMDL
