MODEL 1
REMARK VINA RESULT:      -4.9      0.000      0.000
REMARK  Name = 
REMARK  5 active torsions:
REMARK  status: ('A' for Active; 'I' for Inactive)
REMARK    1  A    between atoms: C_1  and  C_2
REMARK    2  A    between atoms: C_3  and  C_4
REMARK    3  A    between atoms: C_4  and  C_5
REMARK    4  A    between atoms: C_5  and  C_6
REMARK    5  A    between atoms: C_6  and  O_7
REMARK                            x       y       z     vdW  Elec       q    Type
REMARK                         _______ _______ _______ _____ _____    ______ ____
ROOT
ATOM      1  C   UNL     1       4.872  -5.502  26.636  0.00  0.00    +0.051 C 
ATOM      2  C   UNL     1       6.252  -5.378  26.058  0.00  0.00    +0.033 A 
ATOM      3  C   UNL     1       7.347  -5.681  27.034  0.00  0.00    +0.257 A 
ATOM      4  O   UNL     1       7.108  -6.004  28.194  0.00  0.00    -0.267 OA
ATOM      5  N   UNL     1       8.624  -5.573  26.575  0.00  0.00    -0.275 N 
ATOM      6  H   UNL     1       9.371  -5.766  27.222  0.00  0.00    +0.173 HD
ATOM      7  C   UNL     1       8.969  -5.177  25.322  0.00  0.00    +0.327 A 
ATOM      8  O   UNL     1      10.136  -5.057  24.968  0.00  0.00    -0.247 OA
ATOM      9  N   UNL     1       7.932  -4.913  24.478  0.00  0.00    -0.311 N 
ATOM     10  H   UNL     1       8.215  -4.617  23.551  0.00  0.00    +0.170 HD
ATOM     11  C   UNL     1       6.598  -5.016  24.807  0.00  0.00    +0.029 A 
ENDROOT
BRANCH  11  12
ATOM     12  C   UNL     1       5.639  -4.655  23.689  0.00  0.00    +0.056 C 
BRANCH  12  13
ATOM     13  C   UNL     1       5.306  -5.803  22.726  0.00  0.00    +0.034 C 
BRANCH  13  14
ATOM     14  C   UNL     1       6.016  -5.707  21.382  0.00  0.00    +0.156 C 
BRANCH  14  15
ATOM     15  O   UNL     1       7.405  -5.955  21.563  0.00  0.00    -0.395 OA
ATOM     16  H   UNL     1       7.891  -5.480  20.868  0.00  0.00    +0.209 HD
ENDBRANCH  14  15
ENDBRANCH  13  14
ENDBRANCH  12  13
ENDBRANCH  11  12
TORSDOF 4
ENDMDL
MODEL 2
REMARK VINA RESULT:      -4.9      2.874      4.315
REMARK  Name = 
REMARK  5 active torsions:
REMARK  status: ('A' for Active; 'I' for Inactive)
REMARK    1  A    between atoms: C_1  and  C_2
REMARK    2  A    between atoms: C_3  and  C_4
REMARK    3  A    between atoms: C_4  and  C_5
REMARK    4  A    between atoms: C_5  and  C_6
REMARK    5  A    between atoms: C_6  and  O_7
REMARK                            x       y       z     vdW  Elec       q    Type
REMARK                         _______ _______ _______ _____ _____    ______ ____
ROOT
ATOM      1  C   UNL     1       6.371  -5.421  25.590  0.00  0.00    +0.051 C 
ATOM      2  C   UNL     1       6.341  -5.361  24.091  0.00  0.00    +0.033 A 
ATOM      3  C   UNL     1       5.378  -6.322  23.465  0.00  0.00    +0.257 A 
ATOM      4  O   UNL     1       4.684  -7.075  24.142  0.00  0.00    -0.267 OA
ATOM      5  N   UNL     1       5.313  -6.326  22.105  0.00  0.00    -0.275 N 
ATOM      6  H   UNL     1       4.675  -6.973  21.670  0.00  0.00    +0.173 HD
ATOM      7  C   UNL     1       6.079  -5.558  21.288  0.00  0.00    +0.327 A 
ATOM      8  O   UNL     1       6.011  -5.628  20.065  0.00  0.00    -0.247 OA
ATOM      9  N   UNL     1       6.939  -4.705  21.912  0.00  0.00    -0.311 N 
ATOM     10  H   UNL     1       7.501  -4.145  21.281  0.00  0.00    +0.170 HD
ATOM     11  C   UNL     1       7.077  -4.578  23.276  0.00  0.00    +0.029 A 
ENDROOT
BRANCH  11  12
ATOM     12  C   UNL     1       8.112  -3.563  23.719  0.00  0.00    +0.056 C 
BRANCH  12  13
ATOM     13  C   UNL     1       8.350  -2.410  22.734  0.00  0.00    +0.034 C 
BRANCH  13  14
ATOM     14  C   UNL     1       9.759  -1.833  22.786  0.00  0.00    +0.156 C 
BRANCH  14  15
ATOM     15  O   UNL     1      10.207  -1.562  21.463  0.00  0.00    -0.395 OA
ATOM     16  H   UNL     1      11.169  -1.707  21.433  0.00  0.00    +0.209 HD
ENDBRANCH  14  15
ENDBRANCH  13  14
ENDBRANCH  12  13
ENDBRANCH  11  12
TORSDOF 4
ENDMDL
MODEL 3
REMARK VINA RESULT:      -4.9      2.087      4.077
REMARK  Name = 
REMARK  5 active torsions:
REMARK  status: ('A' for Active; 'I' for Inactive)
REMARK    1  A    between atoms: C_1  and  C_2
REMARK    2  A    between atoms: C_3  and  C_4
REMARK    3  A    between atoms: C_4  and  C_5
REMARK    4  A    between atoms: C_5  and  C_6
REMARK    5  A    between atoms: C_6  and  O_7
REMARK                            x       y       z     vdW  Elec       q    Type
REMARK                         _______ _______ _______ _____ _____    ______ ____
ROOT
ATOM      1  C   UNL     1       5.833  -5.729  26.075  0.00  0.00    +0.051 C 
ATOM      2  C   UNL     1       5.927  -5.522  24.592  0.00  0.00    +0.033 A 
ATOM      3  C   UNL     1       5.121  -6.499  23.791  0.00  0.00    +0.257 A 
ATOM      4  O   UNL     1       4.450  -7.376  24.326  0.00  0.00    -0.267 OA
ATOM      5  N   UNL     1       5.175  -6.371  22.437  0.00  0.00    -0.275 N 
ATOM      6  H   UNL     1       4.645  -7.026  21.885  0.00  0.00    +0.173 HD
ATOM      7  C   UNL     1       5.928  -5.459  21.770  0.00  0.00    +0.327 A 
ATOM      8  O   UNL     1       5.974  -5.410  20.546  0.00  0.00    -0.247 OA
ATOM      9  N   UNL     1       6.642  -4.597  22.550  0.00  0.00    -0.311 N 
ATOM     10  H   UNL     1       7.197  -3.928  22.029  0.00  0.00    +0.170 HD
ATOM     11  C   UNL     1       6.649  -4.597  23.927  0.00  0.00    +0.029 A 
ENDROOT
BRANCH  11  12
ATOM     12  C   UNL     1       7.535  -3.541  24.558  0.00  0.00    +0.056 C 
BRANCH  12  13
ATOM     13  C   UNL     1       9.033  -3.875  24.567  0.00  0.00    +0.034 C 
BRANCH  13  14
ATOM     14  C   UNL     1       9.456  -4.782  25.716  0.00  0.00    +0.156 C 
BRANCH  14  15
ATOM     15  O   UNL     1       9.899  -6.029  25.193  0.00  0.00    -0.395 OA
ATOM     16  H   UNL     1      10.848  -5.955  24.995  0.00  0.00    +0.209 HD
ENDBRANCH  14  15
ENDBRANCH  13  14
ENDBRANCH  12  13
ENDBRANCH  11  12
TORSDOF 4
ENDMDL
MODEL 4
REMARK VINA RESULT:      -4.8      5.638      6.699
REMARK  Name = 
REMARK  5 active torsions:
REMARK  status: ('A' for Active; 'I' for Inactive)
REMARK    1  A    between atoms: C_1  and  C_2
REMARK    2  A    between atoms: C_3  and  C_4
REMARK    3  A    between atoms: C_4  and  C_5
REMARK    4  A    between atoms: C_5  and  C_6
REMARK    5  A    between atoms: C_6  and  O_7
REMARK                            x       y       z     vdW  Elec       q    Type
REMARK                         _______ _______ _______ _____ _____    ______ ____
ROOT
ATOM      1  C   UNL     1      10.341  -1.519  22.540  0.00  0.00    +0.051 C 
ATOM      2  C   UNL     1       9.875  -1.144  23.915  0.00  0.00    +0.033 A 
ATOM      3  C   UNL     1       8.999  -2.173  24.561  0.00  0.00    +0.257 A 
ATOM      4  O   UNL     1       8.710  -3.223  23.994  0.00  0.00    -0.267 OA
ATOM      5  N   UNL     1       8.532  -1.886  25.806  0.00  0.00    -0.275 N 
ATOM      6  H   UNL     1       7.935  -2.566  26.250  0.00  0.00    +0.173 HD
ATOM      7  C   UNL     1       8.769  -0.730  26.479  0.00  0.00    +0.327 A 
ATOM      8  O   UNL     1       8.291  -0.502  27.585  0.00  0.00    -0.247 OA
ATOM      9  N   UNL     1       9.570   0.171  25.843  0.00  0.00    -0.311 N 
ATOM     10  H   UNL     1       9.730   1.026  26.363  0.00  0.00    +0.170 HD
ATOM     11  C   UNL     1      10.134  -0.011  24.599  0.00  0.00    +0.029 A 
ENDROOT
BRANCH  11  12
ATOM     12  C   UNL     1      10.978   1.149  24.109  0.00  0.00    +0.056 C 
BRANCH  12  13
ATOM     13  C   UNL     1      10.197   2.431  23.792  0.00  0.00    +0.034 C 
BRANCH  13  14
ATOM     14  C   UNL     1       9.197   2.280  22.653  0.00  0.00    +0.156 C 
BRANCH  14  15
ATOM     15  O   UNL     1       9.901   2.090  21.431  0.00  0.00    -0.395 OA
ATOM     16  H   UNL     1       9.394   1.465  20.883  0.00  0.00    +0.209 HD
ENDBRANCH  14  15
ENDBRANCH  13  14
ENDBRANCH  12  13
ENDBRANCH  11  12
TORSDOF 4
ENDMDL
MODEL 5
REMARK VINA RESULT:      -4.8      4.848      5.462
REMARK  Name = 
REMARK  5 active torsions:
REMARK  status: ('A' for Active; 'I' for Inactive)
REMARK    1  A    between atoms: C_1  and  C_2
REMARK    2  A    between atoms: C_3  and  C_4
REMARK    3  A    between atoms: C_4  and  C_5
REMARK    4  A    between atoms: C_5  and  C_6
REMARK    5  A    between atoms: C_6  and  O_7
REMARK                            x       y       z     vdW  Elec       q    Type
REMARK                         _______ _______ _______ _____ _____    ______ ____
ROOT
ATOM      1  C   UNL     1       8.754   0.651  25.170  0.00  0.00    +0.051 C 
ATOM      2  C   UNL     1       9.029  -0.796  24.883  0.00  0.00    +0.033 A 
ATOM      3  C   UNL     1       8.482  -1.734  25.915  0.00  0.00    +0.257 A 
ATOM      4  O   UNL     1       7.864  -1.327  26.895  0.00  0.00    -0.267 OA
ATOM      5  N   UNL     1       8.709  -3.061  25.718  0.00  0.00    -0.275 N 
ATOM      6  H   UNL     1       8.354  -3.703  26.409  0.00  0.00    +0.173 HD
ATOM      7  C   UNL     1       9.422  -3.584  24.687  0.00  0.00    +0.327 A 
ATOM      8  O   UNL     1       9.634  -4.787  24.576  0.00  0.00    -0.247 OA
ATOM      9  N   UNL     1       9.897  -2.685  23.780  0.00  0.00    -0.311 N 
ATOM     10  H   UNL     1      10.427  -3.099  23.022  0.00  0.00    +0.170 HD
ATOM     11  C   UNL     1       9.709  -1.322  23.844  0.00  0.00    +0.029 A 
ENDROOT
BRANCH  11  12
ATOM     12  C   UNL     1      10.349  -0.539  22.715  0.00  0.00    +0.056 C 
BRANCH  12  13
ATOM     13  C   UNL     1       9.427  -0.252  21.522  0.00  0.00    +0.034 C 
BRANCH  13  14
ATOM     14  C   UNL     1       8.886   1.171  21.487  0.00  0.00    +0.156 C 
BRANCH  14  15
ATOM     15  O   UNL     1       9.970   2.091  21.548  0.00  0.00    -0.395 OA
ATOM     16  H   UNL     1      10.048   2.525  20.681  0.00  0.00    +0.209 HD
ENDBRANCH  14  15
ENDBRANCH  13  14
ENDBRANCH  12  13
ENDBRANCH  11  12
TORSDOF 4
ENDMDL
MODEL 6
REMARK VINA RESULT:      -4.8      1.286      1.447
REMARK  Name = 
REMARK  5 active torsions:
REMARK  status: ('A' for Active; 'I' for Inactive)
REMARK    1  A    between atoms: C_1  and  C_2
REMARK    2  A    between atoms: C_3  and  C_4
REMARK    3  A    between atoms: C_4  and  C_5
REMARK    4  A    between atoms: C_5  and  C_6
REMARK    5  A    between atoms: C_6  and  O_7
REMARK                            x       y       z     vdW  Elec       q    Type
REMARK                         _______ _______ _______ _____ _____    ______ ____
ROOT
ATOM      1  C   UNL     1       4.884  -5.349  26.760  0.00  0.00    +0.051 C 
ATOM      2  C   UNL     1       6.252  -5.268  26.149  0.00  0.00    +0.033 A 
ATOM      3  C   UNL     1       7.358  -5.653  27.085  0.00  0.00    +0.257 A 
ATOM      4  O   UNL     1       7.134  -6.004  28.239  0.00  0.00    -0.267 OA
ATOM      5  N   UNL     1       8.626  -5.587  26.594  0.00  0.00    -0.275 N 
ATOM      6  H   UNL     1       9.380  -5.836  27.214  0.00  0.00    +0.173 HD
ATOM      7  C   UNL     1       8.956  -5.165  25.346  0.00  0.00    +0.327 A 
ATOM      8  O   UNL     1      10.118  -5.086  24.964  0.00  0.00    -0.247 OA
ATOM      9  N   UNL     1       7.911  -4.826  24.540  0.00  0.00    -0.311 N 
ATOM     10  H   UNL     1       8.183  -4.512  23.615  0.00  0.00    +0.170 HD
ATOM     11  C   UNL     1       6.583  -4.880  24.901  0.00  0.00    +0.029 A 
ENDROOT
BRANCH  11  12
ATOM     12  C   UNL     1       5.612  -4.439  23.823  0.00  0.00    +0.056 C 
BRANCH  12  13
ATOM     13  C   UNL     1       5.139  -5.555  22.882  0.00  0.00    +0.034 C 
BRANCH  13  14
ATOM     14  C   UNL     1       3.881  -6.271  23.356  0.00  0.00    +0.156 C 
BRANCH  14  15
ATOM     15  O   UNL     1       4.241  -7.509  23.957  0.00  0.00    -0.395 OA
ATOM     16  H   UNL     1       4.805  -7.996  23.333  0.00  0.00    +0.209 HD
ENDBRANCH  14  15
ENDBRANCH  13  14
ENDBRANCH  12  13
ENDBRANCH  11  12
TORSDOF 4
ENDMDL
MODEL 7
REMARK VINA RESULT:      -4.7      9.597     10.247
REMARK  Name = 
REMARK  5 active torsions:
REMARK  status: ('A' for Active; 'I' for Inactive)
REMARK    1  A    between atoms: C_1  and  C_2
REMARK    2  A    between atoms: C_3  and  C_4
REMARK    3  A    between atoms: C_4  and  C_5
REMARK    4  A    between atoms: C_5  and  C_6
REMARK    5  A    between atoms: C_6  and  O_7
REMARK                            x       y       z     vdW  Elec       q    Type
REMARK                         _______ _______ _______ _____ _____    ______ ____
ROOT
ATOM      1  C   UNL     1       7.937   4.787  24.013  0.00  0.00    +0.051 C 
ATOM      2  C   UNL     1       9.421   4.705  23.813  0.00  0.00    +0.033 A 
ATOM      3  C   UNL     1      10.129   6.015  23.976  0.00  0.00    +0.257 A 
ATOM      4  O   UNL     1       9.524   7.046  24.254  0.00  0.00    -0.267 OA
ATOM      5  N   UNL     1      11.478   6.009  23.794  0.00  0.00    -0.275 N 
ATOM      6  H   UNL     1      11.966   6.885  23.892  0.00  0.00    +0.173 HD
ATOM      7  C   UNL     1      12.210   4.922  23.440  0.00  0.00    +0.327 A 
ATOM      8  O   UNL     1      13.420   4.976  23.248  0.00  0.00    -0.247 OA
ATOM      9  N   UNL     1      11.514   3.758  23.304  0.00  0.00    -0.311 N 
ATOM     10  H   UNL     1      12.082   2.961  23.038  0.00  0.00    +0.170 HD
ATOM     11  C   UNL     1      10.157   3.621  23.493  0.00  0.00    +0.029 A 
ENDROOT
BRANCH  11  12
ATOM     12  C   UNL     1       9.622   2.220  23.270  0.00  0.00    +0.056 C 
BRANCH  12  13
ATOM     13  C   UNL     1      10.047   1.568  21.947  0.00  0.00    +0.034 C 
BRANCH  13  14
ATOM     14  C   UNL     1       9.137   0.432  21.498  0.00  0.00    +0.156 C 
BRANCH  14  15
ATOM     15  O   UNL     1       9.915  -0.740  21.285  0.00  0.00    -0.395 OA
ATOM     16  H   UNL     1       9.864  -1.288  22.087  0.00  0.00    +0.209 HD
ENDBRANCH  14  15
ENDBRANCH  13  14
ENDBRANCH  12  13
ENDBRANCH  11  12
TORSDOF 4
ENDMDL
MODEL 8
REMARK VINA RESULT:      -4.6      1.741      3.017
REMARK  Name = 
REMARK  5 active torsions:
REMARK  status: ('A' for Active; 'I' for Inactive)
REMARK    1  A    between atoms: C_1  and  C_2
REMARK    2  A    between atoms: C_3  and  C_4
REMARK    3  A    between atoms: C_4  and  C_5
REMARK    4  A    between atoms: C_5  and  C_6
REMARK    5  A    between atoms: C_6  and  O_7
REMARK                            x       y       z     vdW  Elec       q    Type
REMARK                         _______ _______ _______ _____ _____    ______ ____
ROOT
ATOM      1  C   UNL     1       7.969  -3.896  23.213  0.00  0.00    +0.051 C 
ATOM      2  C   UNL     1       7.629  -4.451  24.565  0.00  0.00    +0.033 A 
ATOM      3  C   UNL     1       8.809  -4.991  25.313  0.00  0.00    +0.257 A 
ATOM      4  O   UNL     1       9.942  -4.964  24.840  0.00  0.00    -0.267 OA
ATOM      5  N   UNL     1       8.564  -5.522  26.542  0.00  0.00    -0.275 N 
ATOM      6  H   UNL     1       9.347  -5.897  27.053  0.00  0.00    +0.173 HD
ATOM      7  C   UNL     1       7.336  -5.631  27.112  0.00  0.00    +0.327 A 
ATOM      8  O   UNL     1       7.162  -6.154  28.207  0.00  0.00    -0.247 OA
ATOM      9  N   UNL     1       6.300  -5.125  26.386  0.00  0.00    -0.311 N 
ATOM     10  H   UNL     1       5.394  -5.220  26.831  0.00  0.00    +0.170 HD
ATOM     11  C   UNL     1       6.416  -4.532  25.148  0.00  0.00    +0.029 A 
ENDROOT
BRANCH  11  12
ATOM     12  C   UNL     1       5.108  -4.059  24.545  0.00  0.00    +0.056 C 
BRANCH  12  13
ATOM     13  C   UNL     1       3.999  -5.119  24.490  0.00  0.00    +0.034 C 
BRANCH  13  14
ATOM     14  C   UNL     1       4.158  -6.122  23.355  0.00  0.00    +0.156 C 
BRANCH  14  15
ATOM     15  O   UNL     1       4.487  -7.397  23.894  0.00  0.00    -0.395 OA
ATOM     16  H   UNL     1       5.238  -7.285  24.502  0.00  0.00    +0.209 HD
ENDBRANCH  14  15
ENDBRANCH  13  14
ENDBRANCH  12  13
ENDBRANCH  11  12
TORSDOF 4
ENDMDL
MODEL 9
REMARK VINA RESULT:      -4.5      3.080      4.391
REMARK  Name = 
REMARK  5 active torsions:
REMARK  status: ('A' for Active; 'I' for Inactive)
REMARK    1  A    between atoms: C_1  and  C_2
REMARK    2  A    between atoms: C_3  and  C_4
REMARK    3  A    between atoms: C_4  and  C_5
REMARK    4  A    between atoms: C_5  and  C_6
REMARK    5  A    between atoms: C_6  and  O_7
REMARK                            x       y       z     vdW  Elec       q    Type
REMARK                         _______ _______ _______ _____ _____    ______ ____
ROOT
ATOM      1  C   UNL     1       8.863  -4.537  26.084  0.00  0.00    +0.051 C 
ATOM      2  C   UNL     1       8.132  -4.196  24.819  0.00  0.00    +0.033 A 
ATOM      3  C   UNL     1       6.803  -4.873  24.685  0.00  0.00    +0.257 A 
ATOM      4  O   UNL     1       6.372  -5.629  25.551  0.00  0.00    -0.267 OA
ATOM      5  N   UNL     1       6.096  -4.615  23.551  0.00  0.00    -0.275 N 
ATOM      6  H   UNL     1       5.203  -5.069  23.443  0.00  0.00    +0.173 HD
ATOM      7  C   UNL     1       6.523  -3.829  22.529  0.00  0.00    +0.327 A 
ATOM      8  O   UNL     1       5.865  -3.659  21.508  0.00  0.00    -0.247 OA
ATOM      9  N   UNL     1       7.740  -3.241  22.704  0.00  0.00    -0.311 N 
ATOM     10  H   UNL     1       8.039  -2.662  21.928  0.00  0.00    +0.170 HD
ATOM     11  C   UNL     1       8.539  -3.391  23.816  0.00  0.00    +0.029 A 
ENDROOT
BRANCH  11  12
ATOM     12  C   UNL     1       9.854  -2.638  23.761  0.00  0.00    +0.056 C 
BRANCH  12  13
ATOM     13  C   UNL     1       9.723  -1.109  23.734  0.00  0.00    +0.034 C 
BRANCH  13  14
ATOM     14  C   UNL     1       9.975  -0.491  22.365  0.00  0.00    +0.156 C 
BRANCH  14  15
ATOM     15  O   UNL     1      10.129  -1.526  21.401  0.00  0.00    -0.395 OA
ATOM     16  H   UNL     1       9.709  -1.235  20.573  0.00  0.00    +0.209 HD
ENDBRANCH  14  15
ENDBRANCH  13  14
ENDBRANCH  12  13
ENDBRANCH  11  12
TORSDOF 4
ENDMDL
