MODEL 1
REMARK VINA RESULT:      -6.6      0.000      0.000
REMARK  Name = 
REMARK  13 active torsions:
REMARK  status: ('A' for Active; 'I' for Inactive)
REMARK    1  A    between atoms: C_1  and  C_2
REMARK    2  A    between atoms: C_2  and  O_3
REMARK    3  A    between atoms: O_3  and  C_4
REMARK    4  A    between atoms: C_4  and  C_6
REMARK    5  A    between atoms: C_6  and  C_8
REMARK    6  A    between atoms: C_6  and  N_16
REMARK    7  A    between atoms: C_8  and  C_9
REMARK    8  A    between atoms: C_9  and  C_10
REMARK    9  A    between atoms: N_16  and  CA_17
REMARK   10  A    between atoms: CA_17  and  CB_19
REMARK   11  A    between atoms: CA_17  and  C_20
REMARK   12  A    between atoms: C_26  and  C_28
REMARK   13  A    between atoms: C_28  and  O_29
REMARK                            x       y       z     vdW  Elec       q    Type
REMARK                         _______ _______ _______ _____ _____    ______ ____
ROOT
ATOM      1  CA  ALA A   1       6.353  -4.844  22.762  0.00  0.00    +0.138 C 
ATOM      2  CB  ALA A   1       7.183  -5.804  21.909  0.00  0.00    +0.034 C 
ENDROOT
BRANCH   1   3
ATOM      3  C   ALA A   1       6.686  -5.008  24.279  0.00  0.00    +0.233 C 
ATOM      4  N   UNK A   2       5.604  -4.985  25.158  0.00  0.00    -0.285 N 
ATOM      5  C   UNK A   2       5.747  -4.886  26.623  0.00  0.00    +0.187 C 
ATOM      6  C   UNK A   2       4.286  -4.937  27.131  0.00  0.00    +0.064 C 
ATOM      7  C   UNK A   2       3.399  -4.454  25.981  0.00  0.00    +0.080 C 
ATOM      8  S   UNK A   2       2.653  -2.825  26.351  0.00  0.00    -0.141 S 
ATOM      9  C   UNK A   2       1.058  -3.137  25.558  0.00  0.00    +0.081 C 
ATOM     10  C   UNK A   2       0.646  -4.551  25.905  0.00  0.00    +0.081 C 
ATOM     11  S   UNK A   2       2.052  -5.658  25.629  0.00  0.00    -0.141 S 
ATOM     12  C   UNK A   2       4.331  -4.376  24.768  0.00  0.00    +0.137 C 
ATOM     13  O   ALA A   1       7.826  -5.187  24.709  0.00  0.00    -0.274 OA
BRANCH   5  14
ATOM     14  C   UNK A   2       6.546  -5.914  27.455  0.00  0.00    +0.326 C 
ATOM     15  O   UNK A   2       6.001  -6.794  28.114  0.00  0.00    -0.249 OA
BRANCH  14  16
ATOM     16  O   UNK A   2       7.875  -5.733  27.523  0.00  0.00    -0.479 OA
ATOM     17  H   UNK A   2       8.380  -6.286  26.878  0.00  0.00    +0.295 HD
ENDBRANCH  14  16
ENDBRANCH   5  14
ENDBRANCH   1   3
BRANCH   1  18
ATOM     18  N   ALA A   1       6.496  -3.452  22.291  0.00  0.00    -0.294 NA
ATOM     19  H   ALA A   1       6.753  -3.444  21.298  0.00  0.00    +0.123 HD
BRANCH  18  20
ATOM     20  C   UNK A   0       7.500  -2.655  23.059  0.00  0.00    +0.164 C 
BRANCH  20  21
ATOM     21  C   UNK A   0       6.792  -1.405  23.621  0.00  0.00    +0.324 C 
ATOM     22  O   UNK A   0       6.594  -0.381  22.982  0.00  0.00    -0.249 OA
BRANCH  21  23
ATOM     23  O   UNK A   0       6.436  -1.605  24.923  0.00  0.00    -0.464 OA
BRANCH  23  25
ATOM     24  C   UNK A   0       8.336  -1.972  26.389  0.00  0.00    +0.048 C 
ATOM     25  C   UNK A   0       7.280  -0.993  25.911  0.00  0.00    +0.229 C 
ENDBRANCH  23  25
ENDBRANCH  21  23
ENDBRANCH  20  21
BRANCH  20  26
ATOM     26  C   UNK A   0       8.704  -2.234  22.196  0.00  0.00    +0.035 C 
BRANCH  26  27
ATOM     27  C   UNK A   0       9.981  -1.911  22.978  0.00  0.00    +0.037 C 
BRANCH  27  28
ATOM     28  C   UNK A   0      10.177  -0.410  23.017  0.00  0.00    -0.047 A 
ATOM     29  C   UNK A   0       9.881   0.381  21.897  0.00  0.00    +0.003 A 
ATOM     30  C   UNK A   0       9.986   1.772  21.965  0.00  0.00    +0.000 A 
ATOM     31  C   UNK A   0      10.383   2.387  23.151  0.00  0.00    +0.000 A 
ATOM     32  C   UNK A   0      10.677   1.610  24.270  0.00  0.00    +0.000 A 
ATOM     33  C   UNK A   0      10.574   0.220  24.205  0.00  0.00    +0.003 A 
ENDBRANCH  27  28
ENDBRANCH  26  27
ENDBRANCH  20  26
ENDBRANCH  18  20
ENDBRANCH   1  18
TORSDOF 11
ENDMDL
MODEL 2
REMARK VINA RESULT:      -6.6      2.591      3.880
REMARK  Name = 
REMARK  13 active torsions:
REMARK  status: ('A' for Active; 'I' for Inactive)
REMARK    1  A    between atoms: C_1  and  C_2
REMARK    2  A    between atoms: C_2  and  O_3
REMARK    3  A    between atoms: O_3  and  C_4
REMARK    4  A    between atoms: C_4  and  C_6
REMARK    5  A    between atoms: C_6  and  C_8
REMARK    6  A    between atoms: C_6  and  N_16
REMARK    7  A    between atoms: C_8  and  C_9
REMARK    8  A    between atoms: C_9  and  C_10
REMARK    9  A    between atoms: N_16  and  CA_17
REMARK   10  A    between atoms: CA_17  and  CB_19
REMARK   11  A    between atoms: CA_17  and  C_20
REMARK   12  A    between atoms: C_26  and  C_28
REMARK   13  A    between atoms: C_28  and  O_29
REMARK                            x       y       z     vdW  Elec       q    Type
REMARK                         _______ _______ _______ _____ _____    ______ ____
ROOT
ATOM      1  CA  ALA A   1       8.316  -1.233  22.500  0.00  0.00    +0.138 C 
ATOM      2  CB  ALA A   1       9.457  -1.138  21.486  0.00  0.00    +0.034 C 
ENDROOT
BRANCH   1   3
ATOM      3  C   ALA A   1       8.736  -2.086  23.740  0.00  0.00    +0.233 C 
ATOM      4  N   UNK A   2       7.912  -3.166  24.058  0.00  0.00    -0.285 N 
ATOM      5  C   UNK A   2       8.016  -3.927  25.318  0.00  0.00    +0.187 C 
ATOM      6  C   UNK A   2       6.930  -5.018  25.170  0.00  0.00    +0.064 C 
ATOM      7  C   UNK A   2       5.894  -4.482  24.179  0.00  0.00    +0.080 C 
ATOM      8  S   UNK A   2       4.307  -4.110  25.010  0.00  0.00    -0.141 S 
ATOM      9  C   UNK A   2       3.230  -4.635  23.655  0.00  0.00    +0.081 C 
ATOM     10  C   UNK A   2       3.809  -5.911  23.082  0.00  0.00    +0.081 C 
ATOM     11  S   UNK A   2       5.586  -5.686  22.821  0.00  0.00    -0.141 S 
ATOM     12  C   UNK A   2       6.524  -3.215  23.593  0.00  0.00    +0.137 C 
ATOM     13  O   ALA A   1       9.752  -1.870  24.401  0.00  0.00    -0.274 OA
BRANCH   5  14
ATOM     14  C   UNK A   2       9.315  -4.642  25.755  0.00  0.00    +0.326 C 
ATOM     15  O   UNK A   2      10.122  -5.093  24.947  0.00  0.00    -0.249 OA
BRANCH  14  16
ATOM     16  O   UNK A   2       9.471  -4.858  27.071  0.00  0.00    -0.479 OA
ATOM     17  H   UNK A   2       8.996  -5.661  27.396  0.00  0.00    +0.295 HD
ENDBRANCH  14  16
ENDBRANCH   5  14
ENDBRANCH   1   3
BRANCH   1  18
ATOM     18  N   ALA A   1       7.817   0.106  22.870  0.00  0.00    -0.294 NA
ATOM     19  H   ALA A   1       8.422   0.828  22.465  0.00  0.00    +0.123 HD
BRANCH  18  20
ATOM     20  C   UNK A   0       7.715   0.327  24.344  0.00  0.00    +0.164 C 
BRANCH  20  21
ATOM     21  C   UNK A   0       6.254   0.694  24.675  0.00  0.00    +0.324 C 
ATOM     22  O   UNK A   0       5.355  -0.124  24.816  0.00  0.00    -0.249 OA
BRANCH  21  23
ATOM     23  O   UNK A   0       6.113   2.047  24.773  0.00  0.00    -0.464 OA
BRANCH  23  25
ATOM     24  C   UNK A   0       5.701   3.024  22.590  0.00  0.00    +0.048 C 
ATOM     25  C   UNK A   0       5.112   2.642  23.935  0.00  0.00    +0.229 C 
ENDBRANCH  23  25
ENDBRANCH  21  23
ENDBRANCH  20  21
BRANCH  20  26
ATOM     26  C   UNK A   0       8.661   1.437  24.841  0.00  0.00    +0.035 C 
BRANCH  26  27
ATOM     27  C   UNK A   0       9.848   1.737  23.920  0.00  0.00    +0.037 C 
BRANCH  27  28
ATOM     28  C   UNK A   0      10.039   3.235  23.822  0.00  0.00    -0.047 A 
ATOM     29  C   UNK A   0       9.006   4.114  24.180  0.00  0.00    +0.003 A 
ATOM     30  C   UNK A   0       9.215   5.496  24.166  0.00  0.00    +0.000 A 
ATOM     31  C   UNK A   0      10.456   6.012  23.798  0.00  0.00    +0.000 A 
ATOM     32  C   UNK A   0      11.490   5.147  23.444  0.00  0.00    +0.000 A 
ATOM     33  C   UNK A   0      11.283   3.767  23.456  0.00  0.00    +0.003 A 
ENDBRANCH  27  28
ENDBRANCH  26  27
ENDBRANCH  20  26
ENDBRANCH  18  20
ENDBRANCH   1  18
TORSDOF 11
ENDMDL
MODEL 3
REMARK VINA RESULT:      -6.6      1.689      2.277
REMARK  Name = 
REMARK  13 active torsions:
REMARK  status: ('A' for Active; 'I' for Inactive)
REMARK    1  A    between atoms: C_1  and  C_2
REMARK    2  A    between atoms: C_2  and  O_3
REMARK    3  A    between atoms: O_3  and  C_4
REMARK    4  A    between atoms: C_4  and  C_6
REMARK    5  A    between atoms: C_6  and  C_8
REMARK    6  A    between atoms: C_6  and  N_16
REMARK    7  A    between atoms: C_8  and  C_9
REMARK    8  A    between atoms: C_9  and  C_10
REMARK    9  A    between atoms: N_16  and  CA_17
REMARK   10  A    between atoms: CA_17  and  CB_19
REMARK   11  A    between atoms: CA_17  and  C_20
REMARK   12  A    between atoms: C_26  and  C_28
REMARK   13  A    between atoms: C_28  and  O_29
REMARK                            x       y       z     vdW  Elec       q    Type
REMARK                         _______ _______ _______ _____ _____    ______ ____
ROOT
ATOM      1  CA  ALA A   1       7.561  -5.162  25.148  0.00  0.00    +0.138 C 
ATOM      2  CB  ALA A   1       9.063  -5.380  25.334  0.00  0.00    +0.034 C 
ENDROOT
BRANCH   1   3
ATOM      3  C   ALA A   1       6.788  -5.407  26.483  0.00  0.00    +0.233 C 
ATOM      4  N   UNK A   2       5.450  -5.786  26.366  0.00  0.00    -0.285 N 
ATOM      5  C   UNK A   2       4.512  -5.826  27.503  0.00  0.00    +0.187 C 
ATOM      6  C   UNK A   2       3.197  -6.335  26.868  0.00  0.00    +0.064 C 
ATOM      7  C   UNK A   2       3.257  -5.982  25.379  0.00  0.00    +0.080 C 
ATOM      8  S   UNK A   2       2.050  -4.676  24.953  0.00  0.00    -0.141 S 
ATOM      9  C   UNK A   2       1.610  -5.317  23.321  0.00  0.00    +0.081 C 
ATOM     10  C   UNK A   2       1.489  -6.822  23.440  0.00  0.00    +0.081 C 
ATOM     11  S   UNK A   2       2.930  -7.459  24.331  0.00  0.00    -0.141 S 
ATOM     12  C   UNK A   2       4.695  -5.508  25.143  0.00  0.00    +0.137 C 
ATOM     13  O   ALA A   1       7.307  -5.316  27.596  0.00  0.00    -0.274 OA
BRANCH   5  14
ATOM     14  C   UNK A   2       4.763  -6.686  28.763  0.00  0.00    +0.326 C 
ATOM     15  O   UNK A   2       4.294  -6.399  29.860  0.00  0.00    -0.249 OA
BRANCH  14  16
ATOM     16  O   UNK A   2       5.622  -7.710  28.633  0.00  0.00    -0.479 OA
ATOM     17  H   UNK A   2       6.035  -7.986  29.487  0.00  0.00    +0.295 HD
ENDBRANCH  14  16
ENDBRANCH   5  14
ENDBRANCH   1   3
BRANCH   1  18
ATOM     18  N   ALA A   1       7.282  -3.838  24.560  0.00  0.00    -0.294 NA
ATOM     19  H   ALA A   1       6.979  -3.945  23.586  0.00  0.00    +0.123 HD
BRANCH  18  20
ATOM     20  C   UNK A   0       8.445  -2.900  24.606  0.00  0.00    +0.164 C 
BRANCH  20  21
ATOM     21  C   UNK A   0       8.114  -1.775  25.610  0.00  0.00    +0.324 C 
ATOM     22  O   UNK A   0       8.715  -1.593  26.660  0.00  0.00    -0.249 OA
BRANCH  21  23
ATOM     23  O   UNK A   0       7.059  -1.035  25.163  0.00  0.00    -0.464 OA
BRANCH  23  25
ATOM     24  C   UNK A   0       6.844   1.087  24.005  0.00  0.00    +0.048 C 
ATOM     25  C   UNK A   0       7.177   0.388  25.310  0.00  0.00    +0.229 C 
ENDBRANCH  23  25
ENDBRANCH  21  23
ENDBRANCH  20  21
BRANCH  20  26
ATOM     26  C   UNK A   0       8.770  -2.295  23.227  0.00  0.00    +0.035 C 
BRANCH  26  27
ATOM     27  C   UNK A   0      10.223  -1.848  23.042  0.00  0.00    +0.037 C 
BRANCH  27  28
ATOM     28  C   UNK A   0      10.277  -0.336  22.980  0.00  0.00    -0.047 A 
ATOM     29  C   UNK A   0       9.814   0.352  21.848  0.00  0.00    +0.003 A 
ATOM     30  C   UNK A   0       9.789   1.749  21.828  0.00  0.00    +0.000 A 
ATOM     31  C   UNK A   0      10.222   2.471  22.939  0.00  0.00    +0.000 A 
ATOM     32  C   UNK A   0      10.681   1.798  24.069  0.00  0.00    +0.000 A 
ATOM     33  C   UNK A   0      10.708   0.402  24.091  0.00  0.00    +0.003 A 
ENDBRANCH  27  28
ENDBRANCH  26  27
ENDBRANCH  20  26
ENDBRANCH  18  20
ENDBRANCH   1  18
TORSDOF 11
ENDMDL
MODEL 4
REMARK VINA RESULT:      -6.5      2.777      4.424
REMARK  Name = 
REMARK  13 active torsions:
REMARK  status: ('A' for Active; 'I' for Inactive)
REMARK    1  A    between atoms: C_1  and  C_2
REMARK    2  A    between atoms: C_2  and  O_3
REMARK    3  A    between atoms: O_3  and  C_4
REMARK    4  A    between atoms: C_4  and  C_6
REMARK    5  A    between atoms: C_6  and  C_8
REMARK    6  A    between atoms: C_6  and  N_16
REMARK    7  A    between atoms: C_8  and  C_9
REMARK    8  A    between atoms: C_9  and  C_10
REMARK    9  A    between atoms: N_16  and  CA_17
REMARK   10  A    between atoms: CA_17  and  CB_19
REMARK   11  A    between atoms: CA_17  and  C_20
REMARK   12  A    between atoms: C_26  and  C_28
REMARK   13  A    between atoms: C_28  and  O_29
REMARK                            x       y       z     vdW  Elec       q    Type
REMARK                         _______ _______ _______ _____ _____    ______ ____
ROOT
ATOM      1  CA  ALA A   1       7.573  -0.631  25.301  0.00  0.00    +0.138 C 
ATOM      2  CB  ALA A   1       6.850  -0.370  23.980  0.00  0.00    +0.034 C 
ENDROOT
BRANCH   1   3
ATOM      3  C   ALA A   1       8.291  -2.018  25.284  0.00  0.00    +0.233 C 
ATOM      4  N   UNK A   2       7.510  -3.125  25.619  0.00  0.00    -0.285 N 
ATOM      5  C   UNK A   2       8.068  -4.465  25.885  0.00  0.00    +0.187 C 
ATOM      6  C   UNK A   2       6.815  -5.327  26.165  0.00  0.00    +0.064 C 
ATOM      7  C   UNK A   2       5.716  -4.373  26.641  0.00  0.00    +0.080 C 
ATOM      8  S   UNK A   2       5.334  -4.626  28.412  0.00  0.00    -0.141 S 
ATOM      9  C   UNK A   2       3.554  -4.332  28.289  0.00  0.00    +0.081 C 
ATOM     10  C   UNK A   2       3.066  -5.016  27.030  0.00  0.00    +0.081 C 
ATOM     11  S   UNK A   2       4.173  -4.593  25.662  0.00  0.00    -0.141 S 
ATOM     12  C   UNK A   2       6.275  -2.969  26.388  0.00  0.00    +0.137 C 
ATOM     13  O   ALA A   1       9.469  -2.170  24.963  0.00  0.00    -0.274 OA
BRANCH   5  14
ATOM     14  C   UNK A   2       8.920  -5.235  24.850  0.00  0.00    +0.326 C 
ATOM     15  O   UNK A   2       8.497  -5.524  23.735  0.00  0.00    -0.249 OA
BRANCH  14  16
ATOM     16  O   UNK A   2      10.115  -5.683  25.266  0.00  0.00    -0.479 OA
ATOM     17  H   UNK A   2      10.744  -5.869  24.526  0.00  0.00    +0.295 HD
ENDBRANCH  14  16
ENDBRANCH   5  14
ENDBRANCH   1   3
BRANCH   1  18
ATOM     18  N   ALA A   1       8.484   0.480  25.641  0.00  0.00    -0.294 NA
ATOM     19  H   ALA A   1       8.073   1.052  26.387  0.00  0.00    +0.123 HD
BRANCH  18  20
ATOM     20  C   UNK A   0       8.819   1.361  24.482  0.00  0.00    +0.164 C 
BRANCH  20  21
ATOM     21  C   UNK A   0      10.254   1.026  24.024  0.00  0.00    +0.324 C 
ATOM     22  O   UNK A   0      11.149   0.667  24.776  0.00  0.00    -0.249 OA
BRANCH  21  23
ATOM     23  O   UNK A   0      10.376   1.201  22.676  0.00  0.00    -0.464 OA
BRANCH  23  25
ATOM     24  C   UNK A   0       9.788  -0.958  21.736  0.00  0.00    +0.048 C 
ATOM     25  C   UNK A   0       9.420   0.509  21.859  0.00  0.00    +0.229 C 
ENDBRANCH  23  25
ENDBRANCH  21  23
ENDBRANCH  20  21
BRANCH  20  26
ATOM     26  C   UNK A   0       8.715   2.858  24.829  0.00  0.00    +0.035 C 
BRANCH  26  27
ATOM     27  C   UNK A   0       8.842   3.811  23.637  0.00  0.00    +0.037 C 
BRANCH  27  28
ATOM     28  C   UNK A   0       9.996   4.761  23.876  0.00  0.00    -0.047 A 
ATOM     29  C   UNK A   0       9.830   5.905  24.672  0.00  0.00    +0.003 A 
ATOM     30  C   UNK A   0      10.918   6.734  24.957  0.00  0.00    +0.000 A 
ATOM     31  C   UNK A   0      12.181   6.427  24.455  0.00  0.00    +0.000 A 
ATOM     32  C   UNK A   0      12.358   5.292  23.667  0.00  0.00    +0.000 A 
ATOM     33  C   UNK A   0      11.272   4.463  23.379  0.00  0.00    +0.003 A 
ENDBRANCH  27  28
ENDBRANCH  26  27
ENDBRANCH  20  26
ENDBRANCH  18  20
ENDBRANCH   1  18
TORSDOF 11
ENDMDL
MODEL 5
REMARK VINA RESULT:      -6.5      1.649      2.665
REMARK  Name = 
REMARK  13 active torsions:
REMARK  status: ('A' for Active; 'I' for Inactive)
REMARK    1  A    between atoms: C_1  and  C_2
REMARK    2  A    between atoms: C_2  and  O_3
REMARK    3  A    between atoms: O_3  and  C_4
REMARK    4  A    between atoms: C_4  and  C_6
REMARK    5  A    between atoms: C_6  and  C_8
REMARK    6  A    between atoms: C_6  and  N_16
REMARK    7  A    between atoms: C_8  and  C_9
REMARK    8  A    between atoms: C_9  and  C_10
REMARK    9  A    between atoms: N_16  and  CA_17
REMARK   10  A    between atoms: CA_17  and  CB_19
REMARK   11  A    between atoms: CA_17  and  C_20
REMARK   12  A    between atoms: C_26  and  C_28
REMARK   13  A    between atoms: C_28  and  O_29
REMARK                            x       y       z     vdW  Elec       q    Type
REMARK                         _______ _______ _______ _____ _____    ______ ____
ROOT
ATOM      1  CA  ALA A   1       7.625  -4.305  24.969  0.00  0.00    +0.138 C 
ATOM      2  CB  ALA A   1       8.865  -5.112  24.581  0.00  0.00    +0.034 C 
ENDROOT
BRANCH   1   3
ATOM      3  C   ALA A   1       7.097  -4.728  26.376  0.00  0.00    +0.233 C 
ATOM      4  N   UNK A   2       5.836  -5.325  26.413  0.00  0.00    -0.285 N 
ATOM      5  C   UNK A   2       5.086  -5.568  27.660  0.00  0.00    +0.187 C 
ATOM      6  C   UNK A   2       3.797  -6.270  27.173  0.00  0.00    +0.064 C 
ATOM      7  C   UNK A   2       3.590  -5.857  25.714  0.00  0.00    +0.080 C 
ATOM      8  S   UNK A   2       2.136  -4.761  25.530  0.00  0.00    -0.141 S 
ATOM      9  C   UNK A   2       1.584  -5.407  23.934  0.00  0.00    +0.081 C 
ATOM     10  C   UNK A   2       1.730  -6.913  23.977  0.00  0.00    +0.081 C 
ATOM     11  S   UNK A   2       3.366  -7.328  24.630  0.00  0.00    -0.141 S 
ATOM     12  C   UNK A   2       4.882  -5.135  25.320  0.00  0.00    +0.137 C 
ATOM     13  O   ALA A   1       7.744  -4.591  27.414  0.00  0.00    -0.274 OA
BRANCH   5  14
ATOM     14  C   UNK A   2       5.649  -6.419  28.821  0.00  0.00    +0.326 C 
ATOM     15  O   UNK A   2       6.110  -5.917  29.842  0.00  0.00    -0.249 OA
BRANCH  14  16
ATOM     16  O   UNK A   2       5.722  -7.744  28.618  0.00  0.00    -0.479 OA
ATOM     17  H   UNK A   2       5.018  -8.252  29.091  0.00  0.00    +0.295 HD
ENDBRANCH  14  16
ENDBRANCH   5  14
ENDBRANCH   1   3
BRANCH   1  18
ATOM     18  N   ALA A   1       7.877  -2.855  24.864  0.00  0.00    -0.294 NA
ATOM     19  H   ALA A   1       7.280  -2.348  25.526  0.00  0.00    +0.123 HD
BRANCH  18  20
ATOM     20  C   UNK A   0       7.659  -2.302  23.493  0.00  0.00    +0.164 C 
BRANCH  20  21
ATOM     21  C   UNK A   0       6.444  -3.021  22.872  0.00  0.00    +0.324 C 
ATOM     22  O   UNK A   0       5.285  -2.839  23.220  0.00  0.00    -0.249 OA
BRANCH  21  23
ATOM     23  O   UNK A   0       6.850  -3.889  21.900  0.00  0.00    -0.464 OA
BRANCH  23  25
ATOM     24  C   UNK A   0       6.659  -6.308  21.907  0.00  0.00    +0.048 C 
ATOM     25  C   UNK A   0       5.969  -4.987  21.623  0.00  0.00    +0.229 C 
ENDBRANCH  23  25
ENDBRANCH  21  23
ENDBRANCH  20  21
BRANCH  20  26
ATOM     26  C   UNK A   0       8.892  -2.474  22.585  0.00  0.00    +0.035 C 
BRANCH  26  27
ATOM     27  C   UNK A   0      10.201  -1.923  23.159  0.00  0.00    +0.037 C 
BRANCH  27  28
ATOM     28  C   UNK A   0      10.173  -0.410  23.104  0.00  0.00    -0.047 A 
ATOM     29  C   UNK A   0      10.599   0.355  24.200  0.00  0.00    +0.003 A 
ATOM     30  C   UNK A   0      10.649   1.749  24.115  0.00  0.00    +0.000 A 
ATOM     31  C   UNK A   0      10.278   2.391  22.935  0.00  0.00    +0.000 A 
ATOM     32  C   UNK A   0       9.856   1.640  21.840  0.00  0.00    +0.000 A 
ATOM     33  C   UNK A   0       9.805   0.248  21.922  0.00  0.00    +0.003 A 
ENDBRANCH  27  28
ENDBRANCH  26  27
ENDBRANCH  20  26
ENDBRANCH  18  20
ENDBRANCH   1  18
TORSDOF 11
ENDMDL
MODEL 6
REMARK VINA RESULT:      -6.4      1.800      2.655
REMARK  Name = 
REMARK  13 active torsions:
REMARK  status: ('A' for Active; 'I' for Inactive)
REMARK    1  A    between atoms: C_1  and  C_2
REMARK    2  A    between atoms: C_2  and  O_3
REMARK    3  A    between atoms: O_3  and  C_4
REMARK    4  A    between atoms: C_4  and  C_6
REMARK    5  A    between atoms: C_6  and  C_8
REMARK    6  A    between atoms: C_6  and  N_16
REMARK    7  A    between atoms: C_8  and  C_9
REMARK    8  A    between atoms: C_9  and  C_10
REMARK    9  A    between atoms: N_16  and  CA_17
REMARK   10  A    between atoms: CA_17  and  CB_19
REMARK   11  A    between atoms: CA_17  and  C_20
REMARK   12  A    between atoms: C_26  and  C_28
REMARK   13  A    between atoms: C_28  and  O_29
REMARK                            x       y       z     vdW  Elec       q    Type
REMARK                         _______ _______ _______ _____ _____    ______ ____
ROOT
ATOM      1  CA  ALA A   1       7.943  -4.597  25.007  0.00  0.00    +0.138 C 
ATOM      2  CB  ALA A   1       9.220  -5.414  24.804  0.00  0.00    +0.034 C 
ENDROOT
BRANCH   1   3
ATOM      3  C   ALA A   1       7.281  -4.920  26.384  0.00  0.00    +0.233 C 
ATOM      4  N   UNK A   2       5.976  -5.412  26.346  0.00  0.00    -0.285 N 
ATOM      5  C   UNK A   2       5.120  -5.543  27.540  0.00  0.00    +0.187 C 
ATOM      6  C   UNK A   2       3.815  -6.158  26.982  0.00  0.00    +0.064 C 
ATOM      7  C   UNK A   2       3.749  -5.786  25.498  0.00  0.00    +0.080 C 
ATOM      8  S   UNK A   2       2.409  -4.584  25.170  0.00  0.00    -0.141 S 
ATOM      9  C   UNK A   2       1.921  -5.245  23.559  0.00  0.00    +0.081 C 
ATOM     10  C   UNK A   2       1.937  -6.755  23.662  0.00  0.00    +0.081 C 
ATOM     11  S   UNK A   2       3.482  -7.275  24.450  0.00  0.00    -0.141 S 
ATOM     12  C   UNK A   2       5.122  -5.188  25.178  0.00  0.00    +0.137 C 
ATOM     13  O   ALA A   1       7.862  -4.796  27.463  0.00  0.00    -0.274 OA
BRANCH   5  14
ATOM     14  C   UNK A   2       5.525  -6.391  28.768  0.00  0.00    +0.326 C 
ATOM     15  O   UNK A   2       5.971  -5.890  29.796  0.00  0.00    -0.249 OA
BRANCH  14  16
ATOM     16  O   UNK A   2       5.478  -7.725  28.622  0.00  0.00    -0.479 OA
ATOM     17  H   UNK A   2       5.655  -8.218  29.460  0.00  0.00    +0.295 HD
ENDBRANCH  14  16
ENDBRANCH   5  14
ENDBRANCH   1   3
BRANCH   1  18
ATOM     18  N   ALA A   1       8.195  -3.155  24.817  0.00  0.00    -0.294 NA
ATOM     19  H   ALA A   1       8.678  -2.775  25.638  0.00  0.00    +0.123 HD
BRANCH  18  20
ATOM     20  C   UNK A   0       6.959  -2.354  24.565  0.00  0.00    +0.164 C 
BRANCH  20  21
ATOM     21  C   UNK A   0       6.799  -2.187  23.039  0.00  0.00    +0.324 C 
ATOM     22  O   UNK A   0       6.134  -2.931  22.332  0.00  0.00    -0.249 OA
BRANCH  21  23
ATOM     23  O   UNK A   0       7.511  -1.108  22.602  0.00  0.00    -0.464 OA
BRANCH  23  25
ATOM     24  C   UNK A   0       9.343  -0.121  21.354  0.00  0.00    +0.048 C 
ATOM     25  C   UNK A   0       8.732  -1.396  21.905  0.00  0.00    +0.229 C 
ENDBRANCH  23  25
ENDBRANCH  21  23
ENDBRANCH  20  21
BRANCH  20  26
ATOM     26  C   UNK A   0       7.004  -0.972  25.243  0.00  0.00    +0.035 C 
BRANCH  26  27
ATOM     27  C   UNK A   0       8.303  -0.660  25.993  0.00  0.00    +0.037 C 
BRANCH  27  28
ATOM     28  C   UNK A   0       9.105   0.352  25.203  0.00  0.00    -0.047 A 
ATOM     29  C   UNK A   0       8.533   1.569  24.806  0.00  0.00    +0.003 A 
ATOM     30  C   UNK A   0       9.302   2.533  24.149  0.00  0.00    +0.000 A 
ATOM     31  C   UNK A   0      10.649   2.293  23.886  0.00  0.00    +0.000 A 
ATOM     32  C   UNK A   0      11.229   1.088  24.279  0.00  0.00    +0.000 A 
ATOM     33  C   UNK A   0      10.462   0.123  24.935  0.00  0.00    +0.003 A 
ENDBRANCH  27  28
ENDBRANCH  26  27
ENDBRANCH  20  26
ENDBRANCH  18  20
ENDBRANCH   1  18
TORSDOF 11
ENDMDL
MODEL 7
REMARK VINA RESULT:      -6.4      3.252      4.445
REMARK  Name = 
REMARK  13 active torsions:
REMARK  status: ('A' for Active; 'I' for Inactive)
REMARK    1  A    between atoms: C_1  and  C_2
REMARK    2  A    between atoms: C_2  and  O_3
REMARK    3  A    between atoms: O_3  and  C_4
REMARK    4  A    between atoms: C_4  and  C_6
REMARK    5  A    between atoms: C_6  and  C_8
REMARK    6  A    between atoms: C_6  and  N_16
REMARK    7  A    between atoms: C_8  and  C_9
REMARK    8  A    between atoms: C_9  and  C_10
REMARK    9  A    between atoms: N_16  and  CA_17
REMARK   10  A    between atoms: CA_17  and  CB_19
REMARK   11  A    between atoms: CA_17  and  C_20
REMARK   12  A    between atoms: C_26  and  C_28
REMARK   13  A    between atoms: C_28  and  O_29
REMARK                            x       y       z     vdW  Elec       q    Type
REMARK                         _______ _______ _______ _____ _____    ______ ____
ROOT
ATOM      1  CA  ALA A   1       8.291  -1.255  22.561  0.00  0.00    +0.138 C 
ATOM      2  CB  ALA A   1       9.440  -1.115  21.562  0.00  0.00    +0.034 C 
ENDROOT
BRANCH   1   3
ATOM      3  C   ALA A   1       8.711  -2.137  23.780  0.00  0.00    +0.233 C 
ATOM      4  N   UNK A   2       7.883  -3.219  24.078  0.00  0.00    -0.285 N 
ATOM      5  C   UNK A   2       7.989  -4.008  25.321  0.00  0.00    +0.187 C 
ATOM      6  C   UNK A   2       6.898  -5.092  25.153  0.00  0.00    +0.064 C 
ATOM      7  C   UNK A   2       5.860  -4.530  24.178  0.00  0.00    +0.080 C 
ATOM      8  S   UNK A   2       4.278  -4.169  25.022  0.00  0.00    -0.141 S 
ATOM      9  C   UNK A   2       3.194  -4.660  23.660  0.00  0.00    +0.081 C 
ATOM     10  C   UNK A   2       3.766  -5.925  23.057  0.00  0.00    +0.081 C 
ATOM     11  S   UNK A   2       5.543  -5.702  22.795  0.00  0.00    -0.141 S 
ATOM     12  C   UNK A   2       6.494  -3.253  23.617  0.00  0.00    +0.137 C 
ATOM     13  O   ALA A   1       9.730  -1.939  24.442  0.00  0.00    -0.274 OA
BRANCH   5  14
ATOM     14  C   UNK A   2       9.286  -4.738  25.738  0.00  0.00    +0.326 C 
ATOM     15  O   UNK A   2      10.050  -5.242  24.919  0.00  0.00    -0.249 OA
BRANCH  14  16
ATOM     16  O   UNK A   2       9.489  -4.904  27.055  0.00  0.00    -0.479 OA
ATOM     17  H   UNK A   2      10.343  -5.355  27.266  0.00  0.00    +0.295 HD
ENDBRANCH  14  16
ENDBRANCH   5  14
ENDBRANCH   1   3
BRANCH   1  18
ATOM     18  N   ALA A   1       7.768   0.066  22.963  0.00  0.00    -0.294 NA
ATOM     19  H   ALA A   1       7.255   0.490  22.183  0.00  0.00    +0.123 HD
BRANCH  18  20
ATOM     20  C   UNK A   0       8.824   1.017  23.425  0.00  0.00    +0.164 C 
BRANCH  20  21
ATOM     21  C   UNK A   0       8.482   1.450  24.867  0.00  0.00    +0.324 C 
ATOM     22  O   UNK A   0       8.064   0.691  25.731  0.00  0.00    -0.249 OA
BRANCH  21  23
ATOM     23  O   UNK A   0       8.701   2.787  25.026  0.00  0.00    -0.464 OA
BRANCH  23  25
ATOM     24  C   UNK A   0       8.023   4.987  25.793  0.00  0.00    +0.048 C 
ATOM     25  C   UNK A   0       7.727   3.499  25.803  0.00  0.00    +0.229 C 
ENDBRANCH  23  25
ENDBRANCH  21  23
ENDBRANCH  20  21
BRANCH  20  26
ATOM     26  C   UNK A   0       8.938   2.257  22.518  0.00  0.00    +0.035 C 
BRANCH  26  27
ATOM     27  C   UNK A   0       7.745   2.490  21.586  0.00  0.00    +0.037 C 
BRANCH  27  28
ATOM     28  C   UNK A   0       6.838   3.542  22.189  0.00  0.00    -0.047 A 
ATOM     29  C   UNK A   0       7.188   4.900  22.145  0.00  0.00    +0.003 A 
ATOM     30  C   UNK A   0       6.310   5.874  22.630  0.00  0.00    +0.000 A 
ATOM     31  C   UNK A   0       5.075   5.501  23.157  0.00  0.00    +0.000 A 
ATOM     32  C   UNK A   0       4.717   4.155  23.202  0.00  0.00    +0.000 A 
ATOM     33  C   UNK A   0       5.593   3.181  22.720  0.00  0.00    +0.003 A 
ENDBRANCH  27  28
ENDBRANCH  26  27
ENDBRANCH  20  26
ENDBRANCH  18  20
ENDBRANCH   1  18
TORSDOF 11
ENDMDL
MODEL 8
REMARK VINA RESULT:      -6.3      1.630      2.179
REMARK  Name = 
REMARK  13 active torsions:
REMARK  status: ('A' for Active; 'I' for Inactive)
REMARK    1  A    between atoms: C_1  and  C_2
REMARK    2  A    between atoms: C_2  and  O_3
REMARK    3  A    between atoms: O_3  and  C_4
REMARK    4  A    between atoms: C_4  and  C_6
REMARK    5  A    between atoms: C_6  and  C_8
REMARK    6  A    between atoms: C_6  and  N_16
REMARK    7  A    between atoms: C_8  and  C_9
REMARK    8  A    between atoms: C_9  and  C_10
REMARK    9  A    between atoms: N_16  and  CA_17
REMARK   10  A    between atoms: CA_17  and  CB_19
REMARK   11  A    between atoms: CA_17  and  C_20
REMARK   12  A    between atoms: C_26  and  C_28
REMARK   13  A    between atoms: C_28  and  O_29
REMARK                            x       y       z     vdW  Elec       q    Type
REMARK                         _______ _______ _______ _____ _____    ______ ____
ROOT
ATOM      1  CA  ALA A   1       7.650  -4.441  24.745  0.00  0.00    +0.138 C 
ATOM      2  CB  ALA A   1       7.047  -5.240  23.590  0.00  0.00    +0.034 C 
ENDROOT
BRANCH   1   3
ATOM      3  C   ALA A   1       7.402  -5.154  26.112  0.00  0.00    +0.233 C 
ATOM      4  N   UNK A   2       6.210  -4.844  26.767  0.00  0.00    -0.285 N 
ATOM      5  C   UNK A   2       5.921  -5.233  28.161  0.00  0.00    +0.187 C 
ATOM      6  C   UNK A   2       4.489  -4.698  28.394  0.00  0.00    +0.064 C 
ATOM      7  C   UNK A   2       4.277  -3.549  27.405  0.00  0.00    +0.080 C 
ATOM      8  S   UNK A   2       4.187  -1.936  28.264  0.00  0.00    -0.141 S 
ATOM      9  C   UNK A   2       2.933  -1.195  27.192  0.00  0.00    +0.081 C 
ATOM     10  C   UNK A   2       1.895  -2.259  26.903  0.00  0.00    +0.081 C 
ATOM     11  S   UNK A   2       2.737  -3.789  26.426  0.00  0.00    -0.141 S 
ATOM     12  C   UNK A   2       5.484  -3.610  26.464  0.00  0.00    +0.137 C 
ATOM     13  O   ALA A   1       8.176  -5.979  26.599  0.00  0.00    -0.274 OA
BRANCH   5  14
ATOM     14  C   UNK A   2       5.933  -6.704  28.637  0.00  0.00    +0.326 C 
ATOM     15  O   UNK A   2       6.774  -7.135  29.420  0.00  0.00    -0.249 OA
BRANCH  14  16
ATOM     16  O   UNK A   2       5.045  -7.531  28.062  0.00  0.00    -0.479 OA
ATOM     17  H   UNK A   2       4.886  -7.334  27.107  0.00  0.00    +0.295 HD
ENDBRANCH  14  16
ENDBRANCH   5  14
ENDBRANCH   1   3
BRANCH   1  18
ATOM     18  N   ALA A   1       9.076  -4.145  24.504  0.00  0.00    -0.294 NA
ATOM     19  H   ALA A   1       9.642  -4.503  25.281  0.00  0.00    +0.123 HD
BRANCH  18  20
ATOM     20  C   UNK A   0       9.368  -2.692  24.317  0.00  0.00    +0.164 C 
BRANCH  20  21
ATOM     21  C   UNK A   0       8.510  -1.896  25.322  0.00  0.00    +0.324 C 
ATOM     22  O   UNK A   0       8.684  -1.905  26.533  0.00  0.00    -0.249 OA
BRANCH  21  23
ATOM     23  O   UNK A   0       7.533  -1.203  24.669  0.00  0.00    -0.464 OA
BRANCH  23  25
ATOM     24  C   UNK A   0       6.214   0.800  24.299  0.00  0.00    +0.048 C 
ATOM     25  C   UNK A   0       7.230   0.102  25.184  0.00  0.00    +0.229 C 
ENDBRANCH  23  25
ENDBRANCH  21  23
ENDBRANCH  20  21
BRANCH  20  26
ATOM     26  C   UNK A   0       9.079  -2.212  22.883  0.00  0.00    +0.035 C 
BRANCH  26  27
ATOM     27  C   UNK A   0      10.200  -1.395  22.234  0.00  0.00    +0.037 C 
BRANCH  27  28
ATOM     28  C   UNK A   0       9.960   0.077  22.492  0.00  0.00    -0.047 A 
ATOM     29  C   UNK A   0       9.079   0.813  21.686  0.00  0.00    +0.003 A 
ATOM     30  C   UNK A   0       8.798   2.150  21.978  0.00  0.00    +0.000 A 
ATOM     31  C   UNK A   0       9.391   2.764  23.080  0.00  0.00    +0.000 A 
ATOM     32  C   UNK A   0      10.266   2.041  23.890  0.00  0.00    +0.000 A 
ATOM     33  C   UNK A   0      10.549   0.706  23.598  0.00  0.00    +0.003 A 
ENDBRANCH  27  28
ENDBRANCH  26  27
ENDBRANCH  20  26
ENDBRANCH  18  20
ENDBRANCH   1  18
TORSDOF 11
ENDMDL
MODEL 9
REMARK VINA RESULT:      -6.3      2.576      3.457
REMARK  Name = 
REMARK  13 active torsions:
REMARK  status: ('A' for Active; 'I' for Inactive)
REMARK    1  A    between atoms: C_1  and  C_2
REMARK    2  A    between atoms: C_2  and  O_3
REMARK    3  A    between atoms: O_3  and  C_4
REMARK    4  A    between atoms: C_4  and  C_6
REMARK    5  A    between atoms: C_6  and  C_8
REMARK    6  A    between atoms: C_6  and  N_16
REMARK    7  A    between atoms: C_8  and  C_9
REMARK    8  A    between atoms: C_9  and  C_10
REMARK    9  A    between atoms: N_16  and  CA_17
REMARK   10  A    between atoms: CA_17  and  CB_19
REMARK   11  A    between atoms: CA_17  and  C_20
REMARK   12  A    between atoms: C_26  and  C_28
REMARK   13  A    between atoms: C_28  and  O_29
REMARK                            x       y       z     vdW  Elec       q    Type
REMARK                         _______ _______ _______ _____ _____    ______ ____
ROOT
ATOM      1  CA  ALA A   1       7.692  -2.237  22.762  0.00  0.00    +0.138 C 
ATOM      2  CB  ALA A   1       6.894  -3.146  21.825  0.00  0.00    +0.034 C 
ENDROOT
BRANCH   1   3
ATOM      3  C   ALA A   1       8.180  -3.020  24.022  0.00  0.00    +0.233 C 
ATOM      4  N   UNK A   2       7.285  -3.100  25.089  0.00  0.00    -0.285 N 
ATOM      5  C   UNK A   2       7.659  -3.586  26.431  0.00  0.00    +0.187 C 
ATOM      6  C   UNK A   2       6.330  -3.517  27.221  0.00  0.00    +0.064 C 
ATOM      7  C   UNK A   2       5.456  -2.467  26.529  0.00  0.00    +0.080 C 
ATOM      8  S   UNK A   2       5.254  -0.976  27.570  0.00  0.00    -0.141 S 
ATOM      9  C   UNK A   2       3.539  -0.631  27.114  0.00  0.00    +0.081 C 
ATOM     10  C   UNK A   2       2.804  -1.953  27.070  0.00  0.00    +0.081 C 
ATOM     11  S   UNK A   2       3.792  -3.145  26.131  0.00  0.00    -0.141 S 
ATOM     12  C   UNK A   2       6.189  -2.139  25.225  0.00  0.00    +0.137 C 
ATOM     13  O   ALA A   1       9.275  -3.579  24.092  0.00  0.00    -0.274 OA
BRANCH   5  14
ATOM     14  C   UNK A   2       8.252  -4.992  26.674  0.00  0.00    +0.326 C 
ATOM     15  O   UNK A   2       7.567  -5.940  27.047  0.00  0.00    -0.249 OA
BRANCH  14  16
ATOM     16  O   UNK A   2       9.586  -5.111  26.572  0.00  0.00    -0.479 OA
ATOM     17  H   UNK A   2       9.949  -5.885  27.068  0.00  0.00    +0.295 HD
ENDBRANCH  14  16
ENDBRANCH   5  14
ENDBRANCH   1   3
BRANCH   1  18
ATOM     18  N   ALA A   1       8.792  -1.564  22.043  0.00  0.00    -0.294 NA
ATOM     19  H   ALA A   1       9.683  -1.755  22.513  0.00  0.00    +0.123 HD
BRANCH  18  20
ATOM     20  C   UNK A   0       8.615  -0.086  21.918  0.00  0.00    +0.164 C 
BRANCH  20  21
ATOM     21  C   UNK A   0       9.939   0.592  22.328  0.00  0.00    +0.324 C 
ATOM     22  O   UNK A   0      10.335   1.658  21.876  0.00  0.00    -0.249 OA
BRANCH  21  23
ATOM     23  O   UNK A   0      10.598  -0.170  23.248  0.00  0.00    -0.464 OA
BRANCH  23  25
ATOM     24  C   UNK A   0       9.726  -0.130  25.512  0.00  0.00    +0.048 C 
ATOM     25  C   UNK A   0      10.765   0.412  24.550  0.00  0.00    +0.229 C 
ENDBRANCH  23  25
ENDBRANCH  21  23
ENDBRANCH  20  21
BRANCH  20  26
ATOM     26  C   UNK A   0       7.461   0.446  22.788  0.00  0.00    +0.035 C 
BRANCH  26  27
ATOM     27  C   UNK A   0       6.779   1.712  22.258  0.00  0.00    +0.037 C 
BRANCH  27  28
ATOM     28  C   UNK A   0       7.289   2.913  23.025  0.00  0.00    -0.047 A 
ATOM     29  C   UNK A   0       7.768   2.775  24.337  0.00  0.00    +0.003 A 
ATOM     30  C   UNK A   0       8.313   3.871  25.011  0.00  0.00    +0.000 A 
ATOM     31  C   UNK A   0       8.389   5.112  24.381  0.00  0.00    +0.000 A 
ATOM     32  C   UNK A   0       7.919   5.259  23.078  0.00  0.00    +0.000 A 
ATOM     33  C   UNK A   0       7.373   4.166  22.403  0.00  0.00    +0.003 A 
ENDBRANCH  27  28
ENDBRANCH  26  27
ENDBRANCH  20  26
ENDBRANCH  18  20
ENDBRANCH   1  18
TORSDOF 11
ENDMDL
