MODEL 1
REMARK VINA RESULT:      -6.6      0.000      0.000
REMARK  Name = 
REMARK  5 active torsions:
REMARK  status: ('A' for Active; 'I' for Inactive)
REMARK    1  A    between atoms: C_1  and  C_2
REMARK    2  A    between atoms: C_2  and  C_3
REMARK    3  A    between atoms: C_3  and  C_4
REMARK    4  A    between atoms: C_5  and  O_6
REMARK    5  A    between atoms: O_6  and  C_7
REMARK                            x       y       z     vdW  Elec       q    Type
REMARK                         _______ _______ _______ _____ _____    ______ ____
ROOT
ATOM      1  C   UNL     1       8.067  -3.779  24.663  0.00  0.00    +0.059 A 
ATOM      2  C   UNL     1       9.564  -3.790  24.513  0.00  0.00    +0.256 A 
ATOM      3  O   UNL     1      10.267  -4.717  24.908  0.00  0.00    -0.267 OA
ATOM      4  N   UNL     1      10.148  -2.741  23.881  0.00  0.00    -0.322 N 
ATOM      5  H   UNL     1      11.156  -2.787  23.814  0.00  0.00    +0.169 HD
ATOM      6  C   UNL     1       9.450  -1.654  23.376  0.00  0.00    +0.053 A 
ATOM      7  C   UNL     1       8.058  -1.595  23.523  0.00  0.00    +0.042 A 
ATOM      8  C   UNL     1       7.474  -0.392  23.109  0.00  0.00    +0.033 A 
ATOM      9  C   UNL     1       8.173   0.598  22.421  0.00  0.00    +0.042 A 
ATOM     10  C   UNL     1       9.538   0.474  22.228  0.00  0.00    +0.022 A 
ATOM     11 CL   UNL     1       7.321   1.941  21.771  0.00  0.00    -0.084 Cl
ATOM     12  C   UNL     1      10.188  -0.639  22.745  0.00  0.00    +0.028 A 
ATOM     13  C   UNL     1       7.334  -2.779  24.102  0.00  0.00    +0.138 A 
ENDROOT
BRANCH   1  14
ATOM     14  C   UNL     1       7.534  -5.001  25.397  0.00  0.00    +0.044 C 
BRANCH  14  16
ATOM     15  C   UNL     1       5.507  -4.958  26.985  0.00  0.00    +0.004 C 
ATOM     16  C   UNL     1       7.000  -4.724  26.822  0.00  0.00    +0.002 C 
ENDBRANCH  14  16
ENDBRANCH   1  14
BRANCH  13  17
ATOM     17  O   UNL     1       5.927  -2.855  24.101  0.00  0.00    -0.488 OA
BRANCH  17  18
ATOM     18  C   UNL     1       5.229  -3.254  22.895  0.00  0.00    +0.174 C 
ATOM     19  C   UNL     1       4.276  -4.426  23.226  0.00  0.00    +0.044 C 
ATOM     20  C   UNL     1       4.901  -5.810  23.224  0.00  0.00    +0.004 C 
ATOM     21  C   UNL     1       5.660  -6.065  21.938  0.00  0.00    +0.000 C 
ATOM     22  C   UNL     1       6.746  -5.010  21.762  0.00  0.00    +0.004 C 
ATOM     23  C   UNL     1       6.165  -3.600  21.725  0.00  0.00    +0.044 C 
ENDBRANCH  17  18
ENDBRANCH  13  17
TORSDOF 4
ENDMDL
MODEL 2
REMARK VINA RESULT:      -6.3      1.501      2.086
REMARK  Name = 
REMARK  5 active torsions:
REMARK  status: ('A' for Active; 'I' for Inactive)
REMARK    1  A    between atoms: C_1  and  C_2
REMARK    2  A    between atoms: C_2  and  C_3
REMARK    3  A    between atoms: C_3  and  C_4
REMARK    4  A    between atoms: C_5  and  O_6
REMARK    5  A    between atoms: O_6  and  C_7
REMARK                            x       y       z     vdW  Elec       q    Type
REMARK                         _______ _______ _______ _____ _____    ______ ____
ROOT
ATOM      1  C   UNL     1       8.786  -2.216  23.598  0.00  0.00    +0.059 A 
ATOM      2  C   UNL     1       9.968  -1.653  22.857  0.00  0.00    +0.256 A 
ATOM      3  O   UNL     1      11.023  -2.268  22.717  0.00  0.00    -0.267 OA
ATOM      4  N   UNL     1       9.841  -0.424  22.295  0.00  0.00    -0.322 N 
ATOM      5  H   UNL     1      10.665  -0.083  21.819  0.00  0.00    +0.169 HD
ATOM      6  C   UNL     1       8.691   0.348  22.372  0.00  0.00    +0.053 A 
ATOM      7  C   UNL     1       7.580  -0.131  23.079  0.00  0.00    +0.042 A 
ATOM      8  C   UNL     1       6.532   0.785  23.217  0.00  0.00    +0.033 A 
ATOM      9  C   UNL     1       6.492   2.006  22.545  0.00  0.00    +0.042 A 
ATOM     10  C   UNL     1       7.580   2.418  21.795  0.00  0.00    +0.022 A 
ATOM     11 CL   UNL     1       5.068   2.965  22.614  0.00  0.00    -0.084 Cl
ATOM     12  C   UNL     1       8.703   1.603  21.742  0.00  0.00    +0.028 A 
ATOM     13  C   UNL     1       7.609  -1.535  23.621  0.00  0.00    +0.138 A 
ENDROOT
BRANCH   1  14
ATOM     14  C   UNL     1       9.057  -3.591  24.191  0.00  0.00    +0.044 C 
BRANCH  14  16
ATOM     15  C   UNL     1       8.212  -4.974  26.193  0.00  0.00    +0.004 C 
ATOM     16  C   UNL     1       8.873  -3.687  25.724  0.00  0.00    +0.002 C 
ENDBRANCH  14  16
ENDBRANCH   1  14
BRANCH  13  17
ATOM     17  O   UNL     1       6.459  -2.135  24.171  0.00  0.00    -0.488 OA
BRANCH  17  18
ATOM     18  C   UNL     1       5.425  -2.646  23.294  0.00  0.00    +0.174 C 
ATOM     19  C   UNL     1       4.584  -3.695  24.059  0.00  0.00    +0.044 C 
ATOM     20  C   UNL     1       5.146  -5.106  24.084  0.00  0.00    +0.004 C 
ATOM     21  C   UNL     1       5.482  -5.584  22.687  0.00  0.00    +0.000 C 
ATOM     22  C   UNL     1       6.492  -4.640  22.046  0.00  0.00    +0.004 C 
ATOM     23  C   UNL     1       5.962  -3.212  21.969  0.00  0.00    +0.044 C 
ENDBRANCH  17  18
ENDBRANCH  13  17
TORSDOF 4
ENDMDL
MODEL 3
REMARK VINA RESULT:      -6.2      1.873      4.092
REMARK  Name = 
REMARK  5 active torsions:
REMARK  status: ('A' for Active; 'I' for Inactive)
REMARK    1  A    between atoms: C_1  and  C_2
REMARK    2  A    between atoms: C_2  and  C_3
REMARK    3  A    between atoms: C_3  and  C_4
REMARK    4  A    between atoms: C_5  and  O_6
REMARK    5  A    between atoms: O_6  and  C_7
REMARK                            x       y       z     vdW  Elec       q    Type
REMARK                         _______ _______ _______ _____ _____    ______ ____
ROOT
ATOM      1  C   UNL     1       7.095  -3.775  23.181  0.00  0.00    +0.059 A 
ATOM      2  C   UNL     1       6.057  -2.853  22.601  0.00  0.00    +0.256 A 
ATOM      3  O   UNL     1       4.972  -3.250  22.181  0.00  0.00    -0.267 OA
ATOM      4  N   UNL     1       6.328  -1.524  22.577  0.00  0.00    -0.322 N 
ATOM      5  H   UNL     1       5.607  -0.946  22.168  0.00  0.00    +0.169 HD
ATOM      6  C   UNL     1       7.508  -0.965  23.044  0.00  0.00    +0.053 A 
ATOM      7  C   UNL     1       8.511  -1.795  23.564  0.00  0.00    +0.042 A 
ATOM      8  C   UNL     1       9.712  -1.146  23.870  0.00  0.00    +0.033 A 
ATOM      9  C   UNL     1       9.855   0.240  23.854  0.00  0.00    +0.042 A 
ATOM     10  C   UNL     1       8.818   1.037  23.402  0.00  0.00    +0.022 A 
ATOM     11 CL   UNL     1      11.303   0.950  24.448  0.00  0.00    -0.084 Cl
ATOM     12  C   UNL     1       7.652   0.429  22.955  0.00  0.00    +0.028 A 
ATOM     13  C   UNL     1       8.227  -3.263  23.734  0.00  0.00    +0.138 A 
ENDROOT
BRANCH   1  14
ATOM     14  C   UNL     1       6.679  -5.238  23.141  0.00  0.00    +0.044 C 
BRANCH  14  16
ATOM     15  C   UNL     1       6.222  -6.023  20.730  0.00  0.00    +0.004 C 
ATOM     16  C   UNL     1       7.184  -6.026  21.908  0.00  0.00    +0.002 C 
ENDBRANCH  14  16
ENDBRANCH   1  14
BRANCH  13  17
ATOM     17  O   UNL     1       9.119  -4.110  24.422  0.00  0.00    -0.488 OA
BRANCH  17  18
ATOM     18  C   UNL     1       9.144  -4.104  25.871  0.00  0.00    +0.174 C 
ATOM     19  C   UNL     1       8.577  -5.445  26.393  0.00  0.00    +0.044 C 
ATOM     20  C   UNL     1       7.065  -5.528  26.502  0.00  0.00    +0.004 C 
ATOM     21  C   UNL     1       6.507  -4.355  27.281  0.00  0.00    +0.000 C 
ATOM     22  C   UNL     1       6.903  -3.050  26.602  0.00  0.00    +0.004 C 
ATOM     23  C   UNL     1       8.417  -2.902  26.497  0.00  0.00    +0.044 C 
ENDBRANCH  17  18
ENDBRANCH  13  17
TORSDOF 4
ENDMDL
MODEL 4
REMARK VINA RESULT:      -5.9      2.578      5.733
REMARK  Name = 
REMARK  5 active torsions:
REMARK  status: ('A' for Active; 'I' for Inactive)
REMARK    1  A    between atoms: C_1  and  C_2
REMARK    2  A    between atoms: C_2  and  C_3
REMARK    3  A    between atoms: C_3  and  C_4
REMARK    4  A    between atoms: C_5  and  O_6
REMARK    5  A    between atoms: O_6  and  C_7
REMARK                            x       y       z     vdW  Elec       q    Type
REMARK                         _______ _______ _______ _____ _____    ______ ____
ROOT
ATOM      1  C   UNL     1       8.512  -2.647  23.927  0.00  0.00    +0.059 A 
ATOM      2  C   UNL     1       8.928  -3.970  24.509  0.00  0.00    +0.256 A 
ATOM      3  O   UNL     1      10.098  -4.344  24.549  0.00  0.00    -0.267 OA
ATOM      4  N   UNL     1       7.963  -4.763  25.041  0.00  0.00    -0.322 N 
ATOM      5  H   UNL     1       8.288  -5.646  25.409  0.00  0.00    +0.169 HD
ATOM      6  C   UNL     1       6.616  -4.431  25.070  0.00  0.00    +0.053 A 
ATOM      7  C   UNL     1       6.188  -3.220  24.510  0.00  0.00    +0.042 A 
ATOM      8  C   UNL     1       4.799  -3.053  24.463  0.00  0.00    +0.033 A 
ATOM      9  C   UNL     1       3.905  -3.916  25.093  0.00  0.00    +0.042 A 
ATOM     10  C   UNL     1       4.369  -5.070  25.700  0.00  0.00    +0.022 A 
ATOM     11 CL   UNL     1       2.237  -3.511  25.156  0.00  0.00    -0.084 Cl
ATOM     12  C   UNL     1       5.729  -5.350  25.652  0.00  0.00    +0.028 A 
ATOM     13  C   UNL     1       7.217  -2.240  24.016  0.00  0.00    +0.138 A 
ENDROOT
BRANCH   1  14
ATOM     14  C   UNL     1       9.679  -1.857  23.353  0.00  0.00    +0.044 C 
BRANCH  14  16
ATOM     15  C   UNL     1       9.571   0.013  21.585  0.00  0.00    +0.004 C 
ATOM     16  C   UNL     1       9.541  -1.483  21.858  0.00  0.00    +0.002 C 
ENDBRANCH  14  16
ENDBRANCH   1  14
BRANCH  13  17
ATOM     17  O   UNL     1       6.861  -0.935  23.621  0.00  0.00    -0.488 OA
BRANCH  17  18
ATOM     18  C   UNL     1       6.590   0.073  24.626  0.00  0.00    +0.174 C 
ATOM     19  C   UNL     1       6.115   1.370  23.929  0.00  0.00    +0.044 C 
ATOM     20  C   UNL     1       7.213   2.289  23.422  0.00  0.00    +0.004 C 
ATOM     21  C   UNL     1       8.222   2.587  24.510  0.00  0.00    +0.000 C 
ATOM     22  C   UNL     1       8.835   1.288  25.018  0.00  0.00    +0.004 C 
ATOM     23  C   UNL     1       7.775   0.340  25.569  0.00  0.00    +0.044 C 
ENDBRANCH  17  18
ENDBRANCH  13  17
TORSDOF 4
ENDMDL
MODEL 5
REMARK VINA RESULT:      -5.9      3.219      5.966
REMARK  Name = 
REMARK  5 active torsions:
REMARK  status: ('A' for Active; 'I' for Inactive)
REMARK    1  A    between atoms: C_1  and  C_2
REMARK    2  A    between atoms: C_2  and  C_3
REMARK    3  A    between atoms: C_3  and  C_4
REMARK    4  A    between atoms: C_5  and  O_6
REMARK    5  A    between atoms: O_6  and  C_7
REMARK                            x       y       z     vdW  Elec       q    Type
REMARK                         _______ _______ _______ _____ _____    ______ ____
ROOT
ATOM      1  C   UNL     1       8.641  -3.493  24.842  0.00  0.00    +0.059 A 
ATOM      2  C   UNL     1       9.187  -4.785  25.387  0.00  0.00    +0.256 A 
ATOM      3  O   UNL     1      10.224  -5.299  24.973  0.00  0.00    -0.267 OA
ATOM      4  N   UNL     1       8.515  -5.382  26.403  0.00  0.00    -0.322 N 
ATOM      5  H   UNL     1       8.912  -6.252  26.728  0.00  0.00    +0.169 HD
ATOM      6  C   UNL     1       7.349  -4.878  26.962  0.00  0.00    +0.053 A 
ATOM      7  C   UNL     1       6.795  -3.693  26.461  0.00  0.00    +0.042 A 
ATOM      8  C   UNL     1       5.547  -3.355  26.996  0.00  0.00    +0.033 A 
ATOM      9  C   UNL     1       4.977  -4.020  28.081  0.00  0.00    +0.042 A 
ATOM     10  C   UNL     1       5.588  -5.148  28.600  0.00  0.00    +0.022 A 
ATOM     11 CL   UNL     1       3.544  -3.399  28.797  0.00  0.00    -0.084 Cl
ATOM     12  C   UNL     1       6.761  -5.604  28.010  0.00  0.00    +0.028 A 
ATOM     13  C   UNL     1       7.554  -2.916  25.420  0.00  0.00    +0.138 A 
ENDROOT
BRANCH   1  14
ATOM     14  C   UNL     1       9.476  -2.930  23.701  0.00  0.00    +0.044 C 
BRANCH  14  16
ATOM     15  C   UNL     1       9.396  -1.221  21.776  0.00  0.00    +0.004 C 
ATOM     16  C   UNL     1       8.660  -2.309  22.542  0.00  0.00    +0.002 C 
ENDBRANCH  14  16
ENDBRANCH   1  14
BRANCH  13  17
ATOM     17  O   UNL     1       7.143  -1.629  25.018  0.00  0.00    -0.488 OA
BRANCH  17  18
ATOM     18  C   UNL     1       7.474  -0.480  25.837  0.00  0.00    +0.174 C 
ATOM     19  C   UNL     1       7.025   0.808  25.107  0.00  0.00    +0.044 C 
ATOM     20  C   UNL     1       7.998   1.362  24.081  0.00  0.00    +0.004 C 
ATOM     21  C   UNL     1       9.384   1.519  24.672  0.00  0.00    +0.000 C 
ATOM     22  C   UNL     1       9.884   0.173  25.180  0.00  0.00    +0.004 C 
ATOM     23  C   UNL     1       8.956  -0.413  26.239  0.00  0.00    +0.044 C 
ENDBRANCH  17  18
ENDBRANCH  13  17
TORSDOF 4
ENDMDL
MODEL 6
REMARK VINA RESULT:      -5.8      3.006      4.592
REMARK  Name = 
REMARK  5 active torsions:
REMARK  status: ('A' for Active; 'I' for Inactive)
REMARK    1  A    between atoms: C_1  and  C_2
REMARK    2  A    between atoms: C_2  and  C_3
REMARK    3  A    between atoms: C_3  and  C_4
REMARK    4  A    between atoms: C_5  and  O_6
REMARK    5  A    between atoms: O_6  and  C_7
REMARK                            x       y       z     vdW  Elec       q    Type
REMARK                         _______ _______ _______ _____ _____    ______ ____
ROOT
ATOM      1  C   UNL     1       9.159  -0.965  24.054  0.00  0.00    +0.059 A 
ATOM      2  C   UNL     1       9.775  -0.058  25.084  0.00  0.00    +0.256 A 
ATOM      3  O   UNL     1      10.909   0.404  24.974  0.00  0.00    -0.267 OA
ATOM      4  N   UNL     1       9.025   0.284  26.162  0.00  0.00    -0.322 N 
ATOM      5  H   UNL     1       9.485   0.885  26.832  0.00  0.00    +0.169 HD
ATOM      6  C   UNL     1       7.729  -0.161  26.376  0.00  0.00    +0.053 A 
ATOM      7  C   UNL     1       7.132  -1.030  25.453  0.00  0.00    +0.042 A 
ATOM      8  C   UNL     1       5.884  -1.530  25.839  0.00  0.00    +0.033 A 
ATOM      9  C   UNL     1       5.184  -1.062  26.950  0.00  0.00    +0.042 A 
ATOM     10  C   UNL     1       5.775  -0.147  27.803  0.00  0.00    +0.022 A 
ATOM     11 CL   UNL     1       3.571  -1.587  27.219  0.00  0.00    -0.084 Cl
ATOM     12  C   UNL     1       7.072   0.276  27.538  0.00  0.00    +0.028 A 
ATOM     13  C   UNL     1       7.860  -1.351  24.176  0.00  0.00    +0.138 A 
ENDROOT
BRANCH   1  14
ATOM     14  C   UNL     1      10.102  -1.283  22.903  0.00  0.00    +0.044 C 
BRANCH  14  16
ATOM     15  C   UNL     1       9.540   0.916  21.686  0.00  0.00    +0.004 C 
ATOM     16  C   UNL     1       9.759  -0.584  21.566  0.00  0.00    +0.002 C 
ENDBRANCH  14  16
ENDBRANCH   1  14
BRANCH  13  17
ATOM     17  O   UNL     1       7.237  -2.062  23.132  0.00  0.00    -0.488 OA
BRANCH  17  18
ATOM     18  C   UNL     1       7.637  -3.426  22.850  0.00  0.00    +0.174 C 
ATOM     19  C   UNL     1       6.582  -4.085  21.931  0.00  0.00    +0.044 C 
ATOM     20  C   UNL     1       5.368  -4.672  22.631  0.00  0.00    +0.004 C 
ATOM     21  C   UNL     1       5.781  -5.604  23.751  0.00  0.00    +0.000 C 
ATOM     22  C   UNL     1       6.641  -4.852  24.759  0.00  0.00    +0.004 C 
ATOM     23  C   UNL     1       7.892  -4.268  24.111  0.00  0.00    +0.044 C 
ENDBRANCH  17  18
ENDBRANCH  13  17
TORSDOF 4
ENDMDL
MODEL 7
REMARK VINA RESULT:      -5.7      2.552      4.874
REMARK  Name = 
REMARK  5 active torsions:
REMARK  status: ('A' for Active; 'I' for Inactive)
REMARK    1  A    between atoms: C_1  and  C_2
REMARK    2  A    between atoms: C_2  and  C_3
REMARK    3  A    between atoms: C_3  and  C_4
REMARK    4  A    between atoms: C_5  and  O_6
REMARK    5  A    between atoms: O_6  and  C_7
REMARK                            x       y       z     vdW  Elec       q    Type
REMARK                         _______ _______ _______ _____ _____    ______ ____
ROOT
ATOM      1  C   UNL     1       7.266  -4.112  24.649  0.00  0.00    +0.059 A 
ATOM      2  C   UNL     1       6.699  -4.696  25.914  0.00  0.00    +0.256 A 
ATOM      3  O   UNL     1       6.867  -5.868  26.243  0.00  0.00    -0.267 OA
ATOM      4  N   UNL     1       5.999  -3.873  26.737  0.00  0.00    -0.322 N 
ATOM      5  H   UNL     1       5.628  -4.313  27.568  0.00  0.00    +0.169 HD
ATOM      6  C   UNL     1       5.767  -2.531  26.476  0.00  0.00    +0.053 A 
ATOM      7  C   UNL     1       6.255  -1.960  25.294  0.00  0.00    +0.042 A 
ATOM      8  C   UNL     1       5.841  -0.643  25.063  0.00  0.00    +0.033 A 
ATOM      9  C   UNL     1       5.164   0.122  26.011  0.00  0.00    +0.042 A 
ATOM     10  C   UNL     1       4.759  -0.455  27.202  0.00  0.00    +0.022 A 
ATOM     11 CL   UNL     1       4.886   1.791  25.714  0.00  0.00    -0.084 Cl
ATOM     12  C   UNL     1       5.026  -1.801  27.419  0.00  0.00    +0.028 A 
ATOM     13  C   UNL     1       7.143  -2.780  24.398  0.00  0.00    +0.138 A 
ENDROOT
BRANCH   1  14
ATOM     14  C   UNL     1       8.017  -5.134  23.808  0.00  0.00    +0.044 C 
BRANCH  14  16
ATOM     15  C   UNL     1       6.006  -6.101  22.522  0.00  0.00    +0.004 C 
ATOM     16  C   UNL     1       7.375  -5.446  22.435  0.00  0.00    +0.002 C 
ENDBRANCH  14  16
ENDBRANCH   1  14
BRANCH  13  17
ATOM     17  O   UNL     1       7.814  -2.207  23.300  0.00  0.00    -0.488 OA
BRANCH  17  18
ATOM     18  C   UNL     1       9.241  -1.965  23.376  0.00  0.00    +0.174 C 
ATOM     19  C   UNL     1       9.529  -0.994  24.545  0.00  0.00    +0.044 C 
ATOM     20  C   UNL     1       9.378   0.484  24.233  0.00  0.00    +0.004 C 
ATOM     21  C   UNL     1      10.165   0.864  22.996  0.00  0.00    +0.000 C 
ATOM     22  C   UNL     1       9.692   0.037  21.807  0.00  0.00    +0.004 C 
ATOM     23  C   UNL     1       9.852  -1.459  22.059  0.00  0.00    +0.044 C 
ENDBRANCH  17  18
ENDBRANCH  13  17
TORSDOF 4
ENDMDL
MODEL 8
REMARK VINA RESULT:      -5.7      2.694      4.419
REMARK  Name = 
REMARK  5 active torsions:
REMARK  status: ('A' for Active; 'I' for Inactive)
REMARK    1  A    between atoms: C_1  and  C_2
REMARK    2  A    between atoms: C_2  and  C_3
REMARK    3  A    between atoms: C_3  and  C_4
REMARK    4  A    between atoms: C_5  and  O_6
REMARK    5  A    between atoms: O_6  and  C_7
REMARK                            x       y       z     vdW  Elec       q    Type
REMARK                         _______ _______ _______ _____ _____    ______ ____
ROOT
ATOM      1  C   UNL     1       8.055  -2.577  24.516  0.00  0.00    +0.059 A 
ATOM      2  C   UNL     1       8.105  -2.964  23.063  0.00  0.00    +0.256 A 
ATOM      3  O   UNL     1       7.722  -4.056  22.649  0.00  0.00    -0.267 OA
ATOM      4  N   UNL     1       8.564  -2.046  22.175  0.00  0.00    -0.322 N 
ATOM      5  H   UNL     1       8.590  -2.354  21.213  0.00  0.00    +0.169 HD
ATOM      6  C   UNL     1       8.999  -0.777  22.528  0.00  0.00    +0.053 A 
ATOM      7  C   UNL     1       8.995  -0.392  23.876  0.00  0.00    +0.042 A 
ATOM      8  C   UNL     1       9.589   0.848  24.134  0.00  0.00    +0.033 A 
ATOM      9  C   UNL     1       9.979   1.732  23.130  0.00  0.00    +0.042 A 
ATOM     10  C   UNL     1       9.902   1.347  21.803  0.00  0.00    +0.022 A 
ATOM     11 CL   UNL     1      10.502   3.314  23.548  0.00  0.00    -0.084 Cl
ATOM     12  C   UNL     1       9.448   0.069  21.501  0.00  0.00    +0.028 A 
ATOM     13  C   UNL     1       8.385  -1.314  24.897  0.00  0.00    +0.138 A 
ENDROOT
BRANCH   1  14
ATOM     14  C   UNL     1       7.535  -3.694  25.410  0.00  0.00    +0.044 C 
BRANCH  14  16
ATOM     15  C   UNL     1       9.714  -5.062  25.533  0.00  0.00    +0.004 C 
ATOM     16  C   UNL     1       8.604  -4.365  26.304  0.00  0.00    +0.002 C 
ENDBRANCH  14  16
ENDBRANCH   1  14
BRANCH  13  17
ATOM     17  O   UNL     1       8.181  -0.905  26.229  0.00  0.00    -0.488 OA
BRANCH  17  18
ATOM     18  C   UNL     1       6.841  -0.605  26.693  0.00  0.00    +0.174 C 
ATOM     19  C   UNL     1       5.984  -0.131  25.495  0.00  0.00    +0.044 C 
ATOM     20  C   UNL     1       6.101   1.341  25.139  0.00  0.00    +0.004 C 
ATOM     21  C   UNL     1       5.880   2.216  26.355  0.00  0.00    +0.000 C 
ATOM     22  C   UNL     1       6.896   1.867  27.435  0.00  0.00    +0.004 C 
ATOM     23  C   UNL     1       6.798   0.403  27.852  0.00  0.00    +0.044 C 
ENDBRANCH  17  18
ENDBRANCH  13  17
TORSDOF 4
ENDMDL
MODEL 9
REMARK VINA RESULT:      -5.7      1.931      2.535
REMARK  Name = 
REMARK  5 active torsions:
REMARK  status: ('A' for Active; 'I' for Inactive)
REMARK    1  A    between atoms: C_1  and  C_2
REMARK    2  A    between atoms: C_2  and  C_3
REMARK    3  A    between atoms: C_3  and  C_4
REMARK    4  A    between atoms: C_5  and  O_6
REMARK    5  A    between atoms: O_6  and  C_7
REMARK                            x       y       z     vdW  Elec       q    Type
REMARK                         _______ _______ _______ _____ _____    ______ ____
ROOT
ATOM      1  C   UNL     1       8.694  -2.344  25.144  0.00  0.00    +0.059 A 
ATOM      2  C   UNL     1       9.720  -2.763  24.128  0.00  0.00    +0.256 A 
ATOM      3  O   UNL     1      10.374  -3.799  24.226  0.00  0.00    -0.267 OA
ATOM      4  N   UNL     1       9.900  -1.971  23.040  0.00  0.00    -0.322 N 
ATOM      5  H   UNL     1      10.607  -2.287  22.391  0.00  0.00    +0.169 HD
ATOM      6  C   UNL     1       9.202  -0.793  22.816  0.00  0.00    +0.053 A 
ATOM      7  C   UNL     1       8.259  -0.356  23.756  0.00  0.00    +0.042 A 
ATOM      8  C   UNL     1       7.722   0.912  23.504  0.00  0.00    +0.033 A 
ATOM      9  C   UNL     1       7.943   1.612  22.320  0.00  0.00    +0.042 A 
ATOM     10  C   UNL     1       8.827   1.116  21.377  0.00  0.00    +0.022 A 
ATOM     11 CL   UNL     1       7.072   3.062  22.017  0.00  0.00    -0.084 Cl
ATOM     12  C   UNL     1       9.492  -0.074  21.645  0.00  0.00    +0.028 A 
ATOM     13  C   UNL     1       7.922  -1.246  24.921  0.00  0.00    +0.138 A 
ENDROOT
BRANCH   1  14
ATOM     14  C   UNL     1       8.596  -3.305  26.320  0.00  0.00    +0.044 C 
BRANCH  14  16
ATOM     15  C   UNL     1       7.235  -5.297  27.223  0.00  0.00    +0.004 C 
ATOM     16  C   UNL     1       7.878  -4.641  26.011  0.00  0.00    +0.002 C 
ENDBRANCH  14  16
ENDBRANCH   1  14
BRANCH  13  17
ATOM     17  O   UNL     1       6.854  -0.949  25.790  0.00  0.00    -0.488 OA
BRANCH  17  18
ATOM     18  C   UNL     1       5.490  -1.034  25.308  0.00  0.00    +0.174 C 
ATOM     19  C   UNL     1       4.538  -1.231  26.511  0.00  0.00    +0.044 C 
ATOM     20  C   UNL     1       4.369  -2.661  26.996  0.00  0.00    +0.004 C 
ATOM     21  C   UNL     1       4.008  -3.586  25.852  0.00  0.00    +0.000 C 
ATOM     22  C   UNL     1       5.091  -3.531  24.782  0.00  0.00    +0.004 C 
ATOM     23  C   UNL     1       5.278  -2.118  24.238  0.00  0.00    +0.044 C 
ENDBRANCH  17  18
ENDBRANCH  13  17
TORSDOF 4
ENDMDL
