MODEL 1
REMARK VINA RESULT:      -7.3      0.000      0.000
REMARK  Name = 
REMARK  7 active torsions:
REMARK  status: ('A' for Active; 'I' for Inactive)
REMARK    1  A    between atoms: C_1  and  C_2
REMARK    2  A    between atoms: C_2  and  C_3
REMARK    3  A    between atoms: C_2  and  C_4
REMARK    4  A    between atoms: C_4  and  O_5
REMARK    5  A    between atoms: O_5  and  C_6
REMARK    6  A    between atoms: C_9  and  C_13
REMARK    7  A    between atoms: C_17  and  C_22
REMARK                            x       y       z     vdW  Elec       q    Type
REMARK                         _______ _______ _______ _____ _____    ______ ____
ROOT
ATOM      1  C   UNL     1       8.529  -2.010  24.142  0.00  0.00    +0.139 A 
ATOM      2  N   UNL     1       9.167  -2.612  25.208  0.00  0.00    -0.338 N 
ATOM      3  H   UNL     1      10.058  -2.251  25.544  0.00  0.00    +0.167 HD
ATOM      4  C   UNL     1       8.389  -3.651  25.654  0.00  0.00    +0.067 A 
ATOM      5  C   UNL     1       7.300  -3.633  24.799  0.00  0.00    +0.090 A 
ATOM      6  C   UNL     1       6.274  -4.574  24.952  0.00  0.00    +0.045 A 
ATOM      7  C   UNL     1       6.347  -5.522  25.985  0.00  0.00    +0.063 A 
ATOM      8  C   UNL     1       7.470  -5.506  26.839  0.00  0.00    +0.018 A 
ATOM      9  C   UNL     1       8.519  -4.577  26.689  0.00  0.00    +0.028 A 
ATOM     10  N   UNL     1       7.389  -2.637  23.880  0.00  0.00    -0.228 NA
ENDROOT
BRANCH   1  15
ATOM     11  C   UNL     1      10.177   1.317  23.260  0.00  0.00    +0.114 A 
ATOM     12  C   UNL     1       9.901   1.311  21.873  0.00  0.00    +0.045 A 
ATOM     13  C   UNL     1       9.229   0.267  21.270  0.00  0.00    +0.004 A 
ATOM     14  C   UNL     1       8.817  -0.792  22.052  0.00  0.00    +0.011 A 
ATOM     15  C   UNL     1       9.067  -0.823  23.442  0.00  0.00    +0.013 A 
ATOM     16  C   UNL     1       9.774   0.236  24.120  0.00  0.00    -0.054 A 
ATOM     17  O   UNL     1      10.014   0.206  25.386  0.00  0.00    -0.871 OA
BRANCH  11  18
ATOM     18  O   UNL     1      10.858   2.387  23.847  0.00  0.00    -0.492 OA
BRANCH  18  19
ATOM     19  C   UNL     1      11.015   3.546  23.030  0.00  0.00    +0.232 C 
BRANCH  19  21
ATOM     20  C   UNL     1      12.951   5.117  23.121  0.00  0.00    +0.010 C 
ATOM     21  C   UNL     1      11.627   4.730  23.789  0.00  0.00    +0.020 C 
ATOM     22  C   UNL     1      10.679   5.926  23.817  0.00  0.00    +0.010 C 
ENDBRANCH  19  21
ENDBRANCH  18  19
ENDBRANCH  11  18
ENDBRANCH   1  15
BRANCH   7  23
ATOM     23  C   UNL     1       5.255  -6.502  26.147  0.00  0.00    +0.266 C 
ATOM     24  N   UNL     1       5.111  -7.151  27.282  0.00  0.00    -0.288 N 
ATOM     25  H   UNL     1       4.381  -7.833  27.429  0.00  0.00    +0.301 HD
ATOM     26  H   UNL     1       5.768  -6.998  28.040  0.00  0.00    +0.301 HD
ATOM     27  N   UNL     1       4.432  -6.741  25.147  0.00  0.00    -0.250 N 
ATOM     28  H   UNL     1       3.694  -7.429  25.197  0.00  0.00    +0.288 HD
ATOM     29  H   UNL     1       4.521  -6.223  24.278  0.00  0.00    +0.288 HD
ENDBRANCH   7  23
TORSDOF 5
ENDMDL
MODEL 2
REMARK VINA RESULT:      -7.3      3.677      9.056
REMARK  Name = 
REMARK  7 active torsions:
REMARK  status: ('A' for Active; 'I' for Inactive)
REMARK    1  A    between atoms: C_1  and  C_2
REMARK    2  A    between atoms: C_2  and  C_3
REMARK    3  A    between atoms: C_2  and  C_4
REMARK    4  A    between atoms: C_4  and  O_5
REMARK    5  A    between atoms: O_5  and  C_6
REMARK    6  A    between atoms: C_9  and  C_13
REMARK    7  A    between atoms: C_17  and  C_22
REMARK                            x       y       z     vdW  Elec       q    Type
REMARK                         _______ _______ _______ _____ _____    ______ ____
ROOT
ATOM      1  C   UNL     1       9.207   0.421  23.792  0.00  0.00    +0.139 A 
ATOM      2  N   UNL     1       8.396   1.472  24.172  0.00  0.00    -0.338 N 
ATOM      3  H   UNL     1       7.446   1.297  24.496  0.00  0.00    +0.167 HD
ATOM      4  C   UNL     1       9.106   2.639  24.049  0.00  0.00    +0.067 A 
ATOM      5  C   UNL     1      10.338   2.224  23.572  0.00  0.00    +0.090 A 
ATOM      6  C   UNL     1      11.344   3.163  23.318  0.00  0.00    +0.045 A 
ATOM      7  C   UNL     1      11.106   4.524  23.566  0.00  0.00    +0.063 A 
ATOM      8  C   UNL     1       9.840   4.910  24.057  0.00  0.00    +0.018 A 
ATOM      9  C   UNL     1       8.811   3.979  24.302  0.00  0.00    +0.028 A 
ATOM     10  N   UNL     1      10.396   0.875  23.414  0.00  0.00    -0.228 NA
ENDROOT
BRANCH   1  15
ATOM     11  C   UNL     1       7.198  -2.824  23.750  0.00  0.00    +0.114 A 
ATOM     12  C   UNL     1       8.252  -3.711  24.068  0.00  0.00    +0.045 A 
ATOM     13  C   UNL     1       9.544  -3.265  24.266  0.00  0.00    +0.004 A 
ATOM     14  C   UNL     1       9.800  -1.914  24.152  0.00  0.00    +0.011 A 
ATOM     15  C   UNL     1       8.776  -0.993  23.842  0.00  0.00    +0.013 A 
ATOM     16  C   UNL     1       7.413  -1.407  23.614  0.00  0.00    -0.054 A 
ATOM     17  O   UNL     1       6.476  -0.570  23.319  0.00  0.00    -0.871 OA
BRANCH  11  18
ATOM     18  O   UNL     1       5.899  -3.299  23.555  0.00  0.00    -0.492 OA
BRANCH  18  19
ATOM     19  C   UNL     1       5.627  -3.850  22.267  0.00  0.00    +0.232 C 
BRANCH  19  21
ATOM     20  C   UNL     1       6.719  -6.020  21.698  0.00  0.00    +0.010 C 
ATOM     21  C   UNL     1       5.462  -5.375  22.295  0.00  0.00    +0.020 C 
ATOM     22  C   UNL     1       5.229  -5.886  23.715  0.00  0.00    +0.010 C 
ENDBRANCH  19  21
ENDBRANCH  18  19
ENDBRANCH  11  18
ENDBRANCH   1  15
BRANCH   7  23
ATOM     23  C   UNL     1      12.177   5.506  23.308  0.00  0.00    +0.266 C 
ATOM     24  N   UNL     1      12.766   5.550  22.133  0.00  0.00    -0.288 N 
ATOM     25  H   UNL     1      13.507   6.202  21.920  0.00  0.00    +0.301 HD
ATOM     26  H   UNL     1      12.502   4.889  21.410  0.00  0.00    +0.301 HD
ATOM     27  N   UNL     1      12.559   6.330  24.263  0.00  0.00    -0.250 N 
ATOM     28  H   UNL     1      13.313   6.992  24.147  0.00  0.00    +0.288 HD
ATOM     29  H   UNL     1      12.089   6.319  25.163  0.00  0.00    +0.288 HD
ENDBRANCH   7  23
TORSDOF 5
ENDMDL
MODEL 3
REMARK VINA RESULT:      -7.0      0.880      1.171
REMARK  Name = 
REMARK  7 active torsions:
REMARK  status: ('A' for Active; 'I' for Inactive)
REMARK    1  A    between atoms: C_1  and  C_2
REMARK    2  A    between atoms: C_2  and  C_3
REMARK    3  A    between atoms: C_2  and  C_4
REMARK    4  A    between atoms: C_4  and  O_5
REMARK    5  A    between atoms: O_5  and  C_6
REMARK    6  A    between atoms: C_9  and  C_13
REMARK    7  A    between atoms: C_17  and  C_22
REMARK                            x       y       z     vdW  Elec       q    Type
REMARK                         _______ _______ _______ _____ _____    ______ ____
ROOT
ATOM      1  C   UNL     1       8.128  -1.949  23.987  0.00  0.00    +0.139 A 
ATOM      2  N   UNL     1       8.548  -2.502  25.180  0.00  0.00    -0.338 N 
ATOM      3  H   UNL     1       9.311  -2.077  25.703  0.00  0.00    +0.167 HD
ATOM      4  C   UNL     1       7.766  -3.596  25.455  0.00  0.00    +0.067 A 
ATOM      5  C   UNL     1       6.901  -3.658  24.375  0.00  0.00    +0.090 A 
ATOM      6  C   UNL     1       5.938  -4.672  24.307  0.00  0.00    +0.045 A 
ATOM      7  C   UNL     1       5.841  -5.612  25.346  0.00  0.00    +0.063 A 
ATOM      8  C   UNL     1       6.736  -5.513  26.432  0.00  0.00    +0.018 A 
ATOM      9  C   UNL     1       7.722  -4.509  26.508  0.00  0.00    +0.028 A 
ATOM     10  N   UNL     1       7.125  -2.658  23.483  0.00  0.00    -0.228 NA
ENDROOT
BRANCH   1  15
ATOM     11  C   UNL     1       9.605   1.526  23.432  0.00  0.00    +0.114 A 
ATOM     12  C   UNL     1       9.767   1.449  22.029  0.00  0.00    +0.045 A 
ATOM     13  C   UNL     1       9.424   0.315  21.319  0.00  0.00    +0.004 A 
ATOM     14  C   UNL     1       8.908  -0.764  22.007  0.00  0.00    +0.011 A 
ATOM     15  C   UNL     1       8.725  -0.726  23.407  0.00  0.00    +0.013 A 
ATOM     16  C   UNL     1       9.076   0.428  24.198  0.00  0.00    -0.054 A 
ATOM     17  O   UNL     1       8.922   0.462  25.478  0.00  0.00    -0.871 OA
BRANCH  11  18
ATOM     18  O   UNL     1       9.958   2.685  24.128  0.00  0.00    -0.492 OA
BRANCH  18  19
ATOM     19  C   UNL     1       9.190   3.849  23.824  0.00  0.00    +0.232 C 
BRANCH  19  21
ATOM     20  C   UNL     1      11.398   4.983  23.576  0.00  0.00    +0.010 C 
ATOM     21  C   UNL     1       9.960   5.151  24.078  0.00  0.00    +0.020 C 
ATOM     22  C   UNL     1       9.294   6.338  23.388  0.00  0.00    +0.010 C 
ENDBRANCH  19  21
ENDBRANCH  18  19
ENDBRANCH  11  18
ENDBRANCH   1  15
BRANCH   7  23
ATOM     23  C   UNL     1       4.813  -6.669  25.272  0.00  0.00    +0.266 C 
ATOM     24  N   UNL     1       4.391  -7.101  24.104  0.00  0.00    -0.288 N 
ATOM     25  H   UNL     1       3.685  -7.818  24.012  0.00  0.00    +0.301 HD
ATOM     26  H   UNL     1       4.753  -6.689  23.251  0.00  0.00    +0.301 HD
ATOM     27  N   UNL     1       4.302  -7.168  26.379  0.00  0.00    -0.250 N 
ATOM     28  H   UNL     1       3.571  -7.865  26.379  0.00  0.00    +0.288 HD
ATOM     29  H   UNL     1       4.644  -6.857  27.283  0.00  0.00    +0.288 HD
ENDBRANCH   7  23
TORSDOF 5
ENDMDL
MODEL 4
REMARK VINA RESULT:      -7.0      3.333      8.995
REMARK  Name = 
REMARK  7 active torsions:
REMARK  status: ('A' for Active; 'I' for Inactive)
REMARK    1  A    between atoms: C_1  and  C_2
REMARK    2  A    between atoms: C_2  and  C_3
REMARK    3  A    between atoms: C_2  and  C_4
REMARK    4  A    between atoms: C_4  and  O_5
REMARK    5  A    between atoms: O_5  and  C_6
REMARK    6  A    between atoms: C_9  and  C_13
REMARK    7  A    between atoms: C_17  and  C_22
REMARK                            x       y       z     vdW  Elec       q    Type
REMARK                         _______ _______ _______ _____ _____    ______ ____
ROOT
ATOM      1  C   UNL     1       9.226   0.363  24.132  0.00  0.00    +0.139 A 
ATOM      2  N   UNL     1       8.448   1.440  24.510  0.00  0.00    -0.338 N 
ATOM      3  H   UNL     1       7.519   1.291  24.899  0.00  0.00    +0.167 HD
ATOM      4  C   UNL     1       9.160   2.593  24.290  0.00  0.00    +0.067 A 
ATOM      5  C   UNL     1      10.356   2.141  23.758  0.00  0.00    +0.090 A 
ATOM      6  C   UNL     1      11.353   3.057  23.399  0.00  0.00    +0.045 A 
ATOM      7  C   UNL     1      11.142   4.430  23.598  0.00  0.00    +0.063 A 
ATOM      8  C   UNL     1       9.912   4.852  24.146  0.00  0.00    +0.018 A 
ATOM      9  C   UNL     1       8.892   3.946  24.497  0.00  0.00    +0.028 A 
ATOM     10  N   UNL     1      10.392   0.786  23.660  0.00  0.00    -0.228 NA
ENDROOT
BRANCH   1  15
ATOM     11  C   UNL     1       8.220  -3.067  25.466  0.00  0.00    +0.114 A 
ATOM     12  C   UNL     1       8.017  -3.710  24.223  0.00  0.00    +0.045 A 
ATOM     13  C   UNL     1       8.186  -3.045  23.025  0.00  0.00    +0.004 A 
ATOM     14  C   UNL     1       8.567  -1.719  23.054  0.00  0.00    +0.011 A 
ATOM     15  C   UNL     1       8.786  -1.041  24.273  0.00  0.00    +0.013 A 
ATOM     16  C   UNL     1       8.613  -1.686  25.552  0.00  0.00    -0.054 A 
ATOM     17  O   UNL     1       8.800  -1.067  26.669  0.00  0.00    -0.871 OA
BRANCH  11  18
ATOM     18  O   UNL     1       8.044  -3.762  26.665  0.00  0.00    -0.492 OA
BRANCH  18  19
ATOM     19  C   UNL     1       7.894  -5.177  26.546  0.00  0.00    +0.232 C 
BRANCH  19  21
ATOM     20  C   UNL     1       5.923  -4.579  27.954  0.00  0.00    +0.010 C 
ATOM     21  C   UNL     1       6.553  -5.681  27.094  0.00  0.00    +0.020 C 
ATOM     22  C   UNL     1       5.603  -6.080  25.967  0.00  0.00    +0.010 C 
ENDBRANCH  19  21
ENDBRANCH  18  19
ENDBRANCH  11  18
ENDBRANCH   1  15
BRANCH   7  23
ATOM     23  C   UNL     1      12.203   5.387  23.229  0.00  0.00    +0.266 C 
ATOM     24  N   UNL     1      12.627   6.274  24.102  0.00  0.00    -0.288 N 
ATOM     25  H   UNL     1      13.347   6.949  23.886  0.00  0.00    +0.301 HD
ATOM     26  H   UNL     1      12.205   6.320  25.024  0.00  0.00    +0.301 HD
ATOM     27  N   UNL     1      12.716   5.366  22.015  0.00  0.00    -0.250 N 
ATOM     28  H   UNL     1      13.416   6.024  21.705  0.00  0.00    +0.288 HD
ATOM     29  H   UNL     1      12.412   4.666  21.346  0.00  0.00    +0.288 HD
ENDBRANCH   7  23
TORSDOF 5
ENDMDL
MODEL 5
REMARK VINA RESULT:      -6.9      3.693      9.323
REMARK  Name = 
REMARK  7 active torsions:
REMARK  status: ('A' for Active; 'I' for Inactive)
REMARK    1  A    between atoms: C_1  and  C_2
REMARK    2  A    between atoms: C_2  and  C_3
REMARK    3  A    between atoms: C_2  and  C_4
REMARK    4  A    between atoms: C_4  and  O_5
REMARK    5  A    between atoms: O_5  and  C_6
REMARK    6  A    between atoms: C_9  and  C_13
REMARK    7  A    between atoms: C_17  and  C_22
REMARK                            x       y       z     vdW  Elec       q    Type
REMARK                         _______ _______ _______ _____ _____    ______ ____
ROOT
ATOM      1  C   UNL     1       7.452  -2.221  23.475  0.00  0.00    +0.139 A 
ATOM      2  N   UNL     1       8.138  -2.003  22.296  0.00  0.00    -0.338 N 
ATOM      3  H   UNL     1       8.143  -2.712  21.566  0.00  0.00    +0.167 HD
ATOM      4  C   UNL     1       8.703  -0.753  22.344  0.00  0.00    +0.067 A 
ATOM      5  C   UNL     1       8.333  -0.274  23.590  0.00  0.00    +0.090 A 
ATOM      6  C   UNL     1       8.741   1.001  23.999  0.00  0.00    +0.045 A 
ATOM      7  C   UNL     1       9.508   1.798  23.135  0.00  0.00    +0.063 A 
ATOM      8  C   UNL     1       9.862   1.278  21.872  0.00  0.00    +0.018 A 
ATOM      9  C   UNL     1       9.474  -0.010  21.451  0.00  0.00    +0.028 A 
ATOM     10  N   UNL     1       7.575  -1.170  24.276  0.00  0.00    -0.228 NA
ENDROOT
BRANCH   1  15
ATOM     11  C   UNL     1       4.983  -5.128  23.355  0.00  0.00    +0.114 A 
ATOM     12  C   UNL     1       5.373  -5.767  24.555  0.00  0.00    +0.045 A 
ATOM     13  C   UNL     1       6.397  -5.276  25.340  0.00  0.00    +0.004 A 
ATOM     14  C   UNL     1       7.046  -4.127  24.935  0.00  0.00    +0.011 A 
ATOM     15  C   UNL     1       6.684  -3.455  23.747  0.00  0.00    +0.013 A 
ATOM     16  C   UNL     1       5.630  -3.932  22.886  0.00  0.00    -0.054 A 
ATOM     17  O   UNL     1       5.303  -3.327  21.794  0.00  0.00    -0.871 OA
BRANCH  11  18
ATOM     18  O   UNL     1       3.942  -5.644  22.578  0.00  0.00    -0.492 OA
BRANCH  18  19
ATOM     19  C   UNL     1       2.660  -5.678  23.203  0.00  0.00    +0.232 C 
BRANCH  19  21
ATOM     20  C   UNL     1       1.417  -7.212  24.729  0.00  0.00    +0.010 C 
ATOM     21  C   UNL     1       2.118  -7.104  23.370  0.00  0.00    +0.020 C 
ATOM     22  C   UNL     1       1.153  -7.471  22.246  0.00  0.00    +0.010 C 
ENDBRANCH  19  21
ENDBRANCH  18  19
ENDBRANCH  11  18
ENDBRANCH   1  15
BRANCH   7  23
ATOM     23  C   UNL     1       9.921   3.147  23.570  0.00  0.00    +0.266 C 
ATOM     24  N   UNL     1       9.162   3.839  24.390  0.00  0.00    -0.288 N 
ATOM     25  H   UNL     1       9.407   4.767  24.706  0.00  0.00    +0.301 HD
ATOM     26  H   UNL     1       8.276   3.457  24.705  0.00  0.00    +0.301 HD
ATOM     27  N   UNL     1      11.045   3.668  23.121  0.00  0.00    -0.250 N 
ATOM     28  H   UNL     1      11.350   4.600  23.359  0.00  0.00    +0.288 HD
ATOM     29  H   UNL     1      11.648   3.127  22.509  0.00  0.00    +0.288 HD
ENDBRANCH   7  23
TORSDOF 5
ENDMDL
MODEL 6
REMARK VINA RESULT:      -6.8      3.605      8.553
REMARK  Name = 
REMARK  7 active torsions:
REMARK  status: ('A' for Active; 'I' for Inactive)
REMARK    1  A    between atoms: C_1  and  C_2
REMARK    2  A    between atoms: C_2  and  C_3
REMARK    3  A    between atoms: C_2  and  C_4
REMARK    4  A    between atoms: C_4  and  O_5
REMARK    5  A    between atoms: O_5  and  C_6
REMARK    6  A    between atoms: C_9  and  C_13
REMARK    7  A    between atoms: C_17  and  C_22
REMARK                            x       y       z     vdW  Elec       q    Type
REMARK                         _______ _______ _______ _____ _____    ______ ____
ROOT
ATOM      1  C   UNL     1       9.037  -0.097  24.807  0.00  0.00    +0.139 A 
ATOM      2  N   UNL     1      10.131   0.340  24.087  0.00  0.00    -0.338 N 
ATOM      3  H   UNL     1      10.790  -0.331  23.695  0.00  0.00    +0.167 HD
ATOM      4  C   UNL     1      10.090   1.710  24.017  0.00  0.00    +0.067 A 
ATOM      5  C   UNL     1       8.952   2.040  24.734  0.00  0.00    +0.090 A 
ATOM      6  C   UNL     1       8.583   3.382  24.882  0.00  0.00    +0.045 A 
ATOM      7  C   UNL     1       9.359   4.389  24.287  0.00  0.00    +0.063 A 
ATOM      8  C   UNL     1      10.509   4.014  23.561  0.00  0.00    +0.018 A 
ATOM      9  C   UNL     1      10.905   2.669  23.415  0.00  0.00    +0.028 A 
ATOM     10  N   UNL     1       8.316   0.940  25.216  0.00  0.00    -0.228 NA
ENDROOT
BRANCH   1  15
ATOM     11  C   UNL     1       8.502  -3.858  24.447  0.00  0.00    +0.114 A 
ATOM     12  C   UNL     1       8.049  -4.119  25.761  0.00  0.00    +0.045 A 
ATOM     13  C   UNL     1       7.945  -3.118  26.706  0.00  0.00    +0.004 A 
ATOM     14  C   UNL     1       8.292  -1.832  26.346  0.00  0.00    +0.011 A 
ATOM     15  C   UNL     1       8.743  -1.527  25.043  0.00  0.00    +0.013 A 
ATOM     16  C   UNL     1       8.880  -2.536  24.022  0.00  0.00    -0.054 A 
ATOM     17  O   UNL     1       9.302  -2.264  22.834  0.00  0.00    -0.871 OA
BRANCH  11  18
ATOM     18  O   UNL     1       8.597  -4.888  23.508  0.00  0.00    -0.492 OA
BRANCH  18  19
ATOM     19  C   UNL     1       7.358  -5.440  23.064  0.00  0.00    +0.232 C 
BRANCH  19  21
ATOM     20  C   UNL     1       6.172  -5.779  20.896  0.00  0.00    +0.010 C 
ATOM     21  C   UNL     1       6.804  -4.733  21.821  0.00  0.00    +0.020 C 
ATOM     22  C   UNL     1       5.777  -3.667  22.194  0.00  0.00    +0.010 C 
ENDBRANCH  19  21
ENDBRANCH  18  19
ENDBRANCH  11  18
ENDBRANCH   1  15
BRANCH   7  23
ATOM     23  C   UNL     1       8.954   5.800  24.438  0.00  0.00    +0.266 C 
ATOM     24  N   UNL     1       8.953   6.603  23.396  0.00  0.00    -0.288 N 
ATOM     25  H   UNL     1       8.688   7.575  23.460  0.00  0.00    +0.301 HD
ATOM     26  H   UNL     1       9.255   6.259  22.491  0.00  0.00    +0.301 HD
ATOM     27  N   UNL     1       8.612   6.263  25.623  0.00  0.00    -0.250 N 
ATOM     28  H   UNL     1       8.364   7.230  25.783  0.00  0.00    +0.288 HD
ATOM     29  H   UNL     1       8.585   5.642  26.425  0.00  0.00    +0.288 HD
ENDBRANCH   7  23
TORSDOF 5
ENDMDL
MODEL 7
REMARK VINA RESULT:      -6.7      1.875      2.735
REMARK  Name = 
REMARK  7 active torsions:
REMARK  status: ('A' for Active; 'I' for Inactive)
REMARK    1  A    between atoms: C_1  and  C_2
REMARK    2  A    between atoms: C_2  and  C_3
REMARK    3  A    between atoms: C_2  and  C_4
REMARK    4  A    between atoms: C_4  and  O_5
REMARK    5  A    between atoms: O_5  and  C_6
REMARK    6  A    between atoms: C_9  and  C_13
REMARK    7  A    between atoms: C_17  and  C_22
REMARK                            x       y       z     vdW  Elec       q    Type
REMARK                         _______ _______ _______ _____ _____    ______ ____
ROOT
ATOM      1  C   UNL     1       8.060  -1.567  23.600  0.00  0.00    +0.139 A 
ATOM      2  N   UNL     1       7.907  -2.228  22.397  0.00  0.00    -0.338 N 
ATOM      3  H   UNL     1       8.335  -1.860  21.550  0.00  0.00    +0.167 HD
ATOM      4  C   UNL     1       7.163  -3.361  22.612  0.00  0.00    +0.067 A 
ATOM      5  C   UNL     1       6.883  -3.315  23.968  0.00  0.00    +0.090 A 
ATOM      6  C   UNL     1       6.123  -4.331  24.561  0.00  0.00    +0.045 A 
ATOM      7  C   UNL     1       5.662  -5.403  23.780  0.00  0.00    +0.063 A 
ATOM      8  C   UNL     1       5.970  -5.417  22.403  0.00  0.00    +0.018 A 
ATOM      9  C   UNL     1       6.720  -4.395  21.787  0.00  0.00    +0.028 A 
ATOM     10  N   UNL     1       7.427  -2.222  24.565  0.00  0.00    -0.228 NA
ENDROOT
BRANCH   1  15
ATOM     11  C   UNL     1       9.335   2.027  23.451  0.00  0.00    +0.114 A 
ATOM     12  C   UNL     1      10.573   1.823  24.103  0.00  0.00    +0.045 A 
ATOM     13  C   UNL     1      10.951   0.582  24.574  0.00  0.00    +0.004 A 
ATOM     14  C   UNL     1      10.091  -0.482  24.395  0.00  0.00    +0.011 A 
ATOM     15  C   UNL     1       8.848  -0.323  23.744  0.00  0.00    +0.013 A 
ATOM     16  C   UNL     1       8.400   0.953  23.243  0.00  0.00    -0.054 A 
ATOM     17  O   UNL     1       7.260   1.104  22.659  0.00  0.00    -0.871 OA
BRANCH  11  18
ATOM     18  O   UNL     1       8.975   3.293  22.982  0.00  0.00    -0.492 OA
BRANCH  18  19
ATOM     19  C   UNL     1       8.888   4.319  23.970  0.00  0.00    +0.232 C 
BRANCH  19  21
ATOM     20  C   UNL     1       8.981   6.784  24.342  0.00  0.00    +0.010 C 
ATOM     21  C   UNL     1       9.572   5.622  23.536  0.00  0.00    +0.020 C 
ATOM     22  C   UNL     1      11.084   5.553  23.736  0.00  0.00    +0.010 C 
ENDBRANCH  19  21
ENDBRANCH  18  19
ENDBRANCH  11  18
ENDBRANCH   1  15
BRANCH   7  23
ATOM     23  C   UNL     1       4.873  -6.475  24.417  0.00  0.00    +0.266 C 
ATOM     24  N   UNL     1       3.983  -7.146  23.718  0.00  0.00    -0.288 N 
ATOM     25  H   UNL     1       3.420  -7.882  24.118  0.00  0.00    +0.301 HD
ATOM     26  H   UNL     1       3.820  -6.909  22.745  0.00  0.00    +0.301 HD
ATOM     27  N   UNL     1       5.045  -6.750  25.694  0.00  0.00    -0.250 N 
ATOM     28  H   UNL     1       4.502  -7.448  26.182  0.00  0.00    +0.288 HD
ATOM     29  H   UNL     1       5.749  -6.253  26.231  0.00  0.00    +0.288 HD
ENDBRANCH   7  23
TORSDOF 5
ENDMDL
MODEL 8
REMARK VINA RESULT:      -6.6      2.037      2.674
REMARK  Name = 
REMARK  7 active torsions:
REMARK  status: ('A' for Active; 'I' for Inactive)
REMARK    1  A    between atoms: C_1  and  C_2
REMARK    2  A    between atoms: C_2  and  C_3
REMARK    3  A    between atoms: C_2  and  C_4
REMARK    4  A    between atoms: C_4  and  O_5
REMARK    5  A    between atoms: O_5  and  C_6
REMARK    6  A    between atoms: C_9  and  C_13
REMARK    7  A    between atoms: C_17  and  C_22
REMARK                            x       y       z     vdW  Elec       q    Type
REMARK                         _______ _______ _______ _____ _____    ______ ____
ROOT
ATOM      1  C   UNL     1       8.520  -0.885  23.502  0.00  0.00    +0.139 A 
ATOM      2  N   UNL     1       8.916  -1.804  24.454  0.00  0.00    -0.338 N 
ATOM      3  H   UNL     1       9.573  -1.537  25.185  0.00  0.00    +0.167 HD
ATOM      4  C   UNL     1       8.265  -2.989  24.216  0.00  0.00    +0.067 A 
ATOM      5  C   UNL     1       7.502  -2.722  23.091  0.00  0.00    +0.090 A 
ATOM      6  C   UNL     1       6.689  -3.721  22.543  0.00  0.00    +0.045 A 
ATOM      7  C   UNL     1       6.637  -4.987  23.148  0.00  0.00    +0.063 A 
ATOM      8  C   UNL     1       7.424  -5.220  24.296  0.00  0.00    +0.018 A 
ATOM      9  C   UNL     1       8.261  -4.230  24.851  0.00  0.00    +0.028 A 
ATOM     10  N   UNL     1       7.662  -1.443  22.658  0.00  0.00    -0.228 NA
ENDROOT
BRANCH   1  15
ATOM     11  C   UNL     1       9.137   2.808  24.241  0.00  0.00    +0.114 A 
ATOM     12  C   UNL     1       9.994   3.085  23.151  0.00  0.00    +0.045 A 
ATOM     13  C   UNL     1      10.356   2.110  22.244  0.00  0.00    +0.004 A 
ATOM     14  C   UNL     1       9.858   0.834  22.413  0.00  0.00    +0.011 A 
ATOM     15  C   UNL     1       8.994   0.516  23.484  0.00  0.00    +0.013 A 
ATOM     16  C   UNL     1       8.594   1.494  24.465  0.00  0.00    -0.054 A 
ATOM     17  O   UNL     1       7.815   1.205  25.452  0.00  0.00    -0.871 OA
BRANCH  11  18
ATOM     18  O   UNL     1       8.784   3.813  25.145  0.00  0.00    -0.492 OA
BRANCH  18  19
ATOM     19  C   UNL     1       7.794   4.736  24.692  0.00  0.00    +0.232 C 
BRANCH  19  21
ATOM     20  C   UNL     1       9.601   6.305  25.396  0.00  0.00    +0.010 C 
ATOM     21  C   UNL     1       8.336   6.162  24.541  0.00  0.00    +0.020 C 
ATOM     22  C   UNL     1       8.644   6.493  23.083  0.00  0.00    +0.010 C 
ENDBRANCH  19  21
ENDBRANCH  18  19
ENDBRANCH  11  18
ENDBRANCH   1  15
BRANCH   7  23
ATOM     23  C   UNL     1       5.766  -6.030  22.572  0.00  0.00    +0.266 C 
ATOM     24  N   UNL     1       4.970  -6.732  23.348  0.00  0.00    -0.288 N 
ATOM     25  H   UNL     1       4.365  -7.458  22.993  0.00  0.00    +0.301 HD
ATOM     26  H   UNL     1       4.973  -6.574  24.351  0.00  0.00    +0.301 HD
ATOM     27  N   UNL     1       5.799  -6.273  21.277  0.00  0.00    -0.250 N 
ATOM     28  H   UNL     1       5.251  -7.001  20.842  0.00  0.00    +0.288 HD
ATOM     29  H   UNL     1       6.392  -5.716  20.669  0.00  0.00    +0.288 HD
ENDBRANCH   7  23
TORSDOF 5
ENDMDL
MODEL 9
REMARK VINA RESULT:      -6.6      2.062      2.727
REMARK  Name = 
REMARK  7 active torsions:
REMARK  status: ('A' for Active; 'I' for Inactive)
REMARK    1  A    between atoms: C_1  and  C_2
REMARK    2  A    between atoms: C_2  and  C_3
REMARK    3  A    between atoms: C_2  and  C_4
REMARK    4  A    between atoms: C_4  and  O_5
REMARK    5  A    between atoms: O_5  and  C_6
REMARK    6  A    between atoms: C_9  and  C_13
REMARK    7  A    between atoms: C_17  and  C_22
REMARK                            x       y       z     vdW  Elec       q    Type
REMARK                         _______ _______ _______ _____ _____    ______ ____
ROOT
ATOM      1  C   UNL     1       7.656  -0.061  23.665  0.00  0.00    +0.139 A 
ATOM      2  N   UNL     1       7.784  -1.019  22.678  0.00  0.00    -0.338 N 
ATOM      3  H   UNL     1       7.957  -0.744  21.713  0.00  0.00    +0.167 HD
ATOM      4  C   UNL     1       7.668  -2.259  23.255  0.00  0.00    +0.067 A 
ATOM      5  C   UNL     1       7.452  -1.978  24.594  0.00  0.00    +0.090 A 
ATOM      6  C   UNL     1       7.280  -3.022  25.510  0.00  0.00    +0.045 A 
ATOM      7  C   UNL     1       7.346  -4.354  25.070  0.00  0.00    +0.063 A 
ATOM      8  C   UNL     1       7.572  -4.601  23.699  0.00  0.00    +0.018 A 
ATOM      9  C   UNL     1       7.731  -3.562  22.761  0.00  0.00    +0.028 A 
ATOM     10  N   UNL     1       7.442  -0.641  24.839  0.00  0.00    -0.228 NA
ENDROOT
BRANCH   1  15
ATOM     11  C   UNL     1       8.647   3.624  23.705  0.00  0.00    +0.114 A 
ATOM     12  C   UNL     1       7.710   4.090  22.754  0.00  0.00    +0.045 A 
ATOM     13  C   UNL     1       6.823   3.236  22.129  0.00  0.00    +0.004 A 
ATOM     14  C   UNL     1       6.857   1.896  22.454  0.00  0.00    +0.011 A 
ATOM     15  C   UNL     1       7.773   1.390  23.403  0.00  0.00    +0.013 A 
ATOM     16  C   UNL     1       8.728   2.236  24.076  0.00  0.00    -0.054 A 
ATOM     17  O   UNL     1       9.573   1.776  24.935  0.00  0.00    -0.871 OA
BRANCH  11  18
ATOM     18  O   UNL     1       9.534   4.508  24.325  0.00  0.00    -0.492 OA
BRANCH  18  19
ATOM     19  C   UNL     1       9.908   5.651  23.557  0.00  0.00    +0.232 C 
BRANCH  19  21
ATOM     20  C   UNL     1      11.909   6.507  24.777  0.00  0.00    +0.010 C 
ATOM     21  C   UNL     1      11.428   5.844  23.481  0.00  0.00    +0.020 C 
ATOM     22  C   UNL     1      12.151   4.517  23.266  0.00  0.00    +0.010 C 
ENDBRANCH  19  21
ENDBRANCH  18  19
ENDBRANCH  11  18
ENDBRANCH   1  15
BRANCH   7  23
ATOM     23  C   UNL     1       7.177  -5.448  26.045  0.00  0.00    +0.266 C 
ATOM     24  N   UNL     1       6.029  -6.082  26.137  0.00  0.00    -0.288 N 
ATOM     25  H   UNL     1       5.872  -6.831  26.796  0.00  0.00    +0.301 HD
ATOM     26  H   UNL     1       5.247  -5.800  25.555  0.00  0.00    +0.301 HD
ATOM     27  N   UNL     1       8.174  -5.780  26.841  0.00  0.00    -0.250 N 
ATOM     28  H   UNL     1       8.095  -6.496  27.549  0.00  0.00    +0.288 HD
ATOM     29  H   UNL     1       9.071  -5.313  26.756  0.00  0.00    +0.288 HD
ENDBRANCH   7  23
TORSDOF 5
ENDMDL
