MODEL 1
REMARK VINA RESULT:      -5.6      0.000      0.000
REMARK  Name = 
REMARK  10 active torsions:
REMARK  status: ('A' for Active; 'I' for Inactive)
REMARK    1  A    between atoms: O_1  and  C_2
REMARK    2  A    between atoms: C_2  and  C_3
REMARK    3  A    between atoms: C_3  and  O_5
REMARK    4  A    between atoms: C_3  and  C_6
REMARK    5  A    between atoms: C_6  and  O_8
REMARK    6  A    between atoms: C_6  and  C_9
REMARK    7  A    between atoms: C_12  and  C_23
REMARK    8  A    between atoms: C_17  and  O_19
REMARK    9  A    between atoms: C_20  and  O_22
REMARK   10  A    between atoms: C_23  and  O_24
REMARK                            x       y       z     vdW  Elec       q    Type
REMARK                         _______ _______ _______ _____ _____    ______ ____
ROOT
ATOM      1  C   UNL     1       8.177  -2.865  22.835  0.00  0.00    +0.181 C 
ATOM      2  C   UNL     1       8.791  -3.469  24.117  0.00  0.00    +0.177 C 
ATOM      3  C   UNL     1       8.521  -4.988  24.157  0.00  0.00    +0.182 C 
ATOM      4  C   UNL     1       7.025  -5.258  24.008  0.00  0.00    +0.236 C 
ATOM      5  F   UNL     1       6.380  -4.701  25.075  0.00  0.00    -0.239 F 
ATOM      6  C   UNL     1       6.525  -4.609  22.727  0.00  0.00    +0.263 C 
ATOM      7  O   UNL     1       6.782  -3.196  22.708  0.00  0.00    -0.354 OA
ENDROOT
BRANCH   2   8
ATOM      8  O   UNL     1      10.198  -3.185  24.142  0.00  0.00    -0.386 OA
ATOM      9  H   UNL     1      10.640  -3.730  23.468  0.00  0.00    +0.210 HD
ENDBRANCH   2   8
BRANCH   3  10
ATOM     10  O   UNL     1       9.057  -5.555  25.357  0.00  0.00    -0.386 OA
ATOM     11  H   UNL     1       8.947  -6.521  25.332  0.00  0.00    +0.210 HD
ENDBRANCH   3  10
BRANCH   6  12
ATOM     12  C   UNL     1       5.022  -4.807  22.615  0.00  0.00    +0.337 C 
ATOM     13  O   UNL     1       4.192  -3.965  22.924  0.00  0.00    -0.248 OA
BRANCH  12  14
ATOM     14  O   UNL     1       4.694  -6.048  22.160  0.00  0.00    -0.479 OA
ATOM     15  H   UNL     1       4.105  -6.467  22.837  0.00  0.00    +0.295 HD
ENDBRANCH  12  14
ENDBRANCH   6  12
BRANCH   1  16
ATOM     16  C   UNL     1       8.319  -1.322  22.804  0.00  0.00    +0.176 C 
BRANCH  16  17
ATOM     17  O   UNL     1       7.017  -0.732  22.661  0.00  0.00    -0.386 OA
ATOM     18  H   UNL     1       7.098   0.221  22.841  0.00  0.00    +0.210 HD
ENDBRANCH  16  17
BRANCH  16  19
ATOM     19  C   UNL     1       9.216  -0.870  21.638  0.00  0.00    +0.171 C 
BRANCH  19  20
ATOM     20  O   UNL     1      10.433  -1.633  21.614  0.00  0.00    -0.387 OA
ATOM     21  H   UNL     1      11.119  -1.001  21.915  0.00  0.00    +0.210 HD
ENDBRANCH  19  20
BRANCH  19  22
ATOM     22  C   UNL     1       9.593   0.612  21.739  0.00  0.00    +0.189 C 
BRANCH  22  23
ATOM     23  O   UNL     1       8.648   1.367  20.976  0.00  0.00    -0.392 OA
ATOM     24  H   UNL     1       7.906   0.770  20.774  0.00  0.00    +0.210 HD
ENDBRANCH  22  23
ENDBRANCH  19  22
ENDBRANCH  16  19
ENDBRANCH   1  16
TORSDOF 10
ENDMDL
MODEL 2
REMARK VINA RESULT:      -5.5      1.831      3.449
REMARK  Name = 
REMARK  10 active torsions:
REMARK  status: ('A' for Active; 'I' for Inactive)
REMARK    1  A    between atoms: O_1  and  C_2
REMARK    2  A    between atoms: C_2  and  C_3
REMARK    3  A    between atoms: C_3  and  O_5
REMARK    4  A    between atoms: C_3  and  C_6
REMARK    5  A    between atoms: C_6  and  O_8
REMARK    6  A    between atoms: C_6  and  C_9
REMARK    7  A    between atoms: C_12  and  C_23
REMARK    8  A    between atoms: C_17  and  O_19
REMARK    9  A    between atoms: C_20  and  O_22
REMARK   10  A    between atoms: C_23  and  O_24
REMARK                            x       y       z     vdW  Elec       q    Type
REMARK                         _______ _______ _______ _____ _____    ______ ____
ROOT
ATOM      1  C   UNL     1       7.151  -2.499  24.678  0.00  0.00    +0.181 C 
ATOM      2  C   UNL     1       6.434  -2.895  23.368  0.00  0.00    +0.177 C 
ATOM      3  C   UNL     1       5.205  -3.770  23.692  0.00  0.00    +0.182 C 
ATOM      4  C   UNL     1       5.625  -4.966  24.546  0.00  0.00    +0.236 C 
ATOM      5  F   UNL     1       6.490  -5.731  23.818  0.00  0.00    -0.239 F 
ATOM      6  C   UNL     1       6.330  -4.464  25.795  0.00  0.00    +0.263 C 
ATOM      7  O   UNL     1       7.472  -3.653  25.476  0.00  0.00    -0.354 OA
ENDROOT
BRANCH   2   8
ATOM      8  O   UNL     1       6.057  -1.702  22.662  0.00  0.00    -0.386 OA
ATOM      9  H   UNL     1       5.708  -1.951  21.790  0.00  0.00    +0.210 HD
ENDBRANCH   2   8
BRANCH   3  10
ATOM     10  O   UNL     1       4.550  -4.171  22.484  0.00  0.00    -0.386 OA
ATOM     11  H   UNL     1       3.613  -4.352  22.673  0.00  0.00    +0.210 HD
ENDBRANCH   3  10
BRANCH   6  12
ATOM     12  C   UNL     1       6.820  -5.651  26.609  0.00  0.00    +0.337 C 
ATOM     13  O   UNL     1       6.086  -6.447  27.176  0.00  0.00    -0.248 OA
BRANCH  12  14
ATOM     14  O   UNL     1       8.180  -5.715  26.669  0.00  0.00    -0.479 OA
ATOM     15  H   UNL     1       8.513  -5.831  25.743  0.00  0.00    +0.295 HD
ENDBRANCH  12  14
ENDBRANCH   6  12
BRANCH   1  16
ATOM     16  C   UNL     1       8.459  -1.716  24.401  0.00  0.00    +0.176 C 
BRANCH  16  17
ATOM     17  O   UNL     1       8.131  -0.433  23.846  0.00  0.00    -0.386 OA
ATOM     18  H   UNL     1       7.164  -0.385  23.749  0.00  0.00    +0.210 HD
ENDBRANCH  16  17
BRANCH  16  19
ATOM     19  C   UNL     1       9.367  -2.480  23.420  0.00  0.00    +0.171 C 
BRANCH  19  20
ATOM     20  O   UNL     1      10.153  -3.458  24.120  0.00  0.00    -0.387 OA
ATOM     21  H   UNL     1       9.499  -4.121  24.423  0.00  0.00    +0.210 HD
ENDBRANCH  19  20
BRANCH  19  22
ATOM     22  C   UNL     1      10.330  -1.548  22.678  0.00  0.00    +0.189 C 
BRANCH  22  23
ATOM     23  O   UNL     1       9.762  -1.243  21.401  0.00  0.00    -0.392 OA
ATOM     24  H   UNL     1       9.535  -0.296  21.411  0.00  0.00    +0.210 HD
ENDBRANCH  22  23
ENDBRANCH  19  22
ENDBRANCH  16  19
ENDBRANCH   1  16
TORSDOF 10
ENDMDL
MODEL 3
REMARK VINA RESULT:      -5.5      3.848      5.111
REMARK  Name = 
REMARK  10 active torsions:
REMARK  status: ('A' for Active; 'I' for Inactive)
REMARK    1  A    between atoms: O_1  and  C_2
REMARK    2  A    between atoms: C_2  and  C_3
REMARK    3  A    between atoms: C_3  and  O_5
REMARK    4  A    between atoms: C_3  and  C_6
REMARK    5  A    between atoms: C_6  and  O_8
REMARK    6  A    between atoms: C_6  and  C_9
REMARK    7  A    between atoms: C_12  and  C_23
REMARK    8  A    between atoms: C_17  and  O_19
REMARK    9  A    between atoms: C_20  and  O_22
REMARK   10  A    between atoms: C_23  and  O_24
REMARK                            x       y       z     vdW  Elec       q    Type
REMARK                         _______ _______ _______ _____ _____    ______ ____
ROOT
ATOM      1  C   UNL     1       8.196   0.490  22.534  0.00  0.00    +0.181 C 
ATOM      2  C   UNL     1       9.466  -0.329  22.214  0.00  0.00    +0.177 C 
ATOM      3  C   UNL     1       9.512  -1.587  23.107  0.00  0.00    +0.182 C 
ATOM      4  C   UNL     1       9.393  -1.190  24.578  0.00  0.00    +0.236 C 
ATOM      5  F   UNL     1      10.472  -0.419  24.903  0.00  0.00    -0.239 F 
ATOM      6  C   UNL     1       8.122  -0.379  24.775  0.00  0.00    +0.263 C 
ATOM      7  O   UNL     1       8.097   0.788  23.939  0.00  0.00    -0.354 OA
ENDROOT
BRANCH   2   8
ATOM      8  O   UNL     1       9.462  -0.674  20.820  0.00  0.00    -0.386 OA
ATOM      9  H   UNL     1      10.277  -0.337  20.411  0.00  0.00    +0.210 HD
ENDBRANCH   2   8
BRANCH   3  10
ATOM     10  O   UNL     1      10.702  -2.338  22.843  0.00  0.00    -0.386 OA
ATOM     11  H   UNL     1      11.129  -2.568  23.686  0.00  0.00    +0.210 HD
ENDBRANCH   3  10
BRANCH   6  12
ATOM     12  C   UNL     1       8.040   0.085  26.220  0.00  0.00    +0.337 C 
ATOM     13  O   UNL     1       7.972  -0.665  27.181  0.00  0.00    -0.248 OA
BRANCH  12  14
ATOM     14  O   UNL     1       8.015   1.444  26.328  0.00  0.00    -0.479 OA
ATOM     15  H   UNL     1       7.263   1.772  25.774  0.00  0.00    +0.295 HD
ENDBRANCH  12  14
ENDBRANCH   6  12
BRANCH   1  16
ATOM     16  C   UNL     1       8.161   1.824  21.747  0.00  0.00    +0.176 C 
BRANCH  16  17
ATOM     17  O   UNL     1       9.507   2.254  21.488  0.00  0.00    -0.386 OA
ATOM     18  H   UNL     1      10.066   1.461  21.414  0.00  0.00    +0.210 HD
ENDBRANCH  16  17
BRANCH  16  19
ATOM     19  C   UNL     1       7.419   2.917  22.538  0.00  0.00    +0.171 C 
BRANCH  19  20
ATOM     20  O   UNL     1       6.463   3.584  21.699  0.00  0.00    -0.387 OA
ATOM     21  H   UNL     1       6.834   4.483  21.579  0.00  0.00    +0.210 HD
ENDBRANCH  19  20
BRANCH  19  22
ATOM     22  C   UNL     1       8.374   3.977  23.095  0.00  0.00    +0.189 C 
BRANCH  22  23
ATOM     23  O   UNL     1       9.002   3.443  24.265  0.00  0.00    -0.392 OA
ATOM     24  H   UNL     1       8.396   3.606  25.009  0.00  0.00    +0.210 HD
ENDBRANCH  22  23
ENDBRANCH  19  22
ENDBRANCH  16  19
ENDBRANCH   1  16
TORSDOF 10
ENDMDL
MODEL 4
REMARK VINA RESULT:      -5.5      2.877      5.680
REMARK  Name = 
REMARK  10 active torsions:
REMARK  status: ('A' for Active; 'I' for Inactive)
REMARK    1  A    between atoms: O_1  and  C_2
REMARK    2  A    between atoms: C_2  and  C_3
REMARK    3  A    between atoms: C_3  and  O_5
REMARK    4  A    between atoms: C_3  and  C_6
REMARK    5  A    between atoms: C_6  and  O_8
REMARK    6  A    between atoms: C_6  and  C_9
REMARK    7  A    between atoms: C_12  and  C_23
REMARK    8  A    between atoms: C_17  and  O_19
REMARK    9  A    between atoms: C_20  and  O_22
REMARK   10  A    between atoms: C_23  and  O_24
REMARK                            x       y       z     vdW  Elec       q    Type
REMARK                         _______ _______ _______ _____ _____    ______ ____
ROOT
ATOM      1  C   UNL     1       6.674  -4.434  25.863  0.00  0.00    +0.181 C 
ATOM      2  C   UNL     1       8.189  -4.240  25.634  0.00  0.00    +0.177 C 
ATOM      3  C   UNL     1       8.432  -3.660  24.225  0.00  0.00    +0.182 C 
ATOM      4  C   UNL     1       7.762  -4.541  23.173  0.00  0.00    +0.236 C 
ATOM      5  F   UNL     1       8.345  -5.775  23.212  0.00  0.00    -0.239 F 
ATOM      6  C   UNL     1       6.284  -4.676  23.503  0.00  0.00    +0.263 C 
ATOM      7  O   UNL     1       6.075  -5.220  24.816  0.00  0.00    -0.354 OA
ENDROOT
BRANCH   2   8
ATOM      8  O   UNL     1       8.710  -3.374  26.655  0.00  0.00    -0.386 OA
ATOM      9  H   UNL     1       8.905  -2.507  26.262  0.00  0.00    +0.210 HD
ENDBRANCH   2   8
BRANCH   3  10
ATOM     10  O   UNL     1       9.835  -3.505  23.988  0.00  0.00    -0.386 OA
ATOM     11  H   UNL     1      10.323  -4.161  24.514  0.00  0.00    +0.210 HD
ENDBRANCH   3  10
BRANCH   6  12
ATOM     12  C   UNL     1       5.628  -5.617  22.504  0.00  0.00    +0.337 C 
ATOM     13  O   UNL     1       5.652  -5.461  21.293  0.00  0.00    -0.248 OA
BRANCH  12  14
ATOM     14  O   UNL     1       4.975  -6.647  23.113  0.00  0.00    -0.479 OA
ATOM     15  H   UNL     1       5.637  -7.364  23.276  0.00  0.00    +0.295 HD
ENDBRANCH  12  14
ENDBRANCH   6  12
BRANCH   1  16
ATOM     16  C   UNL     1       6.383  -5.123  27.220  0.00  0.00    +0.176 C 
BRANCH  16  17
ATOM     17  O   UNL     1       7.543  -5.863  27.631  0.00  0.00    -0.386 OA
ATOM     18  H   UNL     1       7.516  -6.732  27.194  0.00  0.00    +0.210 HD
ENDBRANCH  16  17
BRANCH  16  19
ATOM     19  C   UNL     1       5.180  -6.079  27.111  0.00  0.00    +0.171 C 
BRANCH  19  20
ATOM     20  O   UNL     1       4.003  -5.361  26.708  0.00  0.00    -0.387 OA
ATOM     21  H   UNL     1       3.425  -6.048  26.314  0.00  0.00    +0.210 HD
ENDBRANCH  19  20
BRANCH  19  22
ATOM     22  C   UNL     1       4.873  -6.776  28.441  0.00  0.00    +0.189 C 
BRANCH  22  23
ATOM     23  O   UNL     1       5.760  -7.890  28.577  0.00  0.00    -0.392 OA
ATOM     24  H   UNL     1       5.247  -8.688  28.358  0.00  0.00    +0.210 HD
ENDBRANCH  22  23
ENDBRANCH  19  22
ENDBRANCH  16  19
ENDBRANCH   1  16
TORSDOF 10
ENDMDL
MODEL 5
REMARK VINA RESULT:      -5.5      1.422      3.278
REMARK  Name = 
REMARK  10 active torsions:
REMARK  status: ('A' for Active; 'I' for Inactive)
REMARK    1  A    between atoms: O_1  and  C_2
REMARK    2  A    between atoms: C_2  and  C_3
REMARK    3  A    between atoms: C_3  and  O_5
REMARK    4  A    between atoms: C_3  and  C_6
REMARK    5  A    between atoms: C_6  and  O_8
REMARK    6  A    between atoms: C_6  and  C_9
REMARK    7  A    between atoms: C_12  and  C_23
REMARK    8  A    between atoms: C_17  and  O_19
REMARK    9  A    between atoms: C_20  and  O_22
REMARK   10  A    between atoms: C_23  and  O_24
REMARK                            x       y       z     vdW  Elec       q    Type
REMARK                         _______ _______ _______ _____ _____    ______ ____
ROOT
ATOM      1  C   UNL     1       7.949  -1.661  24.132  0.00  0.00    +0.181 C 
ATOM      2  C   UNL     1       6.954  -2.040  23.014  0.00  0.00    +0.177 C 
ATOM      3  C   UNL     1       6.115  -3.258  23.455  0.00  0.00    +0.182 C 
ATOM      4  C   UNL     1       7.035  -4.405  23.870  0.00  0.00    +0.236 C 
ATOM      5  F   UNL     1       7.766  -4.785  22.781  0.00  0.00    -0.239 F 
ATOM      6  C   UNL     1       7.978  -3.919  24.959  0.00  0.00    +0.263 C 
ATOM      7  O   UNL     1       8.752  -2.787  24.532  0.00  0.00    -0.354 OA
ENDROOT
BRANCH   2   8
ATOM      8  O   UNL     1       6.120  -0.907  22.724  0.00  0.00    -0.386 OA
ATOM      9  H   UNL     1       6.117  -0.314  23.495  0.00  0.00    +0.210 HD
ENDBRANCH   2   8
BRANCH   3  10
ATOM     10  O   UNL     1       5.210  -3.640  22.413  0.00  0.00    -0.386 OA
ATOM     11  H   UNL     1       5.277  -3.004  21.681  0.00  0.00    +0.210 HD
ENDBRANCH   3  10
BRANCH   6  12
ATOM     12  C   UNL     1       8.949  -5.032  25.319  0.00  0.00    +0.337 C 
ATOM     13  O   UNL     1      10.058  -5.164  24.826  0.00  0.00    -0.248 OA
BRANCH  12  14
ATOM     14  O   UNL     1       8.431  -5.897  26.237  0.00  0.00    -0.479 OA
ATOM     15  H   UNL     1       7.861  -5.370  26.852  0.00  0.00    +0.295 HD
ENDBRANCH  12  14
ENDBRANCH   6  12
BRANCH   1  16
ATOM     16  C   UNL     1       8.895  -0.516  23.693  0.00  0.00    +0.176 C 
BRANCH  16  17
ATOM     17  O   UNL     1       8.231   0.743  23.881  0.00  0.00    -0.386 OA
ATOM     18  H   UNL     1       7.934   1.059  23.011  0.00  0.00    +0.210 HD
ENDBRANCH  16  17
BRANCH  16  19
ATOM     19  C   UNL     1       9.299  -0.664  22.214  0.00  0.00    +0.171 C 
BRANCH  19  20
ATOM     20  O   UNL     1      10.327  -1.656  22.071  0.00  0.00    -0.387 OA
ATOM     21  H   UNL     1       9.862  -2.507  22.212  0.00  0.00    +0.210 HD
ENDBRANCH  19  20
BRANCH  19  22
ATOM     22  C   UNL     1       9.826   0.648  21.624  0.00  0.00    +0.189 C 
BRANCH  22  23
ATOM     23  O   UNL     1       8.735   1.325  20.994  0.00  0.00    -0.392 OA
ATOM     24  H   UNL     1       8.650   2.191  21.430  0.00  0.00    +0.210 HD
ENDBRANCH  22  23
ENDBRANCH  19  22
ENDBRANCH  16  19
ENDBRANCH   1  16
TORSDOF 10
ENDMDL
MODEL 6
REMARK VINA RESULT:      -5.4      1.324      3.496
REMARK  Name = 
REMARK  10 active torsions:
REMARK  status: ('A' for Active; 'I' for Inactive)
REMARK    1  A    between atoms: O_1  and  C_2
REMARK    2  A    between atoms: C_2  and  C_3
REMARK    3  A    between atoms: C_3  and  O_5
REMARK    4  A    between atoms: C_3  and  C_6
REMARK    5  A    between atoms: C_6  and  O_8
REMARK    6  A    between atoms: C_6  and  C_9
REMARK    7  A    between atoms: C_12  and  C_23
REMARK    8  A    between atoms: C_17  and  O_19
REMARK    9  A    between atoms: C_20  and  O_22
REMARK   10  A    between atoms: C_23  and  O_24
REMARK                            x       y       z     vdW  Elec       q    Type
REMARK                         _______ _______ _______ _____ _____    ______ ____
ROOT
ATOM      1  C   UNL     1       7.519  -2.398  23.263  0.00  0.00    +0.181 C 
ATOM      2  C   UNL     1       6.597  -3.235  22.349  0.00  0.00    +0.177 C 
ATOM      3  C   UNL     1       5.978  -4.395  23.157  0.00  0.00    +0.182 C 
ATOM      4  C   UNL     1       7.080  -5.212  23.829  0.00  0.00    +0.236 C 
ATOM      5  F   UNL     1       7.859  -5.765  22.854  0.00  0.00    -0.239 F 
ATOM      6  C   UNL     1       7.932  -4.291  24.688  0.00  0.00    +0.263 C 
ATOM      7  O   UNL     1       8.502  -3.220  23.920  0.00  0.00    -0.354 OA
ENDROOT
BRANCH   2   8
ATOM      8  O   UNL     1       5.584  -2.380  21.797  0.00  0.00    -0.386 OA
ATOM      9  H   UNL     1       5.969  -1.503  21.630  0.00  0.00    +0.210 HD
ENDBRANCH   2   8
BRANCH   3  10
ATOM     10  O   UNL     1       5.145  -5.198  22.313  0.00  0.00    -0.386 OA
ATOM     11  H   UNL     1       5.006  -4.737  21.469  0.00  0.00    +0.210 HD
ENDBRANCH   3  10
BRANCH   6  12
ATOM     12  C   UNL     1       9.077  -5.085  25.295  0.00  0.00    +0.337 C 
ATOM     13  O   UNL     1      10.242  -4.997  24.935  0.00  0.00    -0.248 OA
BRANCH  12  14
ATOM     14  O   UNL     1       8.658  -5.939  26.270  0.00  0.00    -0.479 OA
ATOM     15  H   UNL     1       9.416  -6.074  26.893  0.00  0.00    +0.295 HD
ENDBRANCH  12  14
ENDBRANCH   6  12
BRANCH   1  16
ATOM     16  C   UNL     1       8.257  -1.290  22.472  0.00  0.00    +0.176 C 
BRANCH  16  17
ATOM     17  O   UNL     1       9.674  -1.481  22.603  0.00  0.00    -0.386 OA
ATOM     18  H   UNL     1       9.821  -2.295  23.116  0.00  0.00    +0.210 HD
ENDBRANCH  16  17
BRANCH  16  19
ATOM     19  C   UNL     1       7.880   0.110  22.992  0.00  0.00    +0.171 C 
BRANCH  19  20
ATOM     20  O   UNL     1       6.528   0.433  22.632  0.00  0.00    -0.387 OA
ATOM     21  H   UNL     1       6.612   0.906  21.778  0.00  0.00    +0.210 HD
ENDBRANCH  19  20
BRANCH  19  22
ATOM     22  C   UNL     1       8.791   1.203  22.423  0.00  0.00    +0.189 C 
BRANCH  22  23
ATOM     23  O   UNL     1       8.957   0.964  21.022  0.00  0.00    -0.392 OA
ATOM     24  H   UNL     1       9.773   1.419  20.753  0.00  0.00    +0.210 HD
ENDBRANCH  22  23
ENDBRANCH  19  22
ENDBRANCH  16  19
ENDBRANCH   1  16
TORSDOF 10
ENDMDL
MODEL 7
REMARK VINA RESULT:      -5.4      1.892      2.320
REMARK  Name = 
REMARK  10 active torsions:
REMARK  status: ('A' for Active; 'I' for Inactive)
REMARK    1  A    between atoms: O_1  and  C_2
REMARK    2  A    between atoms: C_2  and  C_3
REMARK    3  A    between atoms: C_3  and  O_5
REMARK    4  A    between atoms: C_3  and  C_6
REMARK    5  A    between atoms: C_6  and  O_8
REMARK    6  A    between atoms: C_6  and  C_9
REMARK    7  A    between atoms: C_12  and  C_23
REMARK    8  A    between atoms: C_17  and  O_19
REMARK    9  A    between atoms: C_20  and  O_22
REMARK   10  A    between atoms: C_23  and  O_24
REMARK                            x       y       z     vdW  Elec       q    Type
REMARK                         _______ _______ _______ _____ _____    ______ ____
ROOT
ATOM      1  C   UNL     1       8.518  -3.471  24.023  0.00  0.00    +0.181 C 
ATOM      2  C   UNL     1       8.961  -4.260  25.275  0.00  0.00    +0.177 C 
ATOM      3  C   UNL     1       7.847  -5.244  25.690  0.00  0.00    +0.182 C 
ATOM      4  C   UNL     1       6.528  -4.495  25.874  0.00  0.00    +0.236 C 
ATOM      5  F   UNL     1       6.682  -3.598  26.892  0.00  0.00    -0.239 F 
ATOM      6  C   UNL     1       6.198  -3.744  24.593  0.00  0.00    +0.263 C 
ATOM      7  O   UNL     1       7.243  -2.832  24.222  0.00  0.00    -0.354 OA
ENDROOT
BRANCH   2   8
ATOM      8  O   UNL     1      10.187  -4.949  24.984  0.00  0.00    -0.386 OA
ATOM      9  H   UNL     1      10.009  -5.644  24.328  0.00  0.00    +0.210 HD
ENDBRANCH   2   8
BRANCH   3  10
ATOM     10  O   UNL     1       8.232  -5.960  26.869  0.00  0.00    -0.386 OA
ATOM     11  H   UNL     1       8.084  -5.397  27.648  0.00  0.00    +0.210 HD
ENDBRANCH   3  10
BRANCH   6  12
ATOM     12  C   UNL     1       4.928  -2.933  24.797  0.00  0.00    +0.337 C 
ATOM     13  O   UNL     1       3.813  -3.418  24.915  0.00  0.00    -0.248 OA
BRANCH  12  14
ATOM     14  O   UNL     1       5.164  -1.591  24.801  0.00  0.00    -0.479 OA
ATOM     15  H   UNL     1       5.384  -1.331  25.731  0.00  0.00    +0.295 HD
ENDBRANCH  12  14
ENDBRANCH   6  12
BRANCH   1  16
ATOM     16  C   UNL     1       9.554  -2.387  23.633  0.00  0.00    +0.176 C 
BRANCH  16  17
ATOM     17  O   UNL     1       9.658  -1.430  24.699  0.00  0.00    -0.386 OA
ATOM     18  H   UNL     1       8.914  -1.577  25.309  0.00  0.00    +0.210 HD
ENDBRANCH  16  17
BRANCH  16  19
ATOM     19  C   UNL     1       9.142  -1.665  22.337  0.00  0.00    +0.171 C 
BRANCH  19  20
ATOM     20  O   UNL     1      10.251  -1.591  21.428  0.00  0.00    -0.387 OA
ATOM     21  H   UNL     1       9.838  -1.406  20.559  0.00  0.00    +0.210 HD
ENDBRANCH  19  20
BRANCH  19  22
ATOM     22  C   UNL     1       8.655  -0.236  22.601  0.00  0.00    +0.189 C 
BRANCH  22  23
ATOM     23  O   UNL     1       7.309  -0.303  23.081  0.00  0.00    -0.392 OA
ATOM     24  H   UNL     1       7.149   0.512  23.588  0.00  0.00    +0.210 HD
ENDBRANCH  22  23
ENDBRANCH  19  22
ENDBRANCH  16  19
ENDBRANCH   1  16
TORSDOF 10
ENDMDL
MODEL 8
REMARK VINA RESULT:      -5.4      1.555      1.987
REMARK  Name = 
REMARK  10 active torsions:
REMARK  status: ('A' for Active; 'I' for Inactive)
REMARK    1  A    between atoms: O_1  and  C_2
REMARK    2  A    between atoms: C_2  and  C_3
REMARK    3  A    between atoms: C_3  and  O_5
REMARK    4  A    between atoms: C_3  and  C_6
REMARK    5  A    between atoms: C_6  and  O_8
REMARK    6  A    between atoms: C_6  and  C_9
REMARK    7  A    between atoms: C_12  and  C_23
REMARK    8  A    between atoms: C_17  and  O_19
REMARK    9  A    between atoms: C_20  and  O_22
REMARK   10  A    between atoms: C_23  and  O_24
REMARK                            x       y       z     vdW  Elec       q    Type
REMARK                         _______ _______ _______ _____ _____    ______ ____
ROOT
ATOM      1  C   UNL     1       8.665  -3.862  24.056  0.00  0.00    +0.181 C 
ATOM      2  C   UNL     1       7.915  -3.925  25.404  0.00  0.00    +0.177 C 
ATOM      3  C   UNL     1       7.056  -5.206  25.462  0.00  0.00    +0.182 C 
ATOM      4  C   UNL     1       6.135  -5.275  24.245  0.00  0.00    +0.236 C 
ATOM      5  F   UNL     1       5.282  -4.209  24.291  0.00  0.00    -0.239 F 
ATOM      6  C   UNL     1       6.973  -5.189  22.979  0.00  0.00    +0.263 C 
ATOM      7  O   UNL     1       7.764  -3.991  22.940  0.00  0.00    -0.354 OA
ENDROOT
BRANCH   2   8
ATOM      8  O   UNL     1       8.871  -3.886  26.474  0.00  0.00    -0.386 OA
ATOM      9  H   UNL     1       9.440  -4.673  26.416  0.00  0.00    +0.210 HD
ENDBRANCH   2   8
BRANCH   3  10
ATOM     10  O   UNL     1       6.330  -5.261  26.695  0.00  0.00    -0.386 OA
ATOM     11  H   UNL     1       5.384  -5.378  26.504  0.00  0.00    +0.210 HD
ENDBRANCH   3  10
BRANCH   6  12
ATOM     12  C   UNL     1       6.055  -5.176  21.767  0.00  0.00    +0.337 C 
ATOM     13  O   UNL     1       5.738  -4.168  21.155  0.00  0.00    -0.248 OA
BRANCH  12  14
ATOM     14  O   UNL     1       5.592  -6.419  21.453  0.00  0.00    -0.479 OA
ATOM     15  H   UNL     1       6.063  -7.067  22.034  0.00  0.00    +0.295 HD
ENDBRANCH  12  14
ENDBRANCH   6  12
BRANCH   1  16
ATOM     16  C   UNL     1       9.452  -2.537  23.899  0.00  0.00    +0.176 C 
BRANCH  16  17
ATOM     17  O   UNL     1       9.021  -1.611  24.909  0.00  0.00    -0.386 OA
ATOM     18  H   UNL     1       8.337  -1.039  24.521  0.00  0.00    +0.210 HD
ENDBRANCH  16  17
BRANCH  16  19
ATOM     19  C   UNL     1       9.224  -1.916  22.508  0.00  0.00    +0.171 C 
BRANCH  19  20
ATOM     20  O   UNL     1      10.480  -1.618  21.879  0.00  0.00    -0.387 OA
ATOM     21  H   UNL     1      10.458  -2.129  21.043  0.00  0.00    +0.210 HD
ENDBRANCH  19  20
BRANCH  19  22
ATOM     22  C   UNL     1       8.414  -0.618  22.579  0.00  0.00    +0.189 C 
BRANCH  22  23
ATOM     23  O   UNL     1       7.048  -0.956  22.837  0.00  0.00    -0.392 OA
ATOM     24  H   UNL     1       6.604  -1.016  21.973  0.00  0.00    +0.210 HD
ENDBRANCH  22  23
ENDBRANCH  19  22
ENDBRANCH  16  19
ENDBRANCH   1  16
TORSDOF 10
ENDMDL
MODEL 9
REMARK VINA RESULT:      -5.3      2.166      5.094
REMARK  Name = 
REMARK  10 active torsions:
REMARK  status: ('A' for Active; 'I' for Inactive)
REMARK    1  A    between atoms: O_1  and  C_2
REMARK    2  A    between atoms: C_2  and  C_3
REMARK    3  A    between atoms: C_3  and  O_5
REMARK    4  A    between atoms: C_3  and  C_6
REMARK    5  A    between atoms: C_6  and  O_8
REMARK    6  A    between atoms: C_6  and  C_9
REMARK    7  A    between atoms: C_12  and  C_23
REMARK    8  A    between atoms: C_17  and  O_19
REMARK    9  A    between atoms: C_20  and  O_22
REMARK   10  A    between atoms: C_23  and  O_24
REMARK                            x       y       z     vdW  Elec       q    Type
REMARK                         _______ _______ _______ _____ _____    ______ ____
ROOT
ATOM      1  C   UNL     1       7.041  -2.647  23.765  0.00  0.00    +0.181 C 
ATOM      2  C   UNL     1       7.689  -2.581  25.166  0.00  0.00    +0.177 C 
ATOM      3  C   UNL     1       8.219  -1.156  25.428  0.00  0.00    +0.182 C 
ATOM      4  C   UNL     1       9.156  -0.730  24.299  0.00  0.00    +0.236 C 
ATOM      5  F   UNL     1      10.232  -1.571  24.294  0.00  0.00    -0.239 F 
ATOM      6  C   UNL     1       8.424  -0.847  22.972  0.00  0.00    +0.263 C 
ATOM      7  O   UNL     1       7.940  -2.179  22.742  0.00  0.00    -0.354 OA
ENDROOT
BRANCH   2   8
ATOM      8  O   UNL     1       6.717  -2.969  26.150  0.00  0.00    -0.386 OA
ATOM      9  H   UNL     1       6.410  -2.175  26.618  0.00  0.00    +0.210 HD
ENDBRANCH   2   8
BRANCH   3  10
ATOM     10  O   UNL     1       8.851  -1.090  26.711  0.00  0.00    -0.386 OA
ATOM     11  H   UNL     1       8.985  -1.992  27.049  0.00  0.00    +0.210 HD
ENDBRANCH   3  10
BRANCH   6  12
ATOM     12  C   UNL     1       9.377  -0.501  21.838  0.00  0.00    +0.337 C 
ATOM     13  O   UNL     1       9.563   0.631  21.417  0.00  0.00    -0.248 OA
BRANCH  12  14
ATOM     14  O   UNL     1       9.982  -1.603  21.314  0.00  0.00    -0.479 OA
ATOM     15  H   UNL     1       9.809  -2.359  21.929  0.00  0.00    +0.295 HD
ENDBRANCH  12  14
ENDBRANCH   6  12
BRANCH   1  16
ATOM     16  C   UNL     1       6.597  -4.087  23.406  0.00  0.00    +0.176 C 
BRANCH  16  17
ATOM     17  O   UNL     1       7.338  -5.022  24.205  0.00  0.00    -0.386 OA
ATOM     18  H   UNL     1       6.703  -5.621  24.633  0.00  0.00    +0.210 HD
ENDBRANCH  16  17
BRANCH  16  19
ATOM     19  C   UNL     1       6.836  -4.387  21.915  0.00  0.00    +0.171 C 
BRANCH  19  20
ATOM     20  O   UNL     1       5.778  -3.836  21.115  0.00  0.00    -0.387 OA
ATOM     21  H   UNL     1       5.195  -3.387  21.763  0.00  0.00    +0.210 HD
ENDBRANCH  19  20
BRANCH  19  22
ATOM     22  C   UNL     1       6.905  -5.891  21.631  0.00  0.00    +0.189 C 
BRANCH  22  23
ATOM     23  O   UNL     1       5.686  -6.488  22.085  0.00  0.00    -0.392 OA
ATOM     24  H   UNL     1       5.923  -7.341  22.490  0.00  0.00    +0.210 HD
ENDBRANCH  22  23
ENDBRANCH  19  22
ENDBRANCH  16  19
ENDBRANCH   1  16
TORSDOF 10
ENDMDL
