MODEL 1
REMARK VINA RESULT:      -4.7      0.000      0.000
REMARK  Name = 
REMARK  26 active torsions:
REMARK  status: ('A' for Active; 'I' for Inactive)
REMARK    1  A    between atoms: C_1  and  C_2
REMARK    2  A    between atoms: C_2  and  O_3
REMARK    3  A    between atoms: O_3  and  C_4
REMARK    4  A    between atoms: C_4  and  C_5
REMARK    5  A    between atoms: C_5  and  O_6
REMARK    6  A    between atoms: O_6  and  C_7
REMARK    7  A    between atoms: C_7  and  C_8
REMARK    8  A    between atoms: C_8  and  O_9
REMARK    9  A    between atoms: O_9  and  C_10
REMARK   10  A    between atoms: C_10  and  C_11
REMARK   11  A    between atoms: C_11  and  O_12
REMARK   12  A    between atoms: O_12  and  C_13
REMARK   13  A    between atoms: C_13  and  C_14
REMARK   14  A    between atoms: C_14  and  O_15
REMARK   15  A    between atoms: O_15  and  C_16
REMARK   16  A    between atoms: C_16  and  C_17
REMARK   17  A    between atoms: C_17  and  O_18
REMARK   18  A    between atoms: O_18  and  C_19
REMARK   19  A    between atoms: C_19  and  C_20
REMARK   20  A    between atoms: C_20  and  O_21
REMARK   21  A    between atoms: O_21  and  C_22
REMARK   22  A    between atoms: C_22  and  C_23
REMARK   23  A    between atoms: C_23  and  O_24
REMARK   24  A    between atoms: O_24  and  C_25
REMARK   25  A    between atoms: C_25  and  C_26
REMARK   26  A    between atoms: C_26  and  O_27
REMARK                            x       y       z     vdW  Elec       q    Type
REMARK                         _______ _______ _______ _____ _____    ______ ____
ROOT
ATOM      1  C   UNL     1       9.021  -2.571  23.367  0.00  0.00    +0.188 C 
ENDROOT
BRANCH   1   2
ATOM      2  O   UNL     1      10.316  -2.352  22.800  0.00  0.00    -0.375 OA
BRANCH   2   3
ATOM      3  C   UNL     1      10.319  -1.239  21.912  0.00  0.00    +0.188 C 
BRANCH   3   4
ATOM      4  C   UNL     1       9.280  -0.227  22.376  0.00  0.00    +0.188 C 
BRANCH   4   5
ATOM      5  O   UNL     1       9.314   0.906  21.509  0.00  0.00    -0.375 OA
BRANCH   5   6
ATOM      6  C   UNL     1       9.094   2.118  22.228  0.00  0.00    +0.188 C 
BRANCH   6   7
ATOM      7  C   UNL     1       9.677   1.977  23.628  0.00  0.00    +0.188 C 
BRANCH   7   8
ATOM      8  O   UNL     1       9.137   2.993  24.469  0.00  0.00    -0.375 OA
BRANCH   8   9
ATOM      9  C   UNL     1       8.993   4.227  23.767  0.00  0.00    +0.188 C 
BRANCH   9  10
ATOM     10  C   UNL     1       9.845   5.289  24.452  0.00  0.00    +0.188 C 
BRANCH  10  11
ATOM     11  O   UNL     1      10.674   5.939  23.488  0.00  0.00    -0.375 OA
BRANCH  11  12
ATOM     12  C   UNL     1      12.051   5.901  23.888  0.00  0.00    +0.187 C 
BRANCH  12  13
ATOM     13  C   UNL     1      12.782   4.894  23.008  0.00  0.00    +0.184 C 
BRANCH  13  14
ATOM     14  O   UNL     1      14.191   5.021  23.188  0.00  0.00    -0.393 OA
ATOM     15  H   UNL     1      14.423   4.359  23.868  0.00  0.00    +0.209 HD
ENDBRANCH  13  14
ENDBRANCH  12  13
ENDBRANCH  11  12
ENDBRANCH  10  11
ENDBRANCH   9  10
ENDBRANCH   8   9
ENDBRANCH   7   8
ENDBRANCH   6   7
ENDBRANCH   5   6
ENDBRANCH   4   5
ENDBRANCH   3   4
ENDBRANCH   2   3
ENDBRANCH   1   2
BRANCH   1  16
ATOM     16  C   UNL     1       9.179  -3.261  24.718  0.00  0.00    +0.188 C 
BRANCH  16  17
ATOM     17  O   UNL     1       9.705  -4.576  24.513  0.00  0.00    -0.375 OA
BRANCH  17  18
ATOM     18  C   UNL     1       9.243  -5.486  25.505  0.00  0.00    +0.188 C 
BRANCH  18  19
ATOM     19  C   UNL     1       8.687  -4.700  26.684  0.00  0.00    +0.188 C 
BRANCH  19  20
ATOM     20  O   UNL     1       7.679  -5.479  27.328  0.00  0.00    -0.375 OA
BRANCH  20  21
ATOM     21  C   UNL     1       6.503  -5.570  26.527  0.00  0.00    +0.188 C 
BRANCH  21  22
ATOM     22  C   UNL     1       5.540  -4.463  26.929  0.00  0.00    +0.188 C 
BRANCH  22  23
ATOM     23  O   UNL     1       4.803  -4.042  25.784  0.00  0.00    -0.375 OA
BRANCH  23  24
ATOM     24  C   UNL     1       5.325  -4.620  24.588  0.00  0.00    +0.188 C 
BRANCH  24  25
ATOM     25  C   UNL     1       4.491  -4.149  23.404  0.00  0.00    +0.188 C 
BRANCH  25  26
ATOM     26  O   UNL     1       4.971  -4.767  22.212  0.00  0.00    -0.378 OA
BRANCH  26  28
ATOM     27  C   UNL     1       6.988  -5.934  21.704  0.00  0.00    +0.034 C 
ATOM     28  C   UNL     1       6.379  -4.595  22.066  0.00  0.00    +0.156 C 
ENDBRANCH  26  28
ENDBRANCH  25  26
ENDBRANCH  24  25
ENDBRANCH  23  24
ENDBRANCH  22  23
ENDBRANCH  21  22
ENDBRANCH  20  21
ENDBRANCH  19  20
ENDBRANCH  18  19
ENDBRANCH  17  18
ENDBRANCH  16  17
ENDBRANCH   1  16
TORSDOF 25
ENDMDL
MODEL 2
REMARK VINA RESULT:      -4.5      1.728      2.442
REMARK  Name = 
REMARK  26 active torsions:
REMARK  status: ('A' for Active; 'I' for Inactive)
REMARK    1  A    between atoms: C_1  and  C_2
REMARK    2  A    between atoms: C_2  and  O_3
REMARK    3  A    between atoms: O_3  and  C_4
REMARK    4  A    between atoms: C_4  and  C_5
REMARK    5  A    between atoms: C_5  and  O_6
REMARK    6  A    between atoms: O_6  and  C_7
REMARK    7  A    between atoms: C_7  and  C_8
REMARK    8  A    between atoms: C_8  and  O_9
REMARK    9  A    between atoms: O_9  and  C_10
REMARK   10  A    between atoms: C_10  and  C_11
REMARK   11  A    between atoms: C_11  and  O_12
REMARK   12  A    between atoms: O_12  and  C_13
REMARK   13  A    between atoms: C_13  and  C_14
REMARK   14  A    between atoms: C_14  and  O_15
REMARK   15  A    between atoms: O_15  and  C_16
REMARK   16  A    between atoms: C_16  and  C_17
REMARK   17  A    between atoms: C_17  and  O_18
REMARK   18  A    between atoms: O_18  and  C_19
REMARK   19  A    between atoms: C_19  and  C_20
REMARK   20  A    between atoms: C_20  and  O_21
REMARK   21  A    between atoms: O_21  and  C_22
REMARK   22  A    between atoms: C_22  and  C_23
REMARK   23  A    between atoms: C_23  and  O_24
REMARK   24  A    between atoms: O_24  and  C_25
REMARK   25  A    between atoms: C_25  and  C_26
REMARK   26  A    between atoms: C_26  and  O_27
REMARK                            x       y       z     vdW  Elec       q    Type
REMARK                         _______ _______ _______ _____ _____    ______ ____
ROOT
ATOM      1  C   UNL     1       9.371  -0.412  22.000  0.00  0.00    +0.188 C 
ENDROOT
BRANCH   1   2
ATOM      2  O   UNL     1      10.081   0.796  21.711  0.00  0.00    -0.375 OA
BRANCH   2   3
ATOM      3  C   UNL     1       9.353   1.946  22.131  0.00  0.00    +0.188 C 
BRANCH   3   4
ATOM      4  C   UNL     1       7.902   1.555  22.380  0.00  0.00    +0.188 C 
BRANCH   4   5
ATOM      5  O   UNL     1       7.499   2.050  23.656  0.00  0.00    -0.375 OA
BRANCH   5   6
ATOM      6  C   UNL     1       8.566   2.734  24.309  0.00  0.00    +0.188 C 
BRANCH   6   7
ATOM      7  C   UNL     1       7.981   3.687  25.344  0.00  0.00    +0.188 C 
BRANCH   7   8
ATOM      8  O   UNL     1       8.500   4.997  25.127  0.00  0.00    -0.375 OA
BRANCH   8   9
ATOM      9  C   UNL     1       8.699   5.253  23.737  0.00  0.00    +0.188 C 
BRANCH   9  10
ATOM     10  C   UNL     1       9.984   6.052  23.560  0.00  0.00    +0.188 C 
BRANCH  10  11
ATOM     11  O   UNL     1      11.079   5.343  24.141  0.00  0.00    -0.375 OA
BRANCH  11  12
ATOM     12  C   UNL     1      12.316   6.030  23.909  0.00  0.00    +0.187 C 
BRANCH  12  13
ATOM     13  C   UNL     1      13.039   5.346  22.754  0.00  0.00    +0.184 C 
BRANCH  13  14
ATOM     14  O   UNL     1      14.389   5.067  23.121  0.00  0.00    -0.393 OA
ATOM     15  H   UNL     1      14.600   5.707  23.829  0.00  0.00    +0.209 HD
ENDBRANCH  13  14
ENDBRANCH  12  13
ENDBRANCH  11  12
ENDBRANCH  10  11
ENDBRANCH   9  10
ENDBRANCH   8   9
ENDBRANCH   7   8
ENDBRANCH   6   7
ENDBRANCH   5   6
ENDBRANCH   4   5
ENDBRANCH   3   4
ENDBRANCH   2   3
ENDBRANCH   1   2
BRANCH   1  16
ATOM     16  C   UNL     1      10.331  -1.413  22.636  0.00  0.00    +0.188 C 
BRANCH  16  17
ATOM     17  O   UNL     1       9.788  -1.854  23.884  0.00  0.00    -0.375 OA
BRANCH  17  18
ATOM     18  C   UNL     1       9.527  -0.760  24.758  0.00  0.00    +0.188 C 
BRANCH  18  19
ATOM     19  C   UNL     1       8.869  -1.281  26.027  0.00  0.00    +0.188 C 
BRANCH  19  20
ATOM     20  O   UNL     1       8.395  -2.607  25.795  0.00  0.00    -0.375 OA
BRANCH  20  21
ATOM     21  C   UNL     1       6.999  -2.616  25.508  0.00  0.00    +0.188 C 
BRANCH  21  22
ATOM     22  C   UNL     1       6.651  -3.899  24.766  0.00  0.00    +0.188 C 
BRANCH  22  23
ATOM     23  O   UNL     1       5.275  -3.870  24.396  0.00  0.00    -0.375 OA
BRANCH  23  24
ATOM     24  C   UNL     1       5.102  -3.359  23.075  0.00  0.00    +0.188 C 
BRANCH  24  25
ATOM     25  C   UNL     1       6.322  -3.720  22.239  0.00  0.00    +0.188 C 
BRANCH  25  26
ATOM     26  O   UNL     1       5.900  -4.369  21.041  0.00  0.00    -0.378 OA
BRANCH  26  28
ATOM     27  C   UNL     1       7.267  -6.116  21.917  0.00  0.00    +0.034 C 
ATOM     28  C   UNL     1       6.001  -5.787  21.154  0.00  0.00    +0.156 C 
ENDBRANCH  26  28
ENDBRANCH  25  26
ENDBRANCH  24  25
ENDBRANCH  23  24
ENDBRANCH  22  23
ENDBRANCH  21  22
ENDBRANCH  20  21
ENDBRANCH  19  20
ENDBRANCH  18  19
ENDBRANCH  17  18
ENDBRANCH  16  17
ENDBRANCH   1  16
TORSDOF 25
ENDMDL
MODEL 3
REMARK VINA RESULT:      -4.4      2.397      3.165
REMARK  Name = 
REMARK  26 active torsions:
REMARK  status: ('A' for Active; 'I' for Inactive)
REMARK    1  A    between atoms: C_1  and  C_2
REMARK    2  A    between atoms: C_2  and  O_3
REMARK    3  A    between atoms: O_3  and  C_4
REMARK    4  A    between atoms: C_4  and  C_5
REMARK    5  A    between atoms: C_5  and  O_6
REMARK    6  A    between atoms: O_6  and  C_7
REMARK    7  A    between atoms: C_7  and  C_8
REMARK    8  A    between atoms: C_8  and  O_9
REMARK    9  A    between atoms: O_9  and  C_10
REMARK   10  A    between atoms: C_10  and  C_11
REMARK   11  A    between atoms: C_11  and  O_12
REMARK   12  A    between atoms: O_12  and  C_13
REMARK   13  A    between atoms: C_13  and  C_14
REMARK   14  A    between atoms: C_14  and  O_15
REMARK   15  A    between atoms: O_15  and  C_16
REMARK   16  A    between atoms: C_16  and  C_17
REMARK   17  A    between atoms: C_17  and  O_18
REMARK   18  A    between atoms: O_18  and  C_19
REMARK   19  A    between atoms: C_19  and  C_20
REMARK   20  A    between atoms: C_20  and  O_21
REMARK   21  A    between atoms: O_21  and  C_22
REMARK   22  A    between atoms: C_22  and  C_23
REMARK   23  A    between atoms: C_23  and  O_24
REMARK   24  A    between atoms: O_24  and  C_25
REMARK   25  A    between atoms: C_25  and  C_26
REMARK   26  A    between atoms: C_26  and  O_27
REMARK                            x       y       z     vdW  Elec       q    Type
REMARK                         _______ _______ _______ _____ _____    ______ ____
ROOT
ATOM      1  C   UNL     1       9.015  -3.719  25.006  0.00  0.00    +0.188 C 
ENDROOT
BRANCH   1   2
ATOM      2  O   UNL     1       9.932  -3.219  24.028  0.00  0.00    -0.375 OA
BRANCH   2   3
ATOM      3  C   UNL     1       9.312  -2.274  23.163  0.00  0.00    +0.188 C 
BRANCH   3   4
ATOM      4  C   UNL     1      10.390  -1.463  22.456  0.00  0.00    +0.188 C 
BRANCH   4   5
ATOM      5  O   UNL     1      10.038  -0.081  22.502  0.00  0.00    -0.375 OA
BRANCH   5   6
ATOM      6  C   UNL     1       9.113   0.256  21.471  0.00  0.00    +0.188 C 
BRANCH   6   7
ATOM      7  C   UNL     1       8.732   1.724  21.609  0.00  0.00    +0.188 C 
BRANCH   7   8
ATOM      8  O   UNL     1       7.325   1.829  21.818  0.00  0.00    -0.375 OA
BRANCH   8   9
ATOM      9  C   UNL     1       7.019   2.061  23.192  0.00  0.00    +0.188 C 
BRANCH   9  10
ATOM     10  C   UNL     1       8.069   2.995  23.781  0.00  0.00    +0.188 C 
BRANCH  10  11
ATOM     11  O   UNL     1       8.754   2.339  24.851  0.00  0.00    -0.375 OA
BRANCH  11  12
ATOM     12  C   UNL     1       7.874   1.450  25.552  0.00  0.00    +0.187 C 
BRANCH  12  13
ATOM     13  C   UNL     1       8.587   0.116  25.743  0.00  0.00    +0.184 C 
BRANCH  13  14
ATOM     14  O   UNL     1       9.993   0.285  25.569  0.00  0.00    -0.393 OA
ATOM     15  H   UNL     1      10.092   0.732  24.705  0.00  0.00    +0.209 HD
ENDBRANCH  13  14
ENDBRANCH  12  13
ENDBRANCH  11  12
ENDBRANCH  10  11
ENDBRANCH   9  10
ENDBRANCH   8   9
ENDBRANCH   7   8
ENDBRANCH   6   7
ENDBRANCH   5   6
ENDBRANCH   4   5
ENDBRANCH   3   4
ENDBRANCH   2   3
ENDBRANCH   1   2
BRANCH   1  16
ATOM     16  C   UNL     1       8.790  -5.208  24.763  0.00  0.00    +0.188 C 
BRANCH  16  17
ATOM     17  O   UNL     1       8.342  -5.818  25.978  0.00  0.00    -0.375 OA
BRANCH  17  18
ATOM     18  C   UNL     1       7.916  -4.846  26.926  0.00  0.00    +0.188 C 
BRANCH  18  19
ATOM     19  C   UNL     1       6.500  -5.176  27.378  0.00  0.00    +0.188 C 
BRANCH  19  20
ATOM     20  O   UNL     1       6.050  -6.339  26.684  0.00  0.00    -0.375 OA
BRANCH  20  21
ATOM     21  C   UNL     1       4.776  -6.766  27.161  0.00  0.00    +0.188 C 
BRANCH  21  22
ATOM     22  C   UNL     1       3.853  -7.000  25.974  0.00  0.00    +0.188 C 
BRANCH  22  23
ATOM     23  O   UNL     1       4.604  -6.897  24.767  0.00  0.00    -0.375 OA
BRANCH  23  24
ATOM     24  C   UNL     1       3.828  -6.321  23.718  0.00  0.00    +0.188 C 
BRANCH  24  25
ATOM     25  C   UNL     1       4.545  -5.086  23.189  0.00  0.00    +0.188 C 
BRANCH  25  26
ATOM     26  O   UNL     1       5.189  -5.404  21.957  0.00  0.00    -0.378 OA
BRANCH  26  28
ATOM     27  C   UNL     1       5.766  -3.092  22.027  0.00  0.00    +0.034 C 
ATOM     28  C   UNL     1       6.239  -4.484  21.667  0.00  0.00    +0.156 C 
ENDBRANCH  26  28
ENDBRANCH  25  26
ENDBRANCH  24  25
ENDBRANCH  23  24
ENDBRANCH  22  23
ENDBRANCH  21  22
ENDBRANCH  20  21
ENDBRANCH  19  20
ENDBRANCH  18  19
ENDBRANCH  17  18
ENDBRANCH  16  17
ENDBRANCH   1  16
TORSDOF 25
ENDMDL
MODEL 4
REMARK VINA RESULT:      -4.4      2.121      7.840
REMARK  Name = 
REMARK  26 active torsions:
REMARK  status: ('A' for Active; 'I' for Inactive)
REMARK    1  A    between atoms: C_1  and  C_2
REMARK    2  A    between atoms: C_2  and  O_3
REMARK    3  A    between atoms: O_3  and  C_4
REMARK    4  A    between atoms: C_4  and  C_5
REMARK    5  A    between atoms: C_5  and  O_6
REMARK    6  A    between atoms: O_6  and  C_7
REMARK    7  A    between atoms: C_7  and  C_8
REMARK    8  A    between atoms: C_8  and  O_9
REMARK    9  A    between atoms: O_9  and  C_10
REMARK   10  A    between atoms: C_10  and  C_11
REMARK   11  A    between atoms: C_11  and  O_12
REMARK   12  A    between atoms: O_12  and  C_13
REMARK   13  A    between atoms: C_13  and  C_14
REMARK   14  A    between atoms: C_14  and  O_15
REMARK   15  A    between atoms: O_15  and  C_16
REMARK   16  A    between atoms: C_16  and  C_17
REMARK   17  A    between atoms: C_17  and  O_18
REMARK   18  A    between atoms: O_18  and  C_19
REMARK   19  A    between atoms: C_19  and  C_20
REMARK   20  A    between atoms: C_20  and  O_21
REMARK   21  A    between atoms: O_21  and  C_22
REMARK   22  A    between atoms: C_22  and  C_23
REMARK   23  A    between atoms: C_23  and  O_24
REMARK   24  A    between atoms: O_24  and  C_25
REMARK   25  A    between atoms: C_25  and  C_26
REMARK   26  A    between atoms: C_26  and  O_27
REMARK                            x       y       z     vdW  Elec       q    Type
REMARK                         _______ _______ _______ _____ _____    ______ ____
ROOT
ATOM      1  C   UNL     1       9.635   1.361  21.982  0.00  0.00    +0.188 C 
ENDROOT
BRANCH   1   2
ATOM      2  O   UNL     1       9.569  -0.047  21.738  0.00  0.00    -0.375 OA
BRANCH   2   3
ATOM      3  C   UNL     1      10.109  -0.794  22.823  0.00  0.00    +0.188 C 
BRANCH   3   4
ATOM      4  C   UNL     1       9.586  -2.223  22.756  0.00  0.00    +0.188 C 
BRANCH   4   5
ATOM      5  O   UNL     1      10.099  -2.959  23.866  0.00  0.00    -0.375 OA
BRANCH   5   6
ATOM      6  C   UNL     1       9.071  -3.703  24.516  0.00  0.00    +0.188 C 
BRANCH   6   7
ATOM      7  C   UNL     1       9.710  -4.816  25.336  0.00  0.00    +0.188 C 
BRANCH   7   8
ATOM      8  O   UNL     1       8.761  -5.313  26.278  0.00  0.00    -0.375 OA
BRANCH   8   9
ATOM      9  C   UNL     1       7.657  -4.420  26.424  0.00  0.00    +0.188 C 
BRANCH   9  10
ATOM     10  C   UNL     1       6.712  -4.972  27.484  0.00  0.00    +0.188 C 
BRANCH  10  11
ATOM     11  O   UNL     1       6.359  -6.318  27.164  0.00  0.00    -0.375 OA
BRANCH  11  12
ATOM     12  C   UNL     1       5.272  -6.354  26.229  0.00  0.00    +0.187 C 
BRANCH  12  13
ATOM     13  C   UNL     1       4.008  -6.770  26.974  0.00  0.00    +0.184 C 
BRANCH  13  14
ATOM     14  O   UNL     1       4.351  -7.350  28.231  0.00  0.00    -0.393 OA
ATOM     15  H   UNL     1       4.520  -6.592  28.825  0.00  0.00    +0.209 HD
ENDBRANCH  13  14
ENDBRANCH  12  13
ENDBRANCH  11  12
ENDBRANCH  10  11
ENDBRANCH   9  10
ENDBRANCH   8   9
ENDBRANCH   7   8
ENDBRANCH   6   7
ENDBRANCH   5   6
ENDBRANCH   4   5
ENDBRANCH   3   4
ENDBRANCH   2   3
ENDBRANCH   1   2
BRANCH   1  16
ATOM     16  C   UNL     1      10.471   1.611  23.234  0.00  0.00    +0.188 C 
BRANCH  16  17
ATOM     17  O   UNL     1       9.955   2.756  23.920  0.00  0.00    -0.375 OA
BRANCH  17  18
ATOM     18  C   UNL     1       8.534   2.812  23.852  0.00  0.00    +0.188 C 
BRANCH  18  19
ATOM     19  C   UNL     1       7.958   2.551  25.236  0.00  0.00    +0.188 C 
BRANCH  19  20
ATOM     20  O   UNL     1       7.646   1.163  25.355  0.00  0.00    -0.375 OA
BRANCH  20  21
ATOM     21  C   UNL     1       6.694   0.759  24.374  0.00  0.00    +0.188 C 
BRANCH  21  22
ATOM     22  C   UNL     1       6.466  -0.741  24.490  0.00  0.00    +0.188 C 
BRANCH  22  23
ATOM     23  O   UNL     1       6.338  -1.299  23.185  0.00  0.00    -0.375 OA
BRANCH  23  24
ATOM     24  C   UNL     1       5.782  -2.612  23.233  0.00  0.00    +0.188 C 
BRANCH  24  25
ATOM     25  C   UNL     1       5.773  -3.200  21.828  0.00  0.00    +0.188 C 
BRANCH  25  26
ATOM     26  O   UNL     1       5.223  -4.515  21.868  0.00  0.00    -0.378 OA
BRANCH  26  28
ATOM     27  C   UNL     1       7.120  -5.960  21.872  0.00  0.00    +0.034 C 
ATOM     28  C   UNL     1       5.994  -5.377  22.701  0.00  0.00    +0.156 C 
ENDBRANCH  26  28
ENDBRANCH  25  26
ENDBRANCH  24  25
ENDBRANCH  23  24
ENDBRANCH  22  23
ENDBRANCH  21  22
ENDBRANCH  20  21
ENDBRANCH  19  20
ENDBRANCH  18  19
ENDBRANCH  17  18
ENDBRANCH  16  17
ENDBRANCH   1  16
TORSDOF 25
ENDMDL
MODEL 5
REMARK VINA RESULT:      -4.4      2.018      3.880
REMARK  Name = 
REMARK  26 active torsions:
REMARK  status: ('A' for Active; 'I' for Inactive)
REMARK    1  A    between atoms: C_1  and  C_2
REMARK    2  A    between atoms: C_2  and  O_3
REMARK    3  A    between atoms: O_3  and  C_4
REMARK    4  A    between atoms: C_4  and  C_5
REMARK    5  A    between atoms: C_5  and  O_6
REMARK    6  A    between atoms: O_6  and  C_7
REMARK    7  A    between atoms: C_7  and  C_8
REMARK    8  A    between atoms: C_8  and  O_9
REMARK    9  A    between atoms: O_9  and  C_10
REMARK   10  A    between atoms: C_10  and  C_11
REMARK   11  A    between atoms: C_11  and  O_12
REMARK   12  A    between atoms: O_12  and  C_13
REMARK   13  A    between atoms: C_13  and  C_14
REMARK   14  A    between atoms: C_14  and  O_15
REMARK   15  A    between atoms: O_15  and  C_16
REMARK   16  A    between atoms: C_16  and  C_17
REMARK   17  A    between atoms: C_17  and  O_18
REMARK   18  A    between atoms: O_18  and  C_19
REMARK   19  A    between atoms: C_19  and  C_20
REMARK   20  A    between atoms: C_20  and  O_21
REMARK   21  A    between atoms: O_21  and  C_22
REMARK   22  A    between atoms: C_22  and  C_23
REMARK   23  A    between atoms: C_23  and  O_24
REMARK   24  A    between atoms: O_24  and  C_25
REMARK   25  A    between atoms: C_25  and  C_26
REMARK   26  A    between atoms: C_26  and  O_27
REMARK                            x       y       z     vdW  Elec       q    Type
REMARK                         _______ _______ _______ _____ _____    ______ ____
ROOT
ATOM      1  C   UNL     1       7.383  -4.016  22.398  0.00  0.00    +0.188 C 
ENDROOT
BRANCH   1   2
ATOM      2  O   UNL     1       8.268  -3.067  23.001  0.00  0.00    -0.375 OA
BRANCH   2   3
ATOM      3  C   UNL     1       8.396  -1.891  22.210  0.00  0.00    +0.188 C 
BRANCH   3   4
ATOM      4  C   UNL     1       9.869  -1.520  22.101  0.00  0.00    +0.188 C 
BRANCH   4   5
ATOM      5  O   UNL     1      10.044  -0.176  22.547  0.00  0.00    -0.375 OA
BRANCH   5   6
ATOM      6  C   UNL     1      10.495  -0.131  23.899  0.00  0.00    +0.188 C 
BRANCH   6   7
ATOM      7  C   UNL     1      10.124   1.219  24.499  0.00  0.00    +0.188 C 
BRANCH   7   8
ATOM      8  O   UNL     1      10.818   2.252  23.802  0.00  0.00    -0.375 OA
BRANCH   8   9
ATOM      9  C   UNL     1      10.041   3.448  23.738  0.00  0.00    +0.188 C 
BRANCH   9  10
ATOM     10  C   UNL     1       8.563   3.079  23.766  0.00  0.00    +0.188 C 
BRANCH  10  11
ATOM     11  O   UNL     1       7.816   4.017  22.988  0.00  0.00    -0.375 OA
BRANCH  11  12
ATOM     12  C   UNL     1       7.100   3.356  21.937  0.00  0.00    +0.187 C 
BRANCH  12  13
ATOM     13  C   UNL     1       7.418   1.866  21.999  0.00  0.00    +0.184 C 
BRANCH  13  14
ATOM     14  O   UNL     1       8.299   1.510  20.935  0.00  0.00    -0.393 OA
ATOM     15  H   UNL     1       8.018   2.059  20.177  0.00  0.00    +0.209 HD
ENDBRANCH  13  14
ENDBRANCH  12  13
ENDBRANCH  11  12
ENDBRANCH  10  11
ENDBRANCH   9  10
ENDBRANCH   8   9
ENDBRANCH   7   8
ENDBRANCH   6   7
ENDBRANCH   5   6
ENDBRANCH   4   5
ENDBRANCH   3   4
ENDBRANCH   2   3
ENDBRANCH   1   2
BRANCH   1  16
ATOM     16  C   UNL     1       6.055  -3.331  22.090  0.00  0.00    +0.188 C 
BRANCH  16  17
ATOM     17  O   UNL     1       5.021  -4.319  22.035  0.00  0.00    -0.375 OA
BRANCH  17  18
ATOM     18  C   UNL     1       5.391  -5.505  22.732  0.00  0.00    +0.188 C 
BRANCH  18  19
ATOM     19  C   UNL     1       4.163  -6.084  23.420  0.00  0.00    +0.188 C 
BRANCH  19  20
ATOM     20  O   UNL     1       4.559  -7.200  24.216  0.00  0.00    -0.375 OA
BRANCH  20  21
ATOM     21  C   UNL     1       3.823  -7.254  25.436  0.00  0.00    +0.188 C 
BRANCH  21  22
ATOM     22  C   UNL     1       4.729  -6.830  26.583  0.00  0.00    +0.188 C 
BRANCH  22  23
ATOM     23  O   UNL     1       4.516  -5.450  26.865  0.00  0.00    -0.375 OA
BRANCH  23  24
ATOM     24  C   UNL     1       5.727  -4.805  27.256  0.00  0.00    +0.188 C 
BRANCH  24  25
ATOM     25  C   UNL     1       6.246  -3.972  26.092  0.00  0.00    +0.188 C 
BRANCH  25  26
ATOM     26  O   UNL     1       7.672  -3.958  26.118  0.00  0.00    -0.378 OA
BRANCH  26  28
ATOM     27  C   UNL     1       9.646  -5.132  25.477  0.00  0.00    +0.034 C 
ATOM     28  C   UNL     1       8.208  -5.267  25.934  0.00  0.00    +0.156 C 
ENDBRANCH  26  28
ENDBRANCH  25  26
ENDBRANCH  24  25
ENDBRANCH  23  24
ENDBRANCH  22  23
ENDBRANCH  21  22
ENDBRANCH  20  21
ENDBRANCH  19  20
ENDBRANCH  18  19
ENDBRANCH  17  18
ENDBRANCH  16  17
ENDBRANCH   1  16
TORSDOF 25
ENDMDL
MODEL 6
REMARK VINA RESULT:      -4.4      1.937      8.942
REMARK  Name = 
REMARK  26 active torsions:
REMARK  status: ('A' for Active; 'I' for Inactive)
REMARK    1  A    between atoms: C_1  and  C_2
REMARK    2  A    between atoms: C_2  and  O_3
REMARK    3  A    between atoms: O_3  and  C_4
REMARK    4  A    between atoms: C_4  and  C_5
REMARK    5  A    between atoms: C_5  and  O_6
REMARK    6  A    between atoms: O_6  and  C_7
REMARK    7  A    between atoms: C_7  and  C_8
REMARK    8  A    between atoms: C_8  and  O_9
REMARK    9  A    between atoms: O_9  and  C_10
REMARK   10  A    between atoms: C_10  and  C_11
REMARK   11  A    between atoms: C_11  and  O_12
REMARK   12  A    between atoms: O_12  and  C_13
REMARK   13  A    between atoms: C_13  and  C_14
REMARK   14  A    between atoms: C_14  and  O_15
REMARK   15  A    between atoms: O_15  and  C_16
REMARK   16  A    between atoms: C_16  and  C_17
REMARK   17  A    between atoms: C_17  and  O_18
REMARK   18  A    between atoms: O_18  and  C_19
REMARK   19  A    between atoms: C_19  and  C_20
REMARK   20  A    between atoms: C_20  and  O_21
REMARK   21  A    between atoms: O_21  and  C_22
REMARK   22  A    between atoms: C_22  and  C_23
REMARK   23  A    between atoms: C_23  and  O_24
REMARK   24  A    between atoms: O_24  and  C_25
REMARK   25  A    between atoms: C_25  and  C_26
REMARK   26  A    between atoms: C_26  and  O_27
REMARK                            x       y       z     vdW  Elec       q    Type
REMARK                         _______ _______ _______ _____ _____    ______ ____
ROOT
ATOM      1  C   UNL     1       3.759  -4.638  24.017  0.00  0.00    +0.188 C 
ENDROOT
BRANCH   1   2
ATOM      2  O   UNL     1       4.245  -4.715  22.673  0.00  0.00    -0.375 OA
BRANCH   2   3
ATOM      3  C   UNL     1       5.150  -5.800  22.504  0.00  0.00    +0.188 C 
BRANCH   3   4
ATOM      4  C   UNL     1       6.092  -5.489  21.348  0.00  0.00    +0.188 C 
BRANCH   4   5
ATOM      5  O   UNL     1       7.309  -4.957  21.869  0.00  0.00    -0.375 OA
BRANCH   5   6
ATOM      6  C   UNL     1       7.731  -5.664  23.032  0.00  0.00    +0.188 C 
BRANCH   6   7
ATOM      7  C   UNL     1       8.252  -4.665  24.057  0.00  0.00    +0.188 C 
BRANCH   7   8
ATOM      8  O   UNL     1       9.530  -5.092  24.526  0.00  0.00    -0.375 OA
BRANCH   8   9
ATOM      9  C   UNL     1       9.518  -5.312  25.936  0.00  0.00    +0.188 C 
BRANCH   9  10
ATOM     10  C   UNL     1       8.193  -4.820  26.503  0.00  0.00    +0.188 C 
BRANCH  10  11
ATOM     11  O   UNL     1       7.818  -5.623  27.624  0.00  0.00    -0.375 OA
BRANCH  11  12
ATOM     12  C   UNL     1       6.416  -5.498  27.897  0.00  0.00    +0.187 C 
BRANCH  12  13
ATOM     13  C   UNL     1       6.053  -6.474  29.010  0.00  0.00    +0.184 C 
BRANCH  13  14
ATOM     14  O   UNL     1       5.411  -7.623  28.461  0.00  0.00    -0.393 OA
ATOM     15  H   UNL     1       5.798  -8.384  28.936  0.00  0.00    +0.209 HD
ENDBRANCH  13  14
ENDBRANCH  12  13
ENDBRANCH  11  12
ENDBRANCH  10  11
ENDBRANCH   9  10
ENDBRANCH   8   9
ENDBRANCH   7   8
ENDBRANCH   6   7
ENDBRANCH   5   6
ENDBRANCH   4   5
ENDBRANCH   3   4
ENDBRANCH   2   3
ENDBRANCH   1   2
BRANCH   1  16
ATOM     16  C   UNL     1       4.741  -3.827  24.856  0.00  0.00    +0.188 C 
BRANCH  16  17
ATOM     17  O   UNL     1       4.649  -2.449  24.481  0.00  0.00    -0.375 OA
BRANCH  17  18
ATOM     18  C   UNL     1       5.936  -1.862  24.320  0.00  0.00    +0.188 C 
BRANCH  18  19
ATOM     19  C   UNL     1       6.282  -1.817  22.838  0.00  0.00    +0.188 C 
BRANCH  19  20
ATOM     20  O   UNL     1       7.690  -1.629  22.695  0.00  0.00    -0.375 OA
BRANCH  20  21
ATOM     21  C   UNL     1       8.025  -0.244  22.641  0.00  0.00    +0.188 C 
BRANCH  21  22
ATOM     22  C   UNL     1       9.138  -0.041  21.623  0.00  0.00    +0.188 C 
BRANCH  22  23
ATOM     23  O   UNL     1      10.239   0.608  22.254  0.00  0.00    -0.375 OA
BRANCH  23  24
ATOM     24  C   UNL     1      10.024   2.014  22.358  0.00  0.00    +0.188 C 
BRANCH  24  25
ATOM     25  C   UNL     1      10.185   2.435  23.812  0.00  0.00    +0.188 C 
BRANCH  25  26
ATOM     26  O   UNL     1       9.693   3.764  23.978  0.00  0.00    -0.378 OA
BRANCH  26  28
ATOM     27  C   UNL     1       7.964   5.356  23.574  0.00  0.00    +0.034 C 
ATOM     28  C   UNL     1       8.442   3.942  23.317  0.00  0.00    +0.156 C 
ENDBRANCH  26  28
ENDBRANCH  25  26
ENDBRANCH  24  25
ENDBRANCH  23  24
ENDBRANCH  22  23
ENDBRANCH  21  22
ENDBRANCH  20  21
ENDBRANCH  19  20
ENDBRANCH  18  19
ENDBRANCH  17  18
ENDBRANCH  16  17
ENDBRANCH   1  16
TORSDOF 25
ENDMDL
MODEL 7
REMARK VINA RESULT:      -4.3      1.748      3.124
REMARK  Name = 
REMARK  26 active torsions:
REMARK  status: ('A' for Active; 'I' for Inactive)
REMARK    1  A    between atoms: C_1  and  C_2
REMARK    2  A    between atoms: C_2  and  O_3
REMARK    3  A    between atoms: O_3  and  C_4
REMARK    4  A    between atoms: C_4  and  C_5
REMARK    5  A    between atoms: C_5  and  O_6
REMARK    6  A    between atoms: O_6  and  C_7
REMARK    7  A    between atoms: C_7  and  C_8
REMARK    8  A    between atoms: C_8  and  O_9
REMARK    9  A    between atoms: O_9  and  C_10
REMARK   10  A    between atoms: C_10  and  C_11
REMARK   11  A    between atoms: C_11  and  O_12
REMARK   12  A    between atoms: O_12  and  C_13
REMARK   13  A    between atoms: C_13  and  C_14
REMARK   14  A    between atoms: C_14  and  O_15
REMARK   15  A    between atoms: O_15  and  C_16
REMARK   16  A    between atoms: C_16  and  C_17
REMARK   17  A    between atoms: C_17  and  O_18
REMARK   18  A    between atoms: O_18  and  C_19
REMARK   19  A    between atoms: C_19  and  C_20
REMARK   20  A    between atoms: C_20  and  O_21
REMARK   21  A    between atoms: O_21  and  C_22
REMARK   22  A    between atoms: C_22  and  C_23
REMARK   23  A    between atoms: C_23  and  O_24
REMARK   24  A    between atoms: O_24  and  C_25
REMARK   25  A    between atoms: C_25  and  C_26
REMARK   26  A    between atoms: C_26  and  O_27
REMARK                            x       y       z     vdW  Elec       q    Type
REMARK                         _______ _______ _______ _____ _____    ______ ____
ROOT
ATOM      1  C   UNL     1       9.247  -1.533  21.764  0.00  0.00    +0.188 C 
ENDROOT
BRANCH   1   2
ATOM      2  O   UNL     1      10.188  -1.162  22.775  0.00  0.00    -0.375 OA
BRANCH   2   3
ATOM      3  C   UNL     1      10.274   0.252  22.919  0.00  0.00    +0.188 C 
BRANCH   3   4
ATOM      4  C   UNL     1      10.424   0.595  24.396  0.00  0.00    +0.188 C 
BRANCH   4   5
ATOM      5  O   UNL     1       9.873   1.889  24.631  0.00  0.00    -0.375 OA
BRANCH   5   6
ATOM      6  C   UNL     1       8.529   1.976  24.163  0.00  0.00    +0.188 C 
BRANCH   6   7
ATOM      7  C   UNL     1       8.057   3.420  24.279  0.00  0.00    +0.188 C 
BRANCH   7   8
ATOM      8  O   UNL     1       9.092   4.210  24.862  0.00  0.00    -0.375 OA
BRANCH   8   9
ATOM      9  C   UNL     1       8.662   5.553  25.076  0.00  0.00    +0.188 C 
BRANCH   9  10
ATOM     10  C   UNL     1       9.859   6.485  24.932  0.00  0.00    +0.188 C 
BRANCH  10  11
ATOM     11  O   UNL     1      10.565   6.182  23.728  0.00  0.00    -0.375 OA
BRANCH  11  12
ATOM     12  C   UNL     1      11.959   5.970  23.991  0.00  0.00    +0.187 C 
BRANCH  12  13
ATOM     13  C   UNL     1      12.423   4.758  23.191  0.00  0.00    +0.184 C 
BRANCH  13  14
ATOM     14  O   UNL     1      11.325   3.877  22.960  0.00  0.00    -0.393 OA
ATOM     15  H   UNL     1      11.283   3.306  23.752  0.00  0.00    +0.209 HD
ENDBRANCH  13  14
ENDBRANCH  12  13
ENDBRANCH  11  12
ENDBRANCH  10  11
ENDBRANCH   9  10
ENDBRANCH   8   9
ENDBRANCH   7   8
ENDBRANCH   6   7
ENDBRANCH   5   6
ENDBRANCH   4   5
ENDBRANCH   3   4
ENDBRANCH   2   3
ENDBRANCH   1   2
BRANCH   1  16
ATOM     16  C   UNL     1       8.143  -2.376  22.396  0.00  0.00    +0.188 C 
BRANCH  16  17
ATOM     17  O   UNL     1       7.230  -1.512  23.081  0.00  0.00    -0.375 OA
BRANCH  17  18
ATOM     18  C   UNL     1       6.540  -2.197  24.120  0.00  0.00    +0.188 C 
BRANCH  18  19
ATOM     19  C   UNL     1       5.538  -3.162  23.502  0.00  0.00    +0.188 C 
BRANCH  19  20
ATOM     20  O   UNL     1       5.762  -4.468  24.033  0.00  0.00    -0.375 OA
BRANCH  20  21
ATOM     21  C   UNL     1       4.579  -4.995  24.629  0.00  0.00    +0.188 C 
BRANCH  21  22
ATOM     22  C   UNL     1       4.777  -6.479  24.902  0.00  0.00    +0.188 C 
BRANCH  22  23
ATOM     23  O   UNL     1       5.579  -6.639  26.070  0.00  0.00    -0.375 OA
BRANCH  23  24
ATOM     24  C   UNL     1       5.202  -5.716  27.091  0.00  0.00    +0.188 C 
BRANCH  24  25
ATOM     25  C   UNL     1       6.457  -5.095  27.688  0.00  0.00    +0.188 C 
BRANCH  25  26
ATOM     26  O   UNL     1       7.609  -5.726  27.132  0.00  0.00    -0.378 OA
BRANCH  26  28
ATOM     27  C   UNL     1       8.995  -5.221  25.258  0.00  0.00    +0.034 C 
ATOM     28  C   UNL     1       8.537  -4.768  26.629  0.00  0.00    +0.156 C 
ENDBRANCH  26  28
ENDBRANCH  25  26
ENDBRANCH  24  25
ENDBRANCH  23  24
ENDBRANCH  22  23
ENDBRANCH  21  22
ENDBRANCH  20  21
ENDBRANCH  19  20
ENDBRANCH  18  19
ENDBRANCH  17  18
ENDBRANCH  16  17
ENDBRANCH   1  16
TORSDOF 25
ENDMDL
MODEL 8
REMARK VINA RESULT:      -4.3      2.240      3.397
REMARK  Name = 
REMARK  26 active torsions:
REMARK  status: ('A' for Active; 'I' for Inactive)
REMARK    1  A    between atoms: C_1  and  C_2
REMARK    2  A    between atoms: C_2  and  O_3
REMARK    3  A    between atoms: O_3  and  C_4
REMARK    4  A    between atoms: C_4  and  C_5
REMARK    5  A    between atoms: C_5  and  O_6
REMARK    6  A    between atoms: O_6  and  C_7
REMARK    7  A    between atoms: C_7  and  C_8
REMARK    8  A    between atoms: C_8  and  O_9
REMARK    9  A    between atoms: O_9  and  C_10
REMARK   10  A    between atoms: C_10  and  C_11
REMARK   11  A    between atoms: C_11  and  O_12
REMARK   12  A    between atoms: O_12  and  C_13
REMARK   13  A    between atoms: C_13  and  C_14
REMARK   14  A    between atoms: C_14  and  O_15
REMARK   15  A    between atoms: O_15  and  C_16
REMARK   16  A    between atoms: C_16  and  C_17
REMARK   17  A    between atoms: C_17  and  O_18
REMARK   18  A    between atoms: O_18  and  C_19
REMARK   19  A    between atoms: C_19  and  C_20
REMARK   20  A    between atoms: C_20  and  O_21
REMARK   21  A    between atoms: O_21  and  C_22
REMARK   22  A    between atoms: C_22  and  C_23
REMARK   23  A    between atoms: C_23  and  O_24
REMARK   24  A    between atoms: O_24  and  C_25
REMARK   25  A    between atoms: C_25  and  C_26
REMARK   26  A    between atoms: C_26  and  O_27
REMARK                            x       y       z     vdW  Elec       q    Type
REMARK                         _______ _______ _______ _____ _____    ______ ____
ROOT
ATOM      1  C   UNL     1       9.732  -2.926  24.181  0.00  0.00    +0.188 C 
ENDROOT
BRANCH   1   2
ATOM      2  O   UNL     1      10.005  -1.777  23.374  0.00  0.00    -0.375 OA
BRANCH   2   3
ATOM      3  C   UNL     1       9.170  -1.735  22.222  0.00  0.00    +0.188 C 
BRANCH   3   4
ATOM      4  C   UNL     1       9.449  -0.452  21.449  0.00  0.00    +0.188 C 
BRANCH   4   5
ATOM      5  O   UNL     1       8.521   0.550  21.860  0.00  0.00    -0.375 OA
BRANCH   5   6
ATOM      6  C   UNL     1       9.144   1.830  21.952  0.00  0.00    +0.188 C 
BRANCH   6   7
ATOM      7  C   UNL     1       9.857   1.937  23.293  0.00  0.00    +0.188 C 
BRANCH   7   8
ATOM      8  O   UNL     1       8.918   1.725  24.346  0.00  0.00    -0.375 OA
BRANCH   8   9
ATOM      9  C   UNL     1       8.542   2.956  24.962  0.00  0.00    +0.188 C 
BRANCH   9  10
ATOM     10  C   UNL     1       7.383   2.698  25.917  0.00  0.00    +0.188 C 
BRANCH  10  11
ATOM     11  O   UNL     1       6.268   2.173  25.194  0.00  0.00    -0.375 OA
BRANCH  11  12
ATOM     12  C   UNL     1       5.790   0.964  25.798  0.00  0.00    +0.187 C 
BRANCH  12  13
ATOM     13  C   UNL     1       5.830  -0.146  24.754  0.00  0.00    +0.184 C 
BRANCH  13  14
ATOM     14  O   UNL     1       6.282   0.374  23.505  0.00  0.00    -0.393 OA
ATOM     15  H   UNL     1       7.217   0.099  23.437  0.00  0.00    +0.209 HD
ENDBRANCH  13  14
ENDBRANCH  12  13
ENDBRANCH  11  12
ENDBRANCH  10  11
ENDBRANCH   9  10
ENDBRANCH   8   9
ENDBRANCH   7   8
ENDBRANCH   6   7
ENDBRANCH   5   6
ENDBRANCH   4   5
ENDBRANCH   3   4
ENDBRANCH   2   3
ENDBRANCH   1   2
BRANCH   1  16
ATOM     16  C   UNL     1       8.437  -2.694  24.955  0.00  0.00    +0.188 C 
BRANCH  16  17
ATOM     17  O   UNL     1       8.622  -3.114  26.311  0.00  0.00    -0.375 OA
BRANCH  17  18
ATOM     18  C   UNL     1       8.992  -4.487  26.389  0.00  0.00    +0.188 C 
BRANCH  18  19
ATOM     19  C   UNL     1       7.806  -5.296  26.893  0.00  0.00    +0.188 C 
BRANCH  19  20
ATOM     20  O   UNL     1       6.933  -4.435  27.625  0.00  0.00    -0.375 OA
BRANCH  20  21
ATOM     21  C   UNL     1       5.579  -4.594  27.208  0.00  0.00    +0.188 C 
BRANCH  21  22
ATOM     22  C   UNL     1       5.033  -3.243  26.767  0.00  0.00    +0.188 C 
BRANCH  22  23
ATOM     23  O   UNL     1       4.347  -3.395  25.527  0.00  0.00    -0.375 OA
BRANCH  23  24
ATOM     24  C   UNL     1       5.095  -4.195  24.613  0.00  0.00    +0.188 C 
BRANCH  24  25
ATOM     25  C   UNL     1       5.060  -3.542  23.238  0.00  0.00    +0.188 C 
BRANCH  25  26
ATOM     26  O   UNL     1       4.604  -4.491  22.275  0.00  0.00    -0.378 OA
BRANCH  26  28
ATOM     27  C   UNL     1       6.362  -5.682  21.192  0.00  0.00    +0.034 C 
ATOM     28  C   UNL     1       5.364  -5.696  22.331  0.00  0.00    +0.156 C 
ENDBRANCH  26  28
ENDBRANCH  25  26
ENDBRANCH  24  25
ENDBRANCH  23  24
ENDBRANCH  22  23
ENDBRANCH  21  22
ENDBRANCH  20  21
ENDBRANCH  19  20
ENDBRANCH  18  19
ENDBRANCH  17  18
ENDBRANCH  16  17
ENDBRANCH   1  16
TORSDOF 25
ENDMDL
MODEL 9
REMARK VINA RESULT:      -4.3      2.468      4.022
REMARK  Name = 
REMARK  26 active torsions:
REMARK  status: ('A' for Active; 'I' for Inactive)
REMARK    1  A    between atoms: C_1  and  C_2
REMARK    2  A    between atoms: C_2  and  O_3
REMARK    3  A    between atoms: O_3  and  C_4
REMARK    4  A    between atoms: C_4  and  C_5
REMARK    5  A    between atoms: C_5  and  O_6
REMARK    6  A    between atoms: O_6  and  C_7
REMARK    7  A    between atoms: C_7  and  C_8
REMARK    8  A    between atoms: C_8  and  O_9
REMARK    9  A    between atoms: O_9  and  C_10
REMARK   10  A    between atoms: C_10  and  C_11
REMARK   11  A    between atoms: C_11  and  O_12
REMARK   12  A    between atoms: O_12  and  C_13
REMARK   13  A    between atoms: C_13  and  C_14
REMARK   14  A    between atoms: C_14  and  O_15
REMARK   15  A    between atoms: O_15  and  C_16
REMARK   16  A    between atoms: C_16  and  C_17
REMARK   17  A    between atoms: C_17  and  O_18
REMARK   18  A    between atoms: O_18  and  C_19
REMARK   19  A    between atoms: C_19  and  C_20
REMARK   20  A    between atoms: C_20  and  O_21
REMARK   21  A    between atoms: O_21  and  C_22
REMARK   22  A    between atoms: C_22  and  C_23
REMARK   23  A    between atoms: C_23  and  O_24
REMARK   24  A    between atoms: O_24  and  C_25
REMARK   25  A    between atoms: C_25  and  C_26
REMARK   26  A    between atoms: C_26  and  O_27
REMARK                            x       y       z     vdW  Elec       q    Type
REMARK                         _______ _______ _______ _____ _____    ______ ____
ROOT
ATOM      1  C   UNL     1      10.084  -2.196  23.230  0.00  0.00    +0.188 C 
ENDROOT
BRANCH   1   2
ATOM      2  O   UNL     1       9.736  -0.812  23.326  0.00  0.00    -0.375 OA
BRANCH   2   3
ATOM      3  C   UNL     1      10.041  -0.282  24.612  0.00  0.00    +0.188 C 
BRANCH   3   4
ATOM      4  C   UNL     1      10.075   1.239  24.530  0.00  0.00    +0.188 C 
BRANCH   4   5
ATOM      5  O   UNL     1       8.826   1.758  24.983  0.00  0.00    -0.375 OA
BRANCH   5   6
ATOM      6  C   UNL     1       8.003   2.162  23.891  0.00  0.00    +0.188 C 
BRANCH   6   7
ATOM      7  C   UNL     1       6.604   1.591  24.088  0.00  0.00    +0.188 C 
BRANCH   7   8
ATOM      8  O   UNL     1       6.631   0.184  23.855  0.00  0.00    -0.375 OA
BRANCH   8   9
ATOM      9  C   UNL     1       5.781  -0.510  24.767  0.00  0.00    +0.188 C 
BRANCH   9  10
ATOM     10  C   UNL     1       6.610  -0.979  25.957  0.00  0.00    +0.188 C 
BRANCH  10  11
ATOM     11  O   UNL     1       6.214  -0.269  27.132  0.00  0.00    -0.375 OA
BRANCH  11  12
ATOM     12  C   UNL     1       7.355   0.265  27.816  0.00  0.00    +0.187 C 
BRANCH  12  13
ATOM     13  C   UNL     1       7.003   1.658  28.327  0.00  0.00    +0.184 C 
BRANCH  13  14
ATOM     14  O   UNL     1       7.367   2.639  27.358  0.00  0.00    -0.393 OA
ATOM     15  H   UNL     1       8.334   2.743  27.449  0.00  0.00    +0.209 HD
ENDBRANCH  13  14
ENDBRANCH  12  13
ENDBRANCH  11  12
ENDBRANCH  10  11
ENDBRANCH   9  10
ENDBRANCH   8   9
ENDBRANCH   7   8
ENDBRANCH   6   7
ENDBRANCH   5   6
ENDBRANCH   4   5
ENDBRANCH   3   4
ENDBRANCH   2   3
ENDBRANCH   1   2
BRANCH   1  16
ATOM     16  C   UNL     1       9.336  -2.973  24.309  0.00  0.00    +0.188 C 
BRANCH  16  17
ATOM     17  O   UNL     1      10.046  -4.184  24.591  0.00  0.00    -0.375 OA
BRANCH  17  18
ATOM     18  C   UNL     1       9.184  -5.187  25.119  0.00  0.00    +0.188 C 
BRANCH  18  19
ATOM     19  C   UNL     1       8.587  -4.693  26.429  0.00  0.00    +0.188 C 
BRANCH  19  20
ATOM     20  O   UNL     1       7.738  -5.707  26.965  0.00  0.00    -0.375 OA
BRANCH  20  21
ATOM     21  C   UNL     1       6.379  -5.277  27.005  0.00  0.00    +0.188 C 
BRANCH  21  22
ATOM     22  C   UNL     1       5.599  -5.989  25.910  0.00  0.00    +0.188 C 
BRANCH  22  23
ATOM     23  O   UNL     1       4.791  -5.042  25.217  0.00  0.00    -0.375 OA
BRANCH  23  24
ATOM     24  C   UNL     1       5.575  -4.228  24.346  0.00  0.00    +0.188 C 
BRANCH  24  25
ATOM     25  C   UNL     1       4.729  -3.826  23.146  0.00  0.00    +0.188 C 
BRANCH  25  26
ATOM     26  O   UNL     1       5.244  -4.451  21.972  0.00  0.00    -0.378 OA
BRANCH  26  28
ATOM     27  C   UNL     1       7.085  -5.940  21.687  0.00  0.00    +0.034 C 
ATOM     28  C   UNL     1       6.669  -4.518  22.001  0.00  0.00    +0.156 C 
ENDBRANCH  26  28
ENDBRANCH  25  26
ENDBRANCH  24  25
ENDBRANCH  23  24
ENDBRANCH  22  23
ENDBRANCH  21  22
ENDBRANCH  20  21
ENDBRANCH  19  20
ENDBRANCH  18  19
ENDBRANCH  17  18
ENDBRANCH  16  17
ENDBRANCH   1  16
TORSDOF 25
ENDMDL
