MODEL 1
REMARK VINA RESULT:      -6.8      0.000      0.000
REMARK  Name = 
REMARK  15 active torsions:
REMARK  status: ('A' for Active; 'I' for Inactive)
REMARK    1  A    between atoms: C_2  and  S_34
REMARK    2  A    between atoms: C_4  and  C_6
REMARK    3  A    between atoms: C_6  and  N_8
REMARK    4  A    between atoms: C_6  and  C_21
REMARK    5  A    between atoms: C_9  and  C_11
REMARK    6  A    between atoms: C_13  and  C_15
REMARK    7  A    between atoms: C_15  and  C_16
REMARK    8  A    between atoms: C_16  and  C_17
REMARK    9  A    between atoms: N_19  and  C_20
REMARK   10  A    between atoms: C_21  and  C_23
REMARK   11  A    between atoms: C_21  and  O_24
REMARK   12  A    between atoms: C_25  and  O_27
REMARK   13  A    between atoms: C_28  and  O_30
REMARK   14  A    between atoms: C_31  and  O_33
REMARK   15  A    between atoms: S_34  and  C_35
REMARK                            x       y       z     vdW  Elec       q    Type
REMARK                         _______ _______ _______ _____ _____    ______ ____
ROOT
ATOM      1  C   UNL     1       6.950  -4.603  23.771  0.00  0.00    +0.132 C 
ENDROOT
BRANCH   1   6
ATOM      2  C   UNL     1       4.625  -6.851  25.653  0.00  0.00    +0.207 C 
ATOM      3  C   UNL     1       5.131  -6.750  27.112  0.00  0.00    +0.184 C 
ATOM      4  C   UNL     1       5.677  -5.344  27.403  0.00  0.00    +0.177 C 
ATOM      5  C   UNL     1       6.711  -4.946  26.333  0.00  0.00    +0.176 C 
ATOM      6  C   UNL     1       6.032  -5.006  24.953  0.00  0.00    +0.173 C 
ATOM      7  O   UNL     1       5.547  -6.339  24.690  0.00  0.00    -0.356 OA
BRANCH   2   8
ATOM      8  S   UNL     1       2.957  -6.091  25.429  0.00  0.00    -0.131 S 
ATOM      9  C   UNL     1       2.459  -6.983  23.933  0.00  0.00    +0.087 C 
ENDBRANCH   2   8
BRANCH   3  10
ATOM     10  O   UNL     1       4.102  -7.125  28.044  0.00  0.00    -0.386 OA
ATOM     11  H   UNL     1       3.397  -7.557  27.528  0.00  0.00    +0.210 HD
ENDBRANCH   3  10
BRANCH   4  12
ATOM     12  O   UNL     1       6.234  -5.287  28.724  0.00  0.00    -0.386 OA
ATOM     13  H   UNL     1       7.129  -5.661  28.692  0.00  0.00    +0.210 HD
ENDBRANCH   4  12
BRANCH   5  14
ATOM     14  O   UNL     1       7.838  -5.829  26.390  0.00  0.00    -0.387 OA
ATOM     15  H   UNL     1       8.213  -5.878  25.483  0.00  0.00    +0.210 HD
ENDBRANCH   5  14
ENDBRANCH   1   6
BRANCH   1  16
ATOM     16  N   UNL     1       7.702  -3.369  24.037  0.00  0.00    -0.306 N 
ATOM     17  H   UNL     1       7.197  -2.496  24.127  0.00  0.00    +0.149 HD
ATOM     18  C   UNL     1       9.055  -3.350  24.291  0.00  0.00    +0.231 C 
ATOM     19  O   UNL     1       9.690  -4.390  24.466  0.00  0.00    -0.274 OA
BRANCH  18  20
ATOM     20  C   UNL     1       9.708  -1.959  24.417  0.00  0.00    +0.143 C 
ATOM     21  N   UNL     1       8.793  -0.989  25.070  0.00  0.00    -0.294 NA
ATOM     22  C   UNL     1       8.904  -1.061  26.530  0.00  0.00    +0.105 C 
ATOM     23  C   UNL     1       9.151   0.357  24.580  0.00  0.00    +0.088 C 
ATOM     24  C   UNL     1      10.227   0.167  23.508  0.00  0.00    +0.005 C 
ATOM     25  C   UNL     1      10.050  -1.288  23.091  0.00  0.00    +0.033 C 
BRANCH  24  26
ATOM     26  C   UNL     1      10.140   1.137  22.331  0.00  0.00    +0.004 C 
BRANCH  26  27
ATOM     27  C   UNL     1       8.951   0.847  21.416  0.00  0.00    -0.003 C 
ATOM     28  C   UNL     1       7.892   1.937  21.522  0.00  0.00    +0.004 C 
ENDBRANCH  26  27
ENDBRANCH  24  26
ENDBRANCH  18  20
ENDBRANCH   1  16
BRANCH   1  29
ATOM     29  C   UNL     1       6.143  -4.497  22.440  0.00  0.00    +0.134 C 
ATOM     30  C   UNL     1       6.409  -5.617  21.438  0.00  0.00    +0.039 C 
BRANCH  29  31
ATOM     31  O   UNL     1       4.732  -4.513  22.713  0.00  0.00    -0.390 OA
ATOM     32  H   UNL     1       4.570  -3.840  23.398  0.00  0.00    +0.210 HD
ENDBRANCH  29  31
ENDBRANCH   1  29
TORSDOF 11
ENDMDL
MODEL 2
REMARK VINA RESULT:      -6.0      4.321      8.034
REMARK  Name = 
REMARK  15 active torsions:
REMARK  status: ('A' for Active; 'I' for Inactive)
REMARK    1  A    between atoms: C_2  and  S_34
REMARK    2  A    between atoms: C_4  and  C_6
REMARK    3  A    between atoms: C_6  and  N_8
REMARK    4  A    between atoms: C_6  and  C_21
REMARK    5  A    between atoms: C_9  and  C_11
REMARK    6  A    between atoms: C_13  and  C_15
REMARK    7  A    between atoms: C_15  and  C_16
REMARK    8  A    between atoms: C_16  and  C_17
REMARK    9  A    between atoms: N_19  and  C_20
REMARK   10  A    between atoms: C_21  and  C_23
REMARK   11  A    between atoms: C_21  and  O_24
REMARK   12  A    between atoms: C_25  and  O_27
REMARK   13  A    between atoms: C_28  and  O_30
REMARK   14  A    between atoms: C_31  and  O_33
REMARK   15  A    between atoms: S_34  and  C_35
REMARK                            x       y       z     vdW  Elec       q    Type
REMARK                         _______ _______ _______ _____ _____    ______ ____
ROOT
ATOM      1  C   UNL     1       9.194   0.643  23.143  0.00  0.00    +0.132 C 
ENDROOT
BRANCH   1   6
ATOM      2  C   UNL     1       7.022   3.524  22.154  0.00  0.00    +0.207 C 
ATOM      3  C   UNL     1       5.617   3.098  22.643  0.00  0.00    +0.184 C 
ATOM      4  C   UNL     1       5.716   2.269  23.932  0.00  0.00    +0.177 C 
ATOM      5  C   UNL     1       6.711   1.109  23.739  0.00  0.00    +0.176 C 
ATOM      6  C   UNL     1       8.078   1.698  23.348  0.00  0.00    +0.173 C 
ATOM      7  O   UNL     1       7.967   2.454  22.123  0.00  0.00    -0.356 OA
BRANCH   2   8
ATOM      8  S   UNL     1       7.693   4.962  23.099  0.00  0.00    -0.131 S 
ATOM      9  C   UNL     1       7.405   6.251  21.860  0.00  0.00    +0.087 C 
ENDBRANCH   2   8
BRANCH   3  10
ATOM     10  O   UNL     1       4.759   4.240  22.810  0.00  0.00    -0.386 OA
ATOM     11  H   UNL     1       4.444   4.225  23.733  0.00  0.00    +0.210 HD
ENDBRANCH   3  10
BRANCH   4  12
ATOM     12  O   UNL     1       4.421   1.795  24.324  0.00  0.00    -0.386 OA
ATOM     13  H   UNL     1       4.528   1.237  25.112  0.00  0.00    +0.210 HD
ENDBRANCH   4  12
BRANCH   5  14
ATOM     14  O   UNL     1       6.229   0.215  22.728  0.00  0.00    -0.387 OA
ATOM     15  H   UNL     1       5.250   0.299  22.710  0.00  0.00    +0.210 HD
ENDBRANCH   5  14
ENDBRANCH   1   6
BRANCH   1  16
ATOM     16  N   UNL     1       8.754  -0.717  23.484  0.00  0.00    -0.306 N 
ATOM     17  H   UNL     1       7.983  -0.835  24.128  0.00  0.00    +0.149 HD
ATOM     18  C   UNL     1       9.257  -1.846  22.879  0.00  0.00    +0.231 C 
ATOM     19  O   UNL     1       9.999  -1.774  21.900  0.00  0.00    -0.274 OA
BRANCH  18  20
ATOM     20  C   UNL     1       8.781  -3.197  23.450  0.00  0.00    +0.143 C 
ATOM     21  N   UNL     1       7.301  -3.310  23.408  0.00  0.00    -0.294 NA
ATOM     22  C   UNL     1       6.849  -3.815  22.109  0.00  0.00    +0.105 C 
ATOM     23  C   UNL     1       6.896  -4.221  24.498  0.00  0.00    +0.088 C 
ATOM     24  C   UNL     1       8.162  -4.557  25.289  0.00  0.00    +0.005 C 
ATOM     25  C   UNL     1       9.113  -3.426  24.921  0.00  0.00    +0.033 C 
BRANCH  24  26
ATOM     26  C   UNL     1       7.959  -4.696  26.797  0.00  0.00    +0.004 C 
BRANCH  26  27
ATOM     27  C   UNL     1       6.723  -5.521  27.151  0.00  0.00    -0.003 C 
ATOM     28  C   UNL     1       5.849  -4.800  28.170  0.00  0.00    +0.004 C 
ENDBRANCH  26  27
ENDBRANCH  24  26
ENDBRANCH  18  20
ENDBRANCH   1  16
BRANCH   1  29
ATOM     29  C   UNL     1      10.488   1.031  23.925  0.00  0.00    +0.134 C 
ATOM     30  C   UNL     1      10.887   2.500  23.815  0.00  0.00    +0.039 C 
BRANCH  29  31
ATOM     31  O   UNL     1      10.324   0.751  25.324  0.00  0.00    -0.390 OA
ATOM     32  H   UNL     1       9.449   1.093  25.580  0.00  0.00    +0.210 HD
ENDBRANCH  29  31
ENDBRANCH   1  29
TORSDOF 11
ENDMDL
MODEL 3
REMARK VINA RESULT:      -6.0      1.864      2.824
REMARK  Name = 
REMARK  15 active torsions:
REMARK  status: ('A' for Active; 'I' for Inactive)
REMARK    1  A    between atoms: C_2  and  S_34
REMARK    2  A    between atoms: C_4  and  C_6
REMARK    3  A    between atoms: C_6  and  N_8
REMARK    4  A    between atoms: C_6  and  C_21
REMARK    5  A    between atoms: C_9  and  C_11
REMARK    6  A    between atoms: C_13  and  C_15
REMARK    7  A    between atoms: C_15  and  C_16
REMARK    8  A    between atoms: C_16  and  C_17
REMARK    9  A    between atoms: N_19  and  C_20
REMARK   10  A    between atoms: C_21  and  C_23
REMARK   11  A    between atoms: C_21  and  O_24
REMARK   12  A    between atoms: C_25  and  O_27
REMARK   13  A    between atoms: C_28  and  O_30
REMARK   14  A    between atoms: C_31  and  O_33
REMARK   15  A    between atoms: S_34  and  C_35
REMARK                            x       y       z     vdW  Elec       q    Type
REMARK                         _______ _______ _______ _____ _____    ______ ____
ROOT
ATOM      1  C   UNL     1       8.249  -3.133  25.661  0.00  0.00    +0.132 C 
ENDROOT
BRANCH   1   6
ATOM      2  C   UNL     1       5.483  -5.535  24.904  0.00  0.00    +0.207 C 
ATOM      3  C   UNL     1       5.496  -6.492  26.120  0.00  0.00    +0.184 C 
ATOM      4  C   UNL     1       5.898  -5.743  27.399  0.00  0.00    +0.177 C 
ATOM      5  C   UNL     1       7.213  -4.972  27.170  0.00  0.00    +0.176 C 
ATOM      6  C   UNL     1       7.009  -4.001  25.994  0.00  0.00    +0.173 C 
ATOM      7  O   UNL     1       6.655  -4.727  24.798  0.00  0.00    -0.356 OA
BRANCH   2   8
ATOM      8  S   UNL     1       3.961  -4.491  24.842  0.00  0.00    -0.131 S 
ATOM      9  C   UNL     1       3.190  -5.233  23.380  0.00  0.00    +0.087 C 
ENDBRANCH   2   8
BRANCH   3  10
ATOM     10  O   UNL     1       4.230  -7.157  26.269  0.00  0.00    -0.386 OA
ATOM     11  H   UNL     1       3.556  -6.576  25.870  0.00  0.00    +0.210 HD
ENDBRANCH   3  10
BRANCH   4  12
ATOM     12  O   UNL     1       6.004  -6.654  28.502  0.00  0.00    -0.386 OA
ATOM     13  H   UNL     1       6.947  -6.801  28.683  0.00  0.00    +0.210 HD
ENDBRANCH   4  12
BRANCH   5  14
ATOM     14  O   UNL     1       8.277  -5.893  26.898  0.00  0.00    -0.387 OA
ATOM     15  H   UNL     1       8.691  -5.614  26.052  0.00  0.00    +0.210 HD
ENDBRANCH   5  14
ENDBRANCH   1   6
BRANCH   1  16
ATOM     16  N   UNL     1       7.908  -1.718  25.452  0.00  0.00    -0.306 N 
ATOM     17  H   UNL     1       7.249  -1.475  24.724  0.00  0.00    +0.149 HD
ATOM     18  C   UNL     1       8.346  -0.708  26.278  0.00  0.00    +0.231 C 
ATOM     19  O   UNL     1       8.925  -0.949  27.337  0.00  0.00    -0.274 OA
BRANCH  18  20
ATOM     20  C   UNL     1       8.004   0.730  25.839  0.00  0.00    +0.143 C 
ATOM     21  N   UNL     1       6.696   0.785  25.138  0.00  0.00    -0.294 NA
ATOM     22  C   UNL     1       5.593   0.924  26.093  0.00  0.00    +0.105 C 
ATOM     23  C   UNL     1       6.738   1.934  24.211  0.00  0.00    +0.088 C 
ATOM     24  C   UNL     1       8.159   2.501  24.272  0.00  0.00    +0.005 C 
ATOM     25  C   UNL     1       8.973   1.341  24.831  0.00  0.00    +0.033 C 
BRANCH  24  26
ATOM     26  C   UNL     1       8.701   3.019  22.940  0.00  0.00    +0.004 C 
BRANCH  26  27
ATOM     27  C   UNL     1       9.669   2.039  22.278  0.00  0.00    -0.003 C 
ATOM     28  C   UNL     1       8.938   1.090  21.336  0.00  0.00    +0.004 C 
ENDBRANCH  26  27
ENDBRANCH  24  26
ENDBRANCH  18  20
ENDBRANCH   1  16
BRANCH   1  29
ATOM     29  C   UNL     1       9.032  -3.710  24.440  0.00  0.00    +0.134 C 
ATOM     30  C   UNL     1       9.942  -2.711  23.731  0.00  0.00    +0.039 C 
BRANCH  29  31
ATOM     31  O   UNL     1       9.865  -4.804  24.858  0.00  0.00    -0.390 OA
ATOM     32  H   UNL     1      10.418  -4.473  25.589  0.00  0.00    +0.210 HD
ENDBRANCH  29  31
ENDBRANCH   1  29
TORSDOF 11
ENDMDL
MODEL 4
REMARK VINA RESULT:      -5.9      2.887      4.837
REMARK  Name = 
REMARK  15 active torsions:
REMARK  status: ('A' for Active; 'I' for Inactive)
REMARK    1  A    between atoms: C_2  and  S_34
REMARK    2  A    between atoms: C_4  and  C_6
REMARK    3  A    between atoms: C_6  and  N_8
REMARK    4  A    between atoms: C_6  and  C_21
REMARK    5  A    between atoms: C_9  and  C_11
REMARK    6  A    between atoms: C_13  and  C_15
REMARK    7  A    between atoms: C_15  and  C_16
REMARK    8  A    between atoms: C_16  and  C_17
REMARK    9  A    between atoms: N_19  and  C_20
REMARK   10  A    between atoms: C_21  and  C_23
REMARK   11  A    between atoms: C_21  and  O_24
REMARK   12  A    between atoms: C_25  and  O_27
REMARK   13  A    between atoms: C_28  and  O_30
REMARK   14  A    between atoms: C_31  and  O_33
REMARK   15  A    between atoms: S_34  and  C_35
REMARK                            x       y       z     vdW  Elec       q    Type
REMARK                         _______ _______ _______ _____ _____    ______ ____
ROOT
ATOM      1  C   UNL     1       9.144  -1.498  23.498  0.00  0.00    +0.132 C 
ENDROOT
BRANCH   1   6
ATOM      2  C   UNL     1       6.702  -3.453  25.551  0.00  0.00    +0.207 C 
ATOM      3  C   UNL     1       5.475  -3.587  24.618  0.00  0.00    +0.184 C 
ATOM      4  C   UNL     1       5.915  -3.693  23.151  0.00  0.00    +0.177 C 
ATOM      5  C   UNL     1       6.869  -2.536  22.799  0.00  0.00    +0.176 C 
ATOM      6  C   UNL     1       8.078  -2.595  23.750  0.00  0.00    +0.173 C 
ATOM      7  O   UNL     1       7.645  -2.470  25.121  0.00  0.00    -0.356 OA
BRANCH   2   8
ATOM      8  S   UNL     1       7.538  -5.071  25.857  0.00  0.00    -0.131 S 
ATOM      9  C   UNL     1       9.065  -4.444  26.603  0.00  0.00    +0.087 C 
ENDBRANCH   2   8
BRANCH   3  10
ATOM     10  O   UNL     1       4.648  -4.697  25.007  0.00  0.00    -0.386 OA
ATOM     11  H   UNL     1       4.453  -4.586  25.956  0.00  0.00    +0.210 HD
ENDBRANCH   3  10
BRANCH   4  12
ATOM     12  O   UNL     1       4.772  -3.718  22.285  0.00  0.00    -0.386 OA
ATOM     13  H   UNL     1       4.785  -4.552  21.789  0.00  0.00    +0.210 HD
ENDBRANCH   4  12
BRANCH   5  14
ATOM     14  O   UNL     1       6.182  -1.284  22.918  0.00  0.00    -0.387 OA
ATOM     15  H   UNL     1       6.001  -1.143  23.874  0.00  0.00    +0.210 HD
ENDBRANCH   5  14
ENDBRANCH   1   6
BRANCH   1  16
ATOM     16  N   UNL     1       8.676  -0.159  23.881  0.00  0.00    -0.306 N 
ATOM     17  H   UNL     1       7.717   0.100  23.689  0.00  0.00    +0.149 HD
ATOM     18  C   UNL     1       9.441   0.729  24.603  0.00  0.00    +0.231 C 
ATOM     19  O   UNL     1      10.512   0.393  25.106  0.00  0.00    -0.274 OA
BRANCH  18  20
ATOM     20  C   UNL     1       8.847   2.138  24.804  0.00  0.00    +0.143 C 
ATOM     21  N   UNL     1       7.386   2.077  25.059  0.00  0.00    -0.294 NA
ATOM     22  C   UNL     1       7.108   1.867  26.483  0.00  0.00    +0.105 C 
ATOM     23  C   UNL     1       6.800   3.349  24.589  0.00  0.00    +0.088 C 
ATOM     24  C   UNL     1       7.930   4.136  23.920  0.00  0.00    +0.005 C 
ATOM     25  C   UNL     1       8.958   3.060  23.595  0.00  0.00    +0.033 C 
BRANCH  24  26
ATOM     26  C   UNL     1       7.509   4.946  22.695  0.00  0.00    +0.004 C 
BRANCH  26  27
ATOM     27  C   UNL     1       7.982   6.397  22.758  0.00  0.00    -0.003 C 
ATOM     28  C   UNL     1       9.264   6.526  23.572  0.00  0.00    +0.004 C 
ENDBRANCH  26  27
ENDBRANCH  24  26
ENDBRANCH  18  20
ENDBRANCH   1  16
BRANCH   1  29
ATOM     29  C   UNL     1       9.639  -1.521  22.018  0.00  0.00    +0.134 C 
ATOM     30  C   UNL     1       9.379  -0.237  21.236  0.00  0.00    +0.039 C 
BRANCH  29  31
ATOM     31  O   UNL     1      11.056  -1.753  21.973  0.00  0.00    -0.390 OA
ATOM     32  H   UNL     1      11.379  -1.699  22.891  0.00  0.00    +0.210 HD
ENDBRANCH  29  31
ENDBRANCH   1  29
TORSDOF 11
ENDMDL
MODEL 5
REMARK VINA RESULT:      -5.9      3.500      7.776
REMARK  Name = 
REMARK  15 active torsions:
REMARK  status: ('A' for Active; 'I' for Inactive)
REMARK    1  A    between atoms: C_2  and  S_34
REMARK    2  A    between atoms: C_4  and  C_6
REMARK    3  A    between atoms: C_6  and  N_8
REMARK    4  A    between atoms: C_6  and  C_21
REMARK    5  A    between atoms: C_9  and  C_11
REMARK    6  A    between atoms: C_13  and  C_15
REMARK    7  A    between atoms: C_15  and  C_16
REMARK    8  A    between atoms: C_16  and  C_17
REMARK    9  A    between atoms: N_19  and  C_20
REMARK   10  A    between atoms: C_21  and  C_23
REMARK   11  A    between atoms: C_21  and  O_24
REMARK   12  A    between atoms: C_25  and  O_27
REMARK   13  A    between atoms: C_28  and  O_30
REMARK   14  A    between atoms: C_31  and  O_33
REMARK   15  A    between atoms: S_34  and  C_35
REMARK                            x       y       z     vdW  Elec       q    Type
REMARK                         _______ _______ _______ _____ _____    ______ ____
ROOT
ATOM      1  C   UNL     1       6.755  -1.125  25.005  0.00  0.00    +0.132 C 
ENDROOT
BRANCH   1   6
ATOM      2  C   UNL     1       8.593   1.739  23.451  0.00  0.00    +0.207 C 
ATOM      3  C   UNL     1       9.608   1.046  22.511  0.00  0.00    +0.184 C 
ATOM      4  C   UNL     1       9.017  -0.245  21.927  0.00  0.00    +0.177 C 
ATOM      5  C   UNL     1       8.473  -1.138  23.060  0.00  0.00    +0.176 C 
ATOM      6  C   UNL     1       7.413  -0.342  23.841  0.00  0.00    +0.173 C 
ATOM      7  O   UNL     1       7.995   0.855  24.400  0.00  0.00    -0.356 OA
BRANCH   2   8
ATOM      8  S   UNL     1       7.300   2.678  22.527  0.00  0.00    -0.131 S 
ATOM      9  C   UNL     1       7.794   4.353  23.009  0.00  0.00    +0.087 C 
ENDBRANCH   2   8
BRANCH   3  10
ATOM     10  O   UNL     1      10.052   1.942  21.478  0.00  0.00    -0.386 OA
ATOM     11  H   UNL     1      10.418   2.729  21.924  0.00  0.00    +0.210 HD
ENDBRANCH   3  10
BRANCH   4  12
ATOM     12  O   UNL     1       9.996  -0.933  21.137  0.00  0.00    -0.386 OA
ATOM     13  H   UNL     1      10.659  -1.312  21.737  0.00  0.00    +0.210 HD
ENDBRANCH   4  12
BRANCH   5  14
ATOM     14  O   UNL     1       9.546  -1.545  23.918  0.00  0.00    -0.387 OA
ATOM     15  H   UNL     1       9.739  -2.486  23.714  0.00  0.00    +0.210 HD
ENDBRANCH   5  14
ENDBRANCH   1   6
BRANCH   1  16
ATOM     16  N   UNL     1       6.448  -2.517  24.645  0.00  0.00    -0.306 N 
ATOM     17  H   UNL     1       5.811  -2.696  23.879  0.00  0.00    +0.149 HD
ATOM     18  C   UNL     1       7.076  -3.600  25.216  0.00  0.00    +0.231 C 
ATOM     19  O   UNL     1       8.049  -3.460  25.956  0.00  0.00    -0.274 OA
BRANCH  18  20
ATOM     20  C   UNL     1       6.540  -4.990  24.819  0.00  0.00    +0.143 C 
ATOM     21  N   UNL     1       6.348  -5.096  23.351  0.00  0.00    -0.294 NA
ATOM     22  C   UNL     1       7.591  -5.497  22.685  0.00  0.00    +0.105 C 
ATOM     23  C   UNL     1       5.279  -6.087  23.114  0.00  0.00    +0.088 C 
ATOM     24  C   UNL     1       4.734  -6.487  24.487  0.00  0.00    +0.005 C 
ATOM     25  C   UNL     1       5.165  -5.333  25.383  0.00  0.00    +0.033 C 
BRANCH  24  26
ATOM     26  C   UNL     1       3.228  -6.742  24.530  0.00  0.00    +0.004 C 
BRANCH  26  27
ATOM     27  C   UNL     1       2.411  -5.500  24.176  0.00  0.00    -0.003 C 
ATOM     28  C   UNL     1       1.532  -5.745  22.955  0.00  0.00    +0.004 C 
ENDBRANCH  26  27
ENDBRANCH  24  26
ENDBRANCH  18  20
ENDBRANCH   1  16
BRANCH   1  29
ATOM     29  C   UNL     1       5.487  -0.387  25.537  0.00  0.00    +0.134 C 
ATOM     30  C   UNL     1       5.649   0.252  26.913  0.00  0.00    +0.039 C 
BRANCH  29  31
ATOM     31  O   UNL     1       5.111   0.665  24.634  0.00  0.00    -0.390 OA
ATOM     32  H   UNL     1       5.801   0.708  23.948  0.00  0.00    +0.210 HD
ENDBRANCH  29  31
ENDBRANCH   1  29
TORSDOF 11
ENDMDL
MODEL 6
REMARK VINA RESULT:      -5.8      1.580      2.344
REMARK  Name = 
REMARK  15 active torsions:
REMARK  status: ('A' for Active; 'I' for Inactive)
REMARK    1  A    between atoms: C_2  and  S_34
REMARK    2  A    between atoms: C_4  and  C_6
REMARK    3  A    between atoms: C_6  and  N_8
REMARK    4  A    between atoms: C_6  and  C_21
REMARK    5  A    between atoms: C_9  and  C_11
REMARK    6  A    between atoms: C_13  and  C_15
REMARK    7  A    between atoms: C_15  and  C_16
REMARK    8  A    between atoms: C_16  and  C_17
REMARK    9  A    between atoms: N_19  and  C_20
REMARK   10  A    between atoms: C_21  and  C_23
REMARK   11  A    between atoms: C_21  and  O_24
REMARK   12  A    between atoms: C_25  and  O_27
REMARK   13  A    between atoms: C_28  and  O_30
REMARK   14  A    between atoms: C_31  and  O_33
REMARK   15  A    between atoms: S_34  and  C_35
REMARK                            x       y       z     vdW  Elec       q    Type
REMARK                         _______ _______ _______ _____ _____    ______ ____
ROOT
ATOM      1  C   UNL     1       7.202  -4.424  23.575  0.00  0.00    +0.132 C 
ENDROOT
BRANCH   1   6
ATOM      2  C   UNL     1       5.419  -4.850  26.836  0.00  0.00    +0.207 C 
ATOM      3  C   UNL     1       4.178  -3.938  26.688  0.00  0.00    +0.184 C 
ATOM      4  C   UNL     1       3.687  -3.917  25.233  0.00  0.00    +0.177 C 
ATOM      5  C   UNL     1       4.854  -3.577  24.287  0.00  0.00    +0.176 C 
ATOM      6  C   UNL     1       5.964  -4.623  24.486  0.00  0.00    +0.173 C 
ATOM      7  O   UNL     1       6.426  -4.611  25.853  0.00  0.00    -0.356 OA
BRANCH   2   8
ATOM      8  S   UNL     1       4.976  -6.642  26.896  0.00  0.00    -0.131 S 
ATOM      9  C   UNL     1       5.223  -6.917  28.669  0.00  0.00    +0.087 C 
ENDBRANCH   2   8
BRANCH   3  10
ATOM     10  O   UNL     1       3.134  -4.333  27.596  0.00  0.00    -0.386 OA
ATOM     11  H   UNL     1       3.370  -3.974  28.471  0.00  0.00    +0.210 HD
ENDBRANCH   3  10
BRANCH   4  12
ATOM     12  O   UNL     1       2.599  -2.994  25.084  0.00  0.00    -0.386 OA
ATOM     13  H   UNL     1       2.301  -2.731  25.970  0.00  0.00    +0.210 HD
ENDBRANCH   4  12
BRANCH   5  14
ATOM     14  O   UNL     1       5.337  -2.256  24.562  0.00  0.00    -0.387 OA
ATOM     15  H   UNL     1       5.445  -2.185  25.536  0.00  0.00    +0.210 HD
ENDBRANCH   5  14
ENDBRANCH   1   6
BRANCH   1  16
ATOM     16  N   UNL     1       7.879  -3.142  23.818  0.00  0.00    -0.306 N 
ATOM     17  H   UNL     1       7.330  -2.292  23.834  0.00  0.00    +0.149 HD
ATOM     18  C   UNL     1       9.213  -3.044  24.145  0.00  0.00    +0.231 C 
ATOM     19  O   UNL     1       9.884  -4.041  24.409  0.00  0.00    -0.274 OA
BRANCH  18  20
ATOM     20  C   UNL     1       9.792  -1.618  24.235  0.00  0.00    +0.143 C 
ATOM     21  N   UNL     1       8.844  -0.691  24.902  0.00  0.00    -0.294 NA
ATOM     22  C   UNL     1       9.000  -0.736  26.359  0.00  0.00    +0.105 C 
ATOM     23  C   UNL     1       9.114   0.666  24.385  0.00  0.00    +0.088 C 
ATOM     24  C   UNL     1      10.168   0.520  23.285  0.00  0.00    +0.005 C 
ATOM     25  C   UNL     1      10.058  -0.948  22.891  0.00  0.00    +0.033 C 
BRANCH  24  26
ATOM     26  C   UNL     1       9.993   1.468  22.099  0.00  0.00    +0.004 C 
BRANCH  26  27
ATOM     27  C   UNL     1       8.607   1.367  21.464  0.00  0.00    -0.003 C 
ATOM     28  C   UNL     1       7.764   2.596  21.777  0.00  0.00    +0.004 C 
ENDBRANCH  26  27
ENDBRANCH  24  26
ENDBRANCH  18  20
ENDBRANCH   1  16
BRANCH   1  29
ATOM     29  C   UNL     1       6.827  -4.588  22.069  0.00  0.00    +0.134 C 
ATOM     30  C   UNL     1       5.920  -5.776  21.761  0.00  0.00    +0.039 C 
BRANCH  29  31
ATOM     31  O   UNL     1       6.147  -3.415  21.596  0.00  0.00    -0.390 OA
ATOM     32  H   UNL     1       6.337  -2.703  22.234  0.00  0.00    +0.210 HD
ENDBRANCH  29  31
ENDBRANCH   1  29
TORSDOF 11
ENDMDL
MODEL 7
REMARK VINA RESULT:      -5.8      1.611      1.936
REMARK  Name = 
REMARK  15 active torsions:
REMARK  status: ('A' for Active; 'I' for Inactive)
REMARK    1  A    between atoms: C_2  and  S_34
REMARK    2  A    between atoms: C_4  and  C_6
REMARK    3  A    between atoms: C_6  and  N_8
REMARK    4  A    between atoms: C_6  and  C_21
REMARK    5  A    between atoms: C_9  and  C_11
REMARK    6  A    between atoms: C_13  and  C_15
REMARK    7  A    between atoms: C_15  and  C_16
REMARK    8  A    between atoms: C_16  and  C_17
REMARK    9  A    between atoms: N_19  and  C_20
REMARK   10  A    between atoms: C_21  and  C_23
REMARK   11  A    between atoms: C_21  and  O_24
REMARK   12  A    between atoms: C_25  and  O_27
REMARK   13  A    between atoms: C_28  and  O_30
REMARK   14  A    between atoms: C_31  and  O_33
REMARK   15  A    between atoms: S_34  and  C_35
REMARK                            x       y       z     vdW  Elec       q    Type
REMARK                         _______ _______ _______ _____ _____    ______ ____
ROOT
ATOM      1  C   UNL     1       6.910  -4.545  24.966  0.00  0.00    +0.132 C 
ENDROOT
BRANCH   1   6
ATOM      2  C   UNL     1       4.583  -6.923  26.676  0.00  0.00    +0.207 C 
ATOM      3  C   UNL     1       5.111  -6.958  28.130  0.00  0.00    +0.184 C 
ATOM      4  C   UNL     1       5.680  -5.591  28.537  0.00  0.00    +0.177 C 
ATOM      5  C   UNL     1       6.704  -5.111  27.491  0.00  0.00    +0.176 C 
ATOM      6  C   UNL     1       6.004  -5.040  26.122  0.00  0.00    +0.173 C 
ATOM      7  O   UNL     1       5.498  -6.339  25.748  0.00  0.00    -0.356 OA
BRANCH   2   8
ATOM      8  S   UNL     1       2.922  -6.127  26.547  0.00  0.00    -0.131 S 
ATOM      9  C   UNL     1       1.958  -7.595  26.108  0.00  0.00    +0.087 C 
ENDBRANCH   2   8
BRANCH   3  10
ATOM     10  O   UNL     1       4.091  -7.403  29.041  0.00  0.00    -0.386 OA
ATOM     11  H   UNL     1       4.130  -8.377  29.057  0.00  0.00    +0.210 HD
ENDBRANCH   3  10
BRANCH   4  12
ATOM     12  O   UNL     1       6.257  -5.658  29.849  0.00  0.00    -0.386 OA
ATOM     13  H   UNL     1       5.781  -5.035  30.421  0.00  0.00    +0.210 HD
ENDBRANCH   4  12
BRANCH   5  14
ATOM     14  O   UNL     1       7.819  -6.010  27.451  0.00  0.00    -0.387 OA
ATOM     15  H   UNL     1       7.853  -6.468  28.320  0.00  0.00    +0.210 HD
ENDBRANCH   5  14
ENDBRANCH   1   6
BRANCH   1  16
ATOM     16  N   UNL     1       7.129  -3.092  25.005  0.00  0.00    -0.306 N 
ATOM     17  H   UNL     1       6.389  -2.493  25.348  0.00  0.00    +0.149 HD
ATOM     18  C   UNL     1       8.339  -2.504  24.711  0.00  0.00    +0.231 C 
ATOM     19  O   UNL     1       9.357  -3.175  24.548  0.00  0.00    -0.274 OA
BRANCH  18  20
ATOM     20  C   UNL     1       8.358  -0.963  24.671  0.00  0.00    +0.143 C 
ATOM     21  N   UNL     1       7.953  -0.450  23.338  0.00  0.00    -0.294 NA
ATOM     22  C   UNL     1       6.496  -0.333  23.239  0.00  0.00    +0.105 C 
ATOM     23  C   UNL     1       8.601   0.864  23.153  0.00  0.00    +0.088 C 
ATOM     24  C   UNL     1       9.519   1.080  24.359  0.00  0.00    +0.005 C 
ATOM     25  C   UNL     1       9.728  -0.331  24.894  0.00  0.00    +0.033 C 
BRANCH  24  26
ATOM     26  C   UNL     1      10.831   1.798  24.047  0.00  0.00    +0.004 C 
BRANCH  26  27
ATOM     27  C   UNL     1      10.636   3.008  23.134  0.00  0.00    -0.003 C 
ATOM     28  C   UNL     1      10.062   4.193  23.900  0.00  0.00    +0.004 C 
ENDBRANCH  26  27
ENDBRANCH  24  26
ENDBRANCH  18  20
ENDBRANCH   1  16
BRANCH   1  29
ATOM     29  C   UNL     1       6.354  -4.995  23.580  0.00  0.00    +0.134 C 
ATOM     30  C   UNL     1       5.640  -3.902  22.790  0.00  0.00    +0.039 C 
BRANCH  29  31
ATOM     31  O   UNL     1       7.424  -5.473  22.748  0.00  0.00    -0.390 OA
ATOM     32  H   UNL     1       7.012  -5.893  21.971  0.00  0.00    +0.210 HD
ENDBRANCH  29  31
ENDBRANCH   1  29
TORSDOF 11
ENDMDL
MODEL 8
REMARK VINA RESULT:      -5.8      2.489      3.415
REMARK  Name = 
REMARK  15 active torsions:
REMARK  status: ('A' for Active; 'I' for Inactive)
REMARK    1  A    between atoms: C_2  and  S_34
REMARK    2  A    between atoms: C_4  and  C_6
REMARK    3  A    between atoms: C_6  and  N_8
REMARK    4  A    between atoms: C_6  and  C_21
REMARK    5  A    between atoms: C_9  and  C_11
REMARK    6  A    between atoms: C_13  and  C_15
REMARK    7  A    between atoms: C_15  and  C_16
REMARK    8  A    between atoms: C_16  and  C_17
REMARK    9  A    between atoms: N_19  and  C_20
REMARK   10  A    between atoms: C_21  and  C_23
REMARK   11  A    between atoms: C_21  and  O_24
REMARK   12  A    between atoms: C_25  and  O_27
REMARK   13  A    between atoms: C_28  and  O_30
REMARK   14  A    between atoms: C_31  and  O_33
REMARK   15  A    between atoms: S_34  and  C_35
REMARK                            x       y       z     vdW  Elec       q    Type
REMARK                         _______ _______ _______ _____ _____    ______ ____
ROOT
ATOM      1  C   UNL     1       5.656  -1.848  25.371  0.00  0.00    +0.132 C 
ENDROOT
BRANCH   1   6
ATOM      2  C   UNL     1       4.523  -4.966  27.101  0.00  0.00    +0.207 C 
ATOM      3  C   UNL     1       5.730  -5.921  26.946  0.00  0.00    +0.184 C 
ATOM      4  C   UNL     1       7.052  -5.140  26.978  0.00  0.00    +0.177 C 
ATOM      5  C   UNL     1       7.008  -3.984  25.959  0.00  0.00    +0.176 C 
ATOM      6  C   UNL     1       5.813  -3.077  26.303  0.00  0.00    +0.173 C 
ATOM      7  O   UNL     1       4.581  -3.825  26.244  0.00  0.00    -0.356 OA
BRANCH   2   8
ATOM      8  S   UNL     1       4.246  -4.455  28.853  0.00  0.00    -0.131 S 
ATOM      9  C   UNL     1       2.805  -3.389  28.594  0.00  0.00    +0.087 C 
ENDBRANCH   2   8
BRANCH   3  10
ATOM     10  O   UNL     1       5.701  -6.958  27.942  0.00  0.00    -0.386 OA
ATOM     11  H   UNL     1       6.422  -6.767  28.571  0.00  0.00    +0.210 HD
ENDBRANCH   3  10
BRANCH   4  12
ATOM     12  O   UNL     1       8.160  -6.017  26.735  0.00  0.00    -0.386 OA
ATOM     13  H   UNL     1       7.892  -6.664  26.063  0.00  0.00    +0.210 HD
ENDBRANCH   4  12
BRANCH   5  14
ATOM     14  O   UNL     1       6.889  -4.509  24.631  0.00  0.00    -0.387 OA
ATOM     15  H   UNL     1       6.962  -5.487  24.699  0.00  0.00    +0.210 HD
ENDBRANCH   5  14
ENDBRANCH   1   6
BRANCH   1  16
ATOM     16  N   UNL     1       6.898  -1.516  24.660  0.00  0.00    -0.306 N 
ATOM     17  H   UNL     1       7.713  -1.246  25.197  0.00  0.00    +0.149 HD
ATOM     18  C   UNL     1       7.054  -1.670  23.301  0.00  0.00    +0.231 C 
ATOM     19  O   UNL     1       6.207  -2.244  22.619  0.00  0.00    -0.274 OA
BRANCH  18  20
ATOM     20  C   UNL     1       8.375  -1.149  22.702  0.00  0.00    +0.143 C 
ATOM     21  N   UNL     1       9.472  -1.177  23.702  0.00  0.00    -0.294 NA
ATOM     22  C   UNL     1      10.122  -2.490  23.735  0.00  0.00    +0.105 C 
ATOM     23  C   UNL     1      10.435  -0.120  23.333  0.00  0.00    +0.088 C 
ATOM     24  C   UNL     1       9.829   0.640  22.152  0.00  0.00    +0.005 C 
ATOM     25  C   UNL     1       8.346   0.307  22.248  0.00  0.00    +0.033 C 
BRANCH  24  26
ATOM     26  C   UNL     1      10.101   2.144  22.148  0.00  0.00    +0.004 C 
BRANCH  26  27
ATOM     27  C   UNL     1      10.568   2.660  23.508  0.00  0.00    -0.003 C 
ATOM     28  C   UNL     1      11.435   3.905  23.360  0.00  0.00    +0.004 C 
ENDBRANCH  26  27
ENDBRANCH  24  26
ENDBRANCH  18  20
ENDBRANCH   1  16
BRANCH   1  29
ATOM     29  C   UNL     1       5.105  -0.615  26.152  0.00  0.00    +0.134 C 
ATOM     30  C   UNL     1       5.318   0.729  25.460  0.00  0.00    +0.039 C 
BRANCH  29  31
ATOM     31  O   UNL     1       3.690  -0.752  26.360  0.00  0.00    -0.390 OA
ATOM     32  H   UNL     1       3.250  -0.325  25.602  0.00  0.00    +0.210 HD
ENDBRANCH  29  31
ENDBRANCH   1  29
TORSDOF 11
ENDMDL
MODEL 9
REMARK VINA RESULT:      -5.8      1.650      2.099
REMARK  Name = 
REMARK  15 active torsions:
REMARK  status: ('A' for Active; 'I' for Inactive)
REMARK    1  A    between atoms: C_2  and  S_34
REMARK    2  A    between atoms: C_4  and  C_6
REMARK    3  A    between atoms: C_6  and  N_8
REMARK    4  A    between atoms: C_6  and  C_21
REMARK    5  A    between atoms: C_9  and  C_11
REMARK    6  A    between atoms: C_13  and  C_15
REMARK    7  A    between atoms: C_15  and  C_16
REMARK    8  A    between atoms: C_16  and  C_17
REMARK    9  A    between atoms: N_19  and  C_20
REMARK   10  A    between atoms: C_21  and  C_23
REMARK   11  A    between atoms: C_21  and  O_24
REMARK   12  A    between atoms: C_25  and  O_27
REMARK   13  A    between atoms: C_28  and  O_30
REMARK   14  A    between atoms: C_31  and  O_33
REMARK   15  A    between atoms: S_34  and  C_35
REMARK                            x       y       z     vdW  Elec       q    Type
REMARK                         _______ _______ _______ _____ _____    ______ ____
ROOT
ATOM      1  C   UNL     1       6.183  -4.120  24.252  0.00  0.00    +0.132 C 
ENDROOT
BRANCH   1   6
ATOM      2  C   UNL     1       3.421  -4.266  26.771  0.00  0.00    +0.207 C 
ATOM      3  C   UNL     1       3.550  -5.690  27.363  0.00  0.00    +0.184 C 
ATOM      4  C   UNL     1       5.021  -6.129  27.411  0.00  0.00    +0.177 C 
ATOM      5  C   UNL     1       5.673  -5.944  26.027  0.00  0.00    +0.176 C 
ATOM      6  C   UNL     1       5.545  -4.465  25.622  0.00  0.00    +0.173 C 
ATOM      7  O   UNL     1       4.155  -4.080  25.561  0.00  0.00    -0.356 OA
BRANCH   2   8
ATOM      8  S   UNL     1       3.836  -2.950  27.998  0.00  0.00    -0.131 S 
ATOM      9  C   UNL     1       3.667  -1.511  26.911  0.00  0.00    +0.087 C 
ENDBRANCH   2   8
BRANCH   3  10
ATOM     10  O   UNL     1       2.929  -5.771  28.658  0.00  0.00    -0.386 OA
ATOM     11  H   UNL     1       2.345  -4.995  28.741  0.00  0.00    +0.210 HD
ENDBRANCH   3  10
BRANCH   4  12
ATOM     12  O   UNL     1       5.125  -7.485  27.867  0.00  0.00    -0.386 OA
ATOM     13  H   UNL     1       4.558  -7.586  28.649  0.00  0.00    +0.210 HD
ENDBRANCH   4  12
BRANCH   5  14
ATOM     14  O   UNL     1       5.035  -6.797  25.069  0.00  0.00    -0.387 OA
ATOM     15  H   UNL     1       5.246  -6.440  24.178  0.00  0.00    +0.210 HD
ENDBRANCH   5  14
ENDBRANCH   1   6
BRANCH   1  16
ATOM     16  N   UNL     1       7.167  -3.032  24.347  0.00  0.00    -0.306 N 
ATOM     17  H   UNL     1       6.847  -2.100  24.574  0.00  0.00    +0.149 HD
ATOM     18  C   UNL     1       8.526  -3.236  24.261  0.00  0.00    +0.231 C 
ATOM     19  O   UNL     1       9.006  -4.368  24.256  0.00  0.00    -0.274 OA
BRANCH  18  20
ATOM     20  C   UNL     1       9.407  -1.971  24.248  0.00  0.00    +0.143 C 
ATOM     21  N   UNL     1       8.760  -0.854  24.982  0.00  0.00    -0.294 NA
ATOM     22  C   UNL     1       9.059  -0.923  26.415  0.00  0.00    +0.105 C 
ATOM     23  C   UNL     1       9.261   0.408  24.400  0.00  0.00    +0.088 C 
ATOM     24  C   UNL     1      10.133   0.028  23.200  0.00  0.00    +0.005 C 
ATOM     25  C   UNL     1       9.666  -1.383  22.864  0.00  0.00    +0.033 C 
BRANCH  24  26
ATOM     26  C   UNL     1      10.041   0.983  22.012  0.00  0.00    +0.004 C 
BRANCH  26  27
ATOM     27  C   UNL     1       9.121   2.172  22.282  0.00  0.00    -0.003 C 
ATOM     28  C   UNL     1       7.804   2.036  21.528  0.00  0.00    +0.004 C 
ENDBRANCH  26  27
ENDBRANCH  24  26
ENDBRANCH  18  20
ENDBRANCH   1  16
BRANCH   1  29
ATOM     29  C   UNL     1       5.090  -3.801  23.184  0.00  0.00    +0.134 C 
ATOM     30  C   UNL     1       5.601  -3.074  21.943  0.00  0.00    +0.039 C 
BRANCH  29  31
ATOM     31  O   UNL     1       4.475  -5.016  22.727  0.00  0.00    -0.390 OA
ATOM     32  H   UNL     1       4.764  -5.724  23.332  0.00  0.00    +0.210 HD
ENDBRANCH  29  31
ENDBRANCH   1  29
TORSDOF 11
ENDMDL
