MODEL 1
REMARK VINA RESULT:      -6.4      0.000      0.000
REMARK  Name = 
REMARK  25 active torsions:
REMARK  status: ('A' for Active; 'I' for Inactive)
REMARK    1  A    between atoms: C_1  and  C_2
REMARK    2  A    between atoms: C_2  and  C_3
REMARK    3  A    between atoms: C_3  and  C_5
REMARK    4  A    between atoms: C_3  and  C_42
REMARK    5  A    between atoms: C_12  and  C_14
REMARK    6  A    between atoms: C_14  and  O_16
REMARK    7  A    between atoms: O_16  and  C_17
REMARK    8  A    between atoms: C_17  and  C_19
REMARK    9  A    between atoms: C_17  and  C_31
REMARK   10  A    between atoms: C_19  and  C_20
REMARK   11  A    between atoms: C_20  and  C_21
REMARK   12  A    between atoms: C_24  and  O_25
REMARK   13  A    between atoms: O_25  and  C_26
REMARK   14  A    between atoms: C_27  and  O_28
REMARK   15  A    between atoms: O_28  and  C_29
REMARK   16  A    between atoms: C_35  and  O_36
REMARK   17  A    between atoms: O_36  and  C_37
REMARK   18  A    between atoms: C_37  and  C_38
REMARK   19  A    between atoms: C_38  and  O_39
REMARK   20  A    between atoms: C_44  and  O_45
REMARK   21  A    between atoms: O_45  and  C_46
REMARK   22  A    between atoms: C_47  and  O_48
REMARK   23  A    between atoms: O_48  and  C_49
REMARK   24  A    between atoms: C_50  and  O_51
REMARK   25  A    between atoms: O_51  and  C_52
REMARK                            x       y       z     vdW  Elec       q    Type
REMARK                         _______ _______ _______ _____ _____    ______ ____
ROOT
ATOM      1  O   UNL     1       7.171  -5.927  26.353  0.00  0.00    -0.455 OA
ENDROOT
BRANCH   1   2
ATOM      2  C   UNL     1       6.588  -5.768  27.577  0.00  0.00    +0.328 C 
ATOM      3  O   UNL     1       7.134  -6.052  28.634  0.00  0.00    -0.249 OA
BRANCH   2   6
ATOM      4  C   UNL     1       4.429  -2.993  28.192  0.00  0.00    +0.224 C 
ATOM      5  N   UNL     1       4.771  -4.313  28.449  0.00  0.00    -0.288 N 
ATOM      6  C   UNL     1       5.113  -5.337  27.449  0.00  0.00    +0.185 C 
ATOM      7  C   UNL     1       4.115  -6.500  27.566  0.00  0.00    +0.034 C 
ATOM      8  C   UNL     1       4.022  -7.070  28.982  0.00  0.00    +0.004 C 
ATOM      9  C   UNL     1       3.777  -5.976  30.017  0.00  0.00    +0.019 C 
ATOM     10  C   UNL     1       4.742  -4.808  29.841  0.00  0.00    +0.108 C 
ATOM     11  O   UNL     1       4.008  -2.293  29.128  0.00  0.00    -0.275 OA
BRANCH   4  12
ATOM     12  C   UNL     1       4.533  -2.391  26.753  0.00  0.00    +0.105 C 
BRANCH  12  13
ATOM     13  C   UNL     1       5.351  -1.091  26.620  0.00  0.00    -0.028 A 
ATOM     14  C   UNL     1       5.331  -0.315  25.443  0.00  0.00    +0.054 A 
ATOM     15  C   UNL     1       6.026   0.916  25.337  0.00  0.00    +0.165 A 
ATOM     16  C   UNL     1       6.769   1.386  26.431  0.00  0.00    +0.204 A 
ATOM     17  C   UNL     1       6.786   0.628  27.607  0.00  0.00    +0.165 A 
ATOM     18  C   UNL     1       6.127  -0.609  27.667  0.00  0.00    +0.054 A 
BRANCH  17  19
ATOM     19  O   UNL     1       7.456   1.202  28.665  0.00  0.00    -0.491 OA
ATOM     20  C   UNL     1       6.659   1.455  29.801  0.00  0.00    +0.277 C 
ENDBRANCH  17  19
BRANCH  16  21
ATOM     21  O   UNL     1       7.402   2.599  26.537  0.00  0.00    -0.488 OA
ATOM     22  C   UNL     1       6.630   3.744  26.853  0.00  0.00    +0.277 C 
ENDBRANCH  16  21
BRANCH  15  23
ATOM     23  O   UNL     1       5.991   1.711  24.221  0.00  0.00    -0.491 OA
ATOM     24  C   UNL     1       4.840   2.489  23.988  0.00  0.00    +0.277 C 
ENDBRANCH  15  23
ENDBRANCH  12  13
BRANCH  12  26
ATOM     25  C   UNL     1       2.495  -3.535  25.607  0.00  0.00    +0.005 C 
ATOM     26  C   UNL     1       3.107  -2.248  26.164  0.00  0.00    +0.014 C 
ENDBRANCH  12  26
ENDBRANCH   4  12
ENDBRANCH   2   6
ENDBRANCH   1   2
BRANCH   1  27
ATOM     27  C   UNL     1       7.266  -4.767  25.501  0.00  0.00    +0.207 C 
BRANCH  27  28
ATOM     28  C   UNL     1       6.738  -5.153  24.132  0.00  0.00    -0.004 A 
ATOM     29  C   UNL     1       5.350  -5.254  23.966  0.00  0.00    +0.053 A 
ATOM     30  C   UNL     1       4.782  -5.677  22.763  0.00  0.00    +0.122 A 
ATOM     31  C   UNL     1       5.617  -5.937  21.684  0.00  0.00    +0.046 A 
ATOM     32  C   UNL     1       7.001  -5.751  21.803  0.00  0.00    +0.004 A 
ATOM     33  C   UNL     1       7.561  -5.372  23.025  0.00  0.00    +0.007 A 
BRANCH  30  34
ATOM     34  O   UNL     1       3.462  -6.009  22.663  0.00  0.00    -0.481 OA
BRANCH  34  35
ATOM     35  C   UNL     1       2.863  -6.635  23.795  0.00  0.00    +0.349 C 
BRANCH  35  36
ATOM     36  C   UNL     1       2.170  -7.974  23.544  0.00  0.00    +0.343 C 
ATOM     37  O   UNL     1       2.090  -8.856  24.382  0.00  0.00    -0.247 OA
BRANCH  36  38
ATOM     38  O   UNL     1       1.727  -8.149  22.275  0.00  0.00    -0.478 OA
ATOM     39  H   UNL     1       0.763  -7.974  22.281  0.00  0.00    +0.295 HD
ENDBRANCH  36  38
ENDBRANCH  35  36
ENDBRANCH  34  35
ENDBRANCH  30  34
ENDBRANCH  27  28
BRANCH  27  40
ATOM     40  C   UNL     1       8.630  -4.097  25.398  0.00  0.00    +0.054 C 
BRANCH  40  41
ATOM     41  C   UNL     1       8.651  -2.700  26.025  0.00  0.00    +0.039 C 
BRANCH  41  42
ATOM     42  C   UNL     1       8.673  -1.678  24.926  0.00  0.00    -0.044 A 
ATOM     43  C   UNL     1       9.543  -0.587  25.005  0.00  0.00    +0.053 A 
ATOM     44  C   UNL     1       9.703   0.263  23.913  0.00  0.00    +0.162 A 
ATOM     45  C   UNL     1       8.963   0.038  22.732  0.00  0.00    +0.161 A 
ATOM     46  C   UNL     1       8.072  -1.028  22.677  0.00  0.00    +0.049 A 
ATOM     47  C   UNL     1       7.926  -1.889  23.767  0.00  0.00    +0.007 A 
BRANCH  45  48
ATOM     48  O   UNL     1       9.196   0.904  21.689  0.00  0.00    -0.491 OA
ATOM     49  C   UNL     1       8.092   1.681  21.237  0.00  0.00    +0.277 C 
ENDBRANCH  45  48
BRANCH  44  50
ATOM     50  O   UNL     1      10.582   1.322  23.885  0.00  0.00    -0.491 OA
ATOM     51  C   UNL     1      10.068   2.605  24.230  0.00  0.00    +0.277 C 
ENDBRANCH  44  50
ENDBRANCH  41  42
ENDBRANCH  40  41
ENDBRANCH  27  40
ENDBRANCH   1  27
TORSDOF 19
ENDMDL
MODEL 2
REMARK VINA RESULT:      -6.3      0.571      1.792
REMARK  Name = 
REMARK  25 active torsions:
REMARK  status: ('A' for Active; 'I' for Inactive)
REMARK    1  A    between atoms: C_1  and  C_2
REMARK    2  A    between atoms: C_2  and  C_3
REMARK    3  A    between atoms: C_3  and  C_5
REMARK    4  A    between atoms: C_3  and  C_42
REMARK    5  A    between atoms: C_12  and  C_14
REMARK    6  A    between atoms: C_14  and  O_16
REMARK    7  A    between atoms: O_16  and  C_17
REMARK    8  A    between atoms: C_17  and  C_19
REMARK    9  A    between atoms: C_17  and  C_31
REMARK   10  A    between atoms: C_19  and  C_20
REMARK   11  A    between atoms: C_20  and  C_21
REMARK   12  A    between atoms: C_24  and  O_25
REMARK   13  A    between atoms: O_25  and  C_26
REMARK   14  A    between atoms: C_27  and  O_28
REMARK   15  A    between atoms: O_28  and  C_29
REMARK   16  A    between atoms: C_35  and  O_36
REMARK   17  A    between atoms: O_36  and  C_37
REMARK   18  A    between atoms: C_37  and  C_38
REMARK   19  A    between atoms: C_38  and  O_39
REMARK   20  A    between atoms: C_44  and  O_45
REMARK   21  A    between atoms: O_45  and  C_46
REMARK   22  A    between atoms: C_47  and  O_48
REMARK   23  A    between atoms: O_48  and  C_49
REMARK   24  A    between atoms: C_50  and  O_51
REMARK   25  A    between atoms: O_51  and  C_52
REMARK                            x       y       z     vdW  Elec       q    Type
REMARK                         _______ _______ _______ _____ _____    ______ ____
ROOT
ATOM      1  O   UNL     1       6.951  -5.799  26.577  0.00  0.00    -0.455 OA
ENDROOT
BRANCH   1   2
ATOM      2  C   UNL     1       6.355  -5.620  27.791  0.00  0.00    +0.328 C 
ATOM      3  O   UNL     1       6.888  -5.889  28.858  0.00  0.00    -0.249 OA
BRANCH   2   6
ATOM      4  C   UNL     1       4.157  -2.897  28.497  0.00  0.00    +0.224 C 
ATOM      5  N   UNL     1       4.500  -4.228  28.687  0.00  0.00    -0.288 N 
ATOM      6  C   UNL     1       4.881  -5.190  27.640  0.00  0.00    +0.185 C 
ATOM      7  C   UNL     1       3.889  -6.363  27.655  0.00  0.00    +0.034 C 
ATOM      8  C   UNL     1       3.753  -7.016  29.031  0.00  0.00    +0.004 C 
ATOM      9  C   UNL     1       3.467  -5.987  30.120  0.00  0.00    +0.019 C 
ATOM     10  C   UNL     1       4.428  -4.805  30.046  0.00  0.00    +0.108 C 
ATOM     11  O   UNL     1       3.701  -2.256  29.459  0.00  0.00    -0.275 OA
BRANCH   4  12
ATOM     12  C   UNL     1       4.304  -2.210  27.101  0.00  0.00    +0.105 C 
BRANCH  12  13
ATOM     13  C   UNL     1       5.073  -0.874  27.080  0.00  0.00    -0.028 A 
ATOM     14  C   UNL     1       5.957  -0.506  28.114  0.00  0.00    +0.054 A 
ATOM     15  C   UNL     1       6.718   0.688  28.069  0.00  0.00    +0.165 A 
ATOM     16  C   UNL     1       6.592   1.546  26.966  0.00  0.00    +0.204 A 
ATOM     17  C   UNL     1       5.724   1.185  25.929  0.00  0.00    +0.165 A 
ATOM     18  C   UNL     1       4.948   0.020  26.023  0.00  0.00    +0.054 A 
BRANCH  17  19
ATOM     19  O   UNL     1       5.728   2.029  24.841  0.00  0.00    -0.491 OA
ATOM     20  C   UNL     1       4.479   2.615  24.544  0.00  0.00    +0.277 C 
ENDBRANCH  17  19
BRANCH  16  21
ATOM     21  O   UNL     1       7.330   2.675  26.711  0.00  0.00    -0.488 OA
ATOM     22  C   UNL     1       6.919   3.902  27.286  0.00  0.00    +0.277 C 
ENDBRANCH  16  21
BRANCH  15  23
ATOM     23  O   UNL     1       7.617   1.050  29.039  0.00  0.00    -0.491 OA
ATOM     24  C   UNL     1       7.128   1.637  30.221  0.00  0.00    +0.277 C 
ENDBRANCH  15  23
ENDBRANCH  12  13
BRANCH  12  26
ATOM     25  C   UNL     1       2.330  -3.388  25.878  0.00  0.00    +0.005 C 
ATOM     26  C   UNL     1       2.903  -2.090  26.451  0.00  0.00    +0.014 C 
ENDBRANCH  12  26
ENDBRANCH   4  12
ENDBRANCH   2   6
ENDBRANCH   1   2
BRANCH   1  27
ATOM     27  C   UNL     1       7.067  -4.650  25.712  0.00  0.00    +0.207 C 
BRANCH  27  28
ATOM     28  C   UNL     1       6.659  -5.077  24.315  0.00  0.00    -0.004 A 
ATOM     29  C   UNL     1       5.290  -5.175  24.030  0.00  0.00    +0.053 A 
ATOM     30  C   UNL     1       4.827  -5.634  22.795  0.00  0.00    +0.122 A 
ATOM     31  C   UNL     1       5.752  -5.935  21.803  0.00  0.00    +0.046 A 
ATOM     32  C   UNL     1       7.122  -5.754  22.039  0.00  0.00    +0.004 A 
ATOM     33  C   UNL     1       7.574  -5.338  23.294  0.00  0.00    +0.007 A 
BRANCH  30  34
ATOM     34  O   UNL     1       3.519  -5.960  22.588  0.00  0.00    -0.481 OA
BRANCH  34  35
ATOM     35  C   UNL     1       2.760  -6.351  23.730  0.00  0.00    +0.349 C 
BRANCH  35  36
ATOM     36  C   UNL     1       2.428  -7.838  23.849  0.00  0.00    +0.343 C 
ATOM     37  O   UNL     1       2.743  -8.522  24.808  0.00  0.00    -0.247 OA
BRANCH  36  38
ATOM     38  O   UNL     1       1.829  -8.371  22.756  0.00  0.00    -0.478 OA
ATOM     39  H   UNL     1       1.599  -7.626  22.163  0.00  0.00    +0.295 HD
ENDBRANCH  36  38
ENDBRANCH  35  36
ENDBRANCH  34  35
ENDBRANCH  30  34
ENDBRANCH  27  28
BRANCH  27  40
ATOM     40  C   UNL     1       8.409  -3.929  25.700  0.00  0.00    +0.054 C 
BRANCH  40  41
ATOM     41  C   UNL     1       8.345  -2.549  26.360  0.00  0.00    +0.039 C 
BRANCH  41  42
ATOM     42  C   UNL     1       8.273  -1.502  25.288  0.00  0.00    -0.044 A 
ATOM     43  C   UNL     1       9.116  -0.388  25.342  0.00  0.00    +0.053 A 
ATOM     44  C   UNL     1       9.187   0.490  24.263  0.00  0.00    +0.162 A 
ATOM     45  C   UNL     1       8.386   0.270  23.123  0.00  0.00    +0.161 A 
ATOM     46  C   UNL     1       7.522  -0.820  23.094  0.00  0.00    +0.049 A 
ATOM     47  C   UNL     1       7.465  -1.709  24.169  0.00  0.00    +0.007 A 
BRANCH  45  48
ATOM     48  O   UNL     1       8.533   1.166  22.088  0.00  0.00    -0.491 OA
ATOM     49  C   UNL     1       7.451   2.062  21.853  0.00  0.00    +0.277 C 
ENDBRANCH  45  48
BRANCH  44  50
ATOM     50  O   UNL     1      10.033   1.575  24.209  0.00  0.00    -0.491 OA
ATOM     51  C   UNL     1      11.430   1.310  24.124  0.00  0.00    +0.277 C 
ENDBRANCH  44  50
ENDBRANCH  41  42
ENDBRANCH  40  41
ENDBRANCH  27  40
ENDBRANCH   1  27
TORSDOF 19
ENDMDL
MODEL 3
REMARK VINA RESULT:      -6.3      2.365      8.489
REMARK  Name = 
REMARK  25 active torsions:
REMARK  status: ('A' for Active; 'I' for Inactive)
REMARK    1  A    between atoms: C_1  and  C_2
REMARK    2  A    between atoms: C_2  and  C_3
REMARK    3  A    between atoms: C_3  and  C_5
REMARK    4  A    between atoms: C_3  and  C_42
REMARK    5  A    between atoms: C_12  and  C_14
REMARK    6  A    between atoms: C_14  and  O_16
REMARK    7  A    between atoms: O_16  and  C_17
REMARK    8  A    between atoms: C_17  and  C_19
REMARK    9  A    between atoms: C_17  and  C_31
REMARK   10  A    between atoms: C_19  and  C_20
REMARK   11  A    between atoms: C_20  and  C_21
REMARK   12  A    between atoms: C_24  and  O_25
REMARK   13  A    between atoms: O_25  and  C_26
REMARK   14  A    between atoms: C_27  and  O_28
REMARK   15  A    between atoms: O_28  and  C_29
REMARK   16  A    between atoms: C_35  and  O_36
REMARK   17  A    between atoms: O_36  and  C_37
REMARK   18  A    between atoms: C_37  and  C_38
REMARK   19  A    between atoms: C_38  and  O_39
REMARK   20  A    between atoms: C_44  and  O_45
REMARK   21  A    between atoms: O_45  and  C_46
REMARK   22  A    between atoms: C_47  and  O_48
REMARK   23  A    between atoms: O_48  and  C_49
REMARK   24  A    between atoms: C_50  and  O_51
REMARK   25  A    between atoms: O_51  and  C_52
REMARK                            x       y       z     vdW  Elec       q    Type
REMARK                         _______ _______ _______ _____ _____    ______ ____
ROOT
ATOM      1  O   UNL     1       5.078   1.772  23.763  0.00  0.00    -0.455 OA
ENDROOT
BRANCH   1   2
ATOM      2  C   UNL     1       4.465   2.140  24.926  0.00  0.00    +0.328 C 
ATOM      3  O   UNL     1       3.523   2.918  24.983  0.00  0.00    -0.249 OA
BRANCH   2   6
ATOM      4  C   UNL     1       4.504  -0.684  27.109  0.00  0.00    +0.224 C 
ATOM      5  N   UNL     1       4.333   0.682  26.936  0.00  0.00    -0.288 N 
ATOM      6  C   UNL     1       5.204   1.579  26.157  0.00  0.00    +0.185 C 
ATOM      7  C   UNL     1       5.765   2.663  27.091  0.00  0.00    +0.034 C 
ATOM      8  C   UNL     1       4.676   3.418  27.854  0.00  0.00    +0.004 C 
ATOM      9  C   UNL     1       3.718   2.466  28.564  0.00  0.00    +0.019 C 
ATOM     10  C   UNL     1       3.223   1.366  27.631  0.00  0.00    +0.108 C 
ATOM     11  O   UNL     1       3.779  -1.276  27.926  0.00  0.00    -0.275 OA
BRANCH   4  12
ATOM     12  C   UNL     1       5.601  -1.474  26.325  0.00  0.00    +0.105 C 
BRANCH  12  13
ATOM     13  C   UNL     1       5.225  -2.902  25.885  0.00  0.00    -0.028 A 
ATOM     14  C   UNL     1       4.428  -3.147  24.748  0.00  0.00    +0.054 A 
ATOM     15  C   UNL     1       4.134  -4.459  24.299  0.00  0.00    +0.165 A 
ATOM     16  C   UNL     1       4.644  -5.560  25.003  0.00  0.00    +0.204 A 
ATOM     17  C   UNL     1       5.445  -5.328  26.126  0.00  0.00    +0.165 A 
ATOM     18  C   UNL     1       5.680  -4.019  26.576  0.00  0.00    +0.054 A 
BRANCH  17  19
ATOM     19  O   UNL     1       5.984  -6.455  26.705  0.00  0.00    -0.491 OA
ATOM     20  C   UNL     1       5.525  -6.725  28.012  0.00  0.00    +0.277 C 
ENDBRANCH  17  19
BRANCH  16  21
ATOM     21  O   UNL     1       4.552  -6.882  24.644  0.00  0.00    -0.488 OA
ATOM     22  C   UNL     1       3.425  -7.626  25.072  0.00  0.00    +0.277 C 
ENDBRANCH  16  21
BRANCH  15  23
ATOM     23  O   UNL     1       3.398  -4.726  23.174  0.00  0.00    -0.491 OA
ATOM     24  C   UNL     1       2.017  -4.964  23.317  0.00  0.00    +0.277 C 
ENDBRANCH  15  23
ENDBRANCH  12  13
BRANCH  12  26
ATOM     25  C   UNL     1       7.835  -0.246  26.854  0.00  0.00    +0.005 C 
ATOM     26  C   UNL     1       6.920  -1.439  27.137  0.00  0.00    +0.014 C 
ENDBRANCH  12  26
ENDBRANCH   4  12
ENDBRANCH   2   6
ENDBRANCH   1   2
BRANCH   1  27
ATOM     27  C   UNL     1       6.517   1.672  23.768  0.00  0.00    +0.207 C 
BRANCH  27  28
ATOM     28  C   UNL     1       7.078   3.032  23.397  0.00  0.00    -0.004 A 
ATOM     29  C   UNL     1       8.204   3.492  24.094  0.00  0.00    +0.053 A 
ATOM     30  C   UNL     1       8.738   4.762  23.870  0.00  0.00    +0.122 A 
ATOM     31  C   UNL     1       8.178   5.559  22.879  0.00  0.00    +0.046 A 
ATOM     32  C   UNL     1       7.112   5.079  22.108  0.00  0.00    +0.004 A 
ATOM     33  C   UNL     1       6.555   3.824  22.373  0.00  0.00    +0.007 A 
BRANCH  30  34
ATOM     34  O   UNL     1       9.672   5.311  24.699  0.00  0.00    -0.481 OA
BRANCH  34  35
ATOM     35  C   UNL     1      10.736   6.037  24.088  0.00  0.00    +0.349 C 
BRANCH  35  36
ATOM     36  C   UNL     1      11.968   5.228  23.684  0.00  0.00    +0.343 C 
ATOM     37  O   UNL     1      11.918   4.064  23.325  0.00  0.00    -0.247 OA
BRANCH  36  38
ATOM     38  O   UNL     1      13.146   5.879  23.843  0.00  0.00    -0.478 OA
ATOM     39  H   UNL     1      13.733   5.594  23.113  0.00  0.00    +0.295 HD
ENDBRANCH  36  38
ENDBRANCH  35  36
ENDBRANCH  34  35
ENDBRANCH  30  34
ENDBRANCH  27  28
BRANCH  27  40
ATOM     40  C   UNL     1       7.133   0.568  22.918  0.00  0.00    +0.054 C 
BRANCH  40  41
ATOM     41  C   UNL     1       8.197  -0.234  23.672  0.00  0.00    +0.039 C 
BRANCH  41  42
ATOM     42  C   UNL     1       8.050  -1.685  23.319  0.00  0.00    -0.044 A 
ATOM     43  C   UNL     1       8.719  -2.657  24.067  0.00  0.00    +0.053 A 
ATOM     44  C   UNL     1       8.446  -4.008  23.866  0.00  0.00    +0.162 A 
ATOM     45  C   UNL     1       7.510  -4.398  22.884  0.00  0.00    +0.161 A 
ATOM     46  C   UNL     1       6.878  -3.424  22.118  0.00  0.00    +0.049 A 
ATOM     47  C   UNL     1       7.140  -2.070  22.334  0.00  0.00    +0.007 A 
BRANCH  45  48
ATOM     48  O   UNL     1       7.275  -5.748  22.763  0.00  0.00    -0.491 OA
ATOM     49  C   UNL     1       6.498  -6.170  21.647  0.00  0.00    +0.277 C 
ENDBRANCH  45  48
BRANCH  44  50
ATOM     50  O   UNL     1       9.014  -5.026  24.599  0.00  0.00    -0.491 OA
ATOM     51  C   UNL     1       9.295  -4.764  25.970  0.00  0.00    +0.277 C 
ENDBRANCH  44  50
ENDBRANCH  41  42
ENDBRANCH  40  41
ENDBRANCH  27  40
ENDBRANCH   1  27
TORSDOF 19
ENDMDL
MODEL 4
REMARK VINA RESULT:      -6.2      2.370      7.304
REMARK  Name = 
REMARK  25 active torsions:
REMARK  status: ('A' for Active; 'I' for Inactive)
REMARK    1  A    between atoms: C_1  and  C_2
REMARK    2  A    between atoms: C_2  and  C_3
REMARK    3  A    between atoms: C_3  and  C_5
REMARK    4  A    between atoms: C_3  and  C_42
REMARK    5  A    between atoms: C_12  and  C_14
REMARK    6  A    between atoms: C_14  and  O_16
REMARK    7  A    between atoms: O_16  and  C_17
REMARK    8  A    between atoms: C_17  and  C_19
REMARK    9  A    between atoms: C_17  and  C_31
REMARK   10  A    between atoms: C_19  and  C_20
REMARK   11  A    between atoms: C_20  and  C_21
REMARK   12  A    between atoms: C_24  and  O_25
REMARK   13  A    between atoms: O_25  and  C_26
REMARK   14  A    between atoms: C_27  and  O_28
REMARK   15  A    between atoms: O_28  and  C_29
REMARK   16  A    between atoms: C_35  and  O_36
REMARK   17  A    between atoms: O_36  and  C_37
REMARK   18  A    between atoms: C_37  and  C_38
REMARK   19  A    between atoms: C_38  and  O_39
REMARK   20  A    between atoms: C_44  and  O_45
REMARK   21  A    between atoms: O_45  and  C_46
REMARK   22  A    between atoms: C_47  and  O_48
REMARK   23  A    between atoms: O_48  and  C_49
REMARK   24  A    between atoms: C_50  and  O_51
REMARK   25  A    between atoms: O_51  and  C_52
REMARK                            x       y       z     vdW  Elec       q    Type
REMARK                         _______ _______ _______ _____ _____    ______ ____
ROOT
ATOM      1  O   UNL     1       8.240  -1.639  25.372  0.00  0.00    -0.455 OA
ENDROOT
BRANCH   1   2
ATOM      2  C   UNL     1       8.084  -0.716  26.365  0.00  0.00    +0.328 C 
ATOM      3  O   UNL     1       8.828  -0.622  27.331  0.00  0.00    -0.249 OA
BRANCH   2   6
ATOM      4  C   UNL     1       5.401   0.677  28.265  0.00  0.00    +0.224 C 
ATOM      5  N   UNL     1       5.831  -0.212  27.289  0.00  0.00    -0.288 N 
ATOM      6  C   UNL     1       6.774   0.080  26.196  0.00  0.00    +0.185 C 
ATOM      7  C   UNL     1       6.070  -0.162  24.852  0.00  0.00    +0.034 C 
ATOM      8  C   UNL     1       5.456  -1.558  24.740  0.00  0.00    +0.004 C 
ATOM      9  C   UNL     1       4.569  -1.884  25.939  0.00  0.00    +0.019 C 
ATOM     10  C   UNL     1       5.270  -1.578  27.258  0.00  0.00    +0.108 C 
ATOM     11  O   UNL     1       4.480   0.329  29.022  0.00  0.00    -0.275 OA
BRANCH   4  12
ATOM     12  C   UNL     1       6.029   2.101  28.402  0.00  0.00    +0.105 C 
BRANCH  12  13
ATOM     13  C   UNL     1       6.096   2.940  27.111  0.00  0.00    -0.028 A 
ATOM     14  C   UNL     1       4.972   3.122  26.280  0.00  0.00    +0.054 A 
ATOM     15  C   UNL     1       5.008   3.947  25.129  0.00  0.00    +0.165 A 
ATOM     16  C   UNL     1       6.199   4.606  24.788  0.00  0.00    +0.204 A 
ATOM     17  C   UNL     1       7.317   4.441  25.612  0.00  0.00    +0.165 A 
ATOM     18  C   UNL     1       7.266   3.580  26.720  0.00  0.00    +0.054 A 
BRANCH  17  19
ATOM     19  O   UNL     1       8.417   5.194  25.266  0.00  0.00    -0.491 OA
ATOM     20  C   UNL     1       8.779   6.178  26.210  0.00  0.00    +0.277 C 
ENDBRANCH  17  19
BRANCH  16  21
ATOM     21  O   UNL     1       6.375   5.522  23.781  0.00  0.00    -0.488 OA
ATOM     22  C   UNL     1       6.761   5.059  22.499  0.00  0.00    +0.277 C 
ENDBRANCH  16  21
BRANCH  15  23
ATOM     23  O   UNL     1       3.919   4.175  24.327  0.00  0.00    -0.491 OA
ATOM     24  C   UNL     1       3.588   3.212  23.354  0.00  0.00    +0.277 C 
ENDBRANCH  15  23
ENDBRANCH  12  13
BRANCH  12  26
ATOM     25  C   UNL     1       7.396   1.346  30.485  0.00  0.00    +0.005 C 
ATOM     26  C   UNL     1       7.411   1.976  29.091  0.00  0.00    +0.014 C 
ENDBRANCH  12  26
ENDBRANCH   4  12
ENDBRANCH   2   6
ENDBRANCH   1   2
BRANCH   1  27
ATOM     27  C   UNL     1       9.530  -1.723  24.733  0.00  0.00    +0.207 C 
BRANCH  27  28
ATOM     28  C   UNL     1       9.636  -0.573  23.749  0.00  0.00    -0.004 A 
ATOM     29  C   UNL     1      10.124   0.654  24.219  0.00  0.00    +0.053 A 
ATOM     30  C   UNL     1      10.182   1.784  23.402  0.00  0.00    +0.122 A 
ATOM     31  C   UNL     1       9.809   1.666  22.069  0.00  0.00    +0.046 A 
ATOM     32  C   UNL     1       9.407   0.425  21.557  0.00  0.00    +0.004 A 
ATOM     33  C   UNL     1       9.309  -0.688  22.396  0.00  0.00    +0.007 A 
BRANCH  30  34
ATOM     34  O   UNL     1      10.424   3.029  23.905  0.00  0.00    -0.481 OA
BRANCH  34  35
ATOM     35  C   UNL     1      11.497   3.766  23.324  0.00  0.00    +0.349 C 
BRANCH  35  36
ATOM     36  C   UNL     1      11.466   5.281  23.518  0.00  0.00    +0.343 C 
ATOM     37  O   UNL     1      12.330   5.899  24.117  0.00  0.00    -0.247 OA
BRANCH  36  38
ATOM     38  O   UNL     1      10.346   5.886  23.052  0.00  0.00    -0.478 OA
ATOM     39  H   UNL     1      10.195   6.679  23.606  0.00  0.00    +0.295 HD
ENDBRANCH  36  38
ENDBRANCH  35  36
ENDBRANCH  34  35
ENDBRANCH  30  34
ENDBRANCH  27  28
BRANCH  27  40
ATOM     40  C   UNL     1       9.888  -3.049  24.074  0.00  0.00    +0.054 C 
BRANCH  40  41
ATOM     41  C   UNL     1       9.476  -4.258  24.917  0.00  0.00    +0.039 C 
BRANCH  41  42
ATOM     42  C   UNL     1       8.011  -4.512  24.716  0.00  0.00    -0.044 A 
ATOM     43  C   UNL     1       7.469  -4.491  23.427  0.00  0.00    +0.053 A 
ATOM     44  C   UNL     1       6.157  -4.903  23.211  0.00  0.00    +0.162 A 
ATOM     45  C   UNL     1       5.362  -5.317  24.301  0.00  0.00    +0.161 A 
ATOM     46  C   UNL     1       5.898  -5.298  25.585  0.00  0.00    +0.049 A 
ATOM     47  C   UNL     1       7.219  -4.901  25.796  0.00  0.00    +0.007 A 
BRANCH  45  48
ATOM     48  O   UNL     1       4.084  -5.736  24.004  0.00  0.00    -0.491 OA
ATOM     49  C   UNL     1       3.136  -5.715  25.065  0.00  0.00    +0.277 C 
ENDBRANCH  45  48
BRANCH  44  50
ATOM     50  O   UNL     1       5.566  -4.971  21.970  0.00  0.00    -0.491 OA
ATOM     51  C   UNL     1       6.274  -5.664  20.947  0.00  0.00    +0.277 C 
ENDBRANCH  44  50
ENDBRANCH  41  42
ENDBRANCH  40  41
ENDBRANCH  27  40
ENDBRANCH   1  27
TORSDOF 19
ENDMDL
MODEL 5
REMARK VINA RESULT:      -6.2      2.237      8.157
REMARK  Name = 
REMARK  25 active torsions:
REMARK  status: ('A' for Active; 'I' for Inactive)
REMARK    1  A    between atoms: C_1  and  C_2
REMARK    2  A    between atoms: C_2  and  C_3
REMARK    3  A    between atoms: C_3  and  C_5
REMARK    4  A    between atoms: C_3  and  C_42
REMARK    5  A    between atoms: C_12  and  C_14
REMARK    6  A    between atoms: C_14  and  O_16
REMARK    7  A    between atoms: O_16  and  C_17
REMARK    8  A    between atoms: C_17  and  C_19
REMARK    9  A    between atoms: C_17  and  C_31
REMARK   10  A    between atoms: C_19  and  C_20
REMARK   11  A    between atoms: C_20  and  C_21
REMARK   12  A    between atoms: C_24  and  O_25
REMARK   13  A    between atoms: O_25  and  C_26
REMARK   14  A    between atoms: C_27  and  O_28
REMARK   15  A    between atoms: O_28  and  C_29
REMARK   16  A    between atoms: C_35  and  O_36
REMARK   17  A    between atoms: O_36  and  C_37
REMARK   18  A    between atoms: C_37  and  C_38
REMARK   19  A    between atoms: C_38  and  O_39
REMARK   20  A    between atoms: C_44  and  O_45
REMARK   21  A    between atoms: O_45  and  C_46
REMARK   22  A    between atoms: C_47  and  O_48
REMARK   23  A    between atoms: O_48  and  C_49
REMARK   24  A    between atoms: C_50  and  O_51
REMARK   25  A    between atoms: O_51  and  C_52
REMARK                            x       y       z     vdW  Elec       q    Type
REMARK                         _______ _______ _______ _____ _____    ______ ____
ROOT
ATOM      1  O   UNL     1       8.152  -1.464  25.418  0.00  0.00    -0.455 OA
ENDROOT
BRANCH   1   2
ATOM      2  C   UNL     1       8.169  -0.788  26.603  0.00  0.00    +0.328 C 
ATOM      3  O   UNL     1       9.107  -0.811  27.388  0.00  0.00    -0.249 OA
BRANCH   2   6
ATOM      4  C   UNL     1       4.663  -1.456  26.501  0.00  0.00    +0.224 C 
ATOM      5  N   UNL     1       5.744  -0.706  26.058  0.00  0.00    -0.288 N 
ATOM      6  C   UNL     1       6.807  -0.127  26.897  0.00  0.00    +0.185 C 
ATOM      7  C   UNL     1       6.807   1.399  26.717  0.00  0.00    +0.034 C 
ATOM      8  C   UNL     1       6.913   1.830  25.253  0.00  0.00    +0.004 C 
ATOM      9  C   UNL     1       5.873   1.133  24.382  0.00  0.00    +0.019 C 
ATOM     10  C   UNL     1       5.853  -0.373  24.623  0.00  0.00    +0.108 C 
ATOM     11  O   UNL     1       3.763  -1.738  25.692  0.00  0.00    -0.275 OA
BRANCH   4  12
ATOM     12  C   UNL     1       4.548  -1.918  27.990  0.00  0.00    +0.105 C 
BRANCH  12  13
ATOM     13  C   UNL     1       3.973  -3.329  28.219  0.00  0.00    -0.028 A 
ATOM     14  C   UNL     1       2.674  -3.683  27.801  0.00  0.00    +0.054 A 
ATOM     15  C   UNL     1       2.164  -4.996  27.948  0.00  0.00    +0.165 A 
ATOM     16  C   UNL     1       2.966  -5.987  28.534  0.00  0.00    +0.204 A 
ATOM     17  C   UNL     1       4.260  -5.650  28.942  0.00  0.00    +0.165 A 
ATOM     18  C   UNL     1       4.722  -4.329  28.828  0.00  0.00    +0.054 A 
BRANCH  17  19
ATOM     19  O   UNL     1       5.018  -6.697  29.418  0.00  0.00    -0.491 OA
ATOM     20  C   UNL     1       6.404  -6.574  29.190  0.00  0.00    +0.277 C 
ENDBRANCH  17  19
BRANCH  16  21
ATOM     21  O   UNL     1       2.673  -7.323  28.648  0.00  0.00    -0.488 OA
ATOM     22  C   UNL     1       1.880  -7.756  29.739  0.00  0.00    +0.277 C 
ENDBRANCH  16  21
BRANCH  15  23
ATOM     23  O   UNL     1       0.921  -5.378  27.513  0.00  0.00    -0.491 OA
ATOM     24  C   UNL     1       0.624  -5.258  26.142  0.00  0.00    +0.277 C 
ENDBRANCH  15  23
ENDBRANCH  12  13
BRANCH  12  26
ATOM     25  C   UNL     1       4.607  -0.090  29.843  0.00  0.00    +0.005 C 
ATOM     26  C   UNL     1       3.782  -0.836  28.792  0.00  0.00    +0.014 C 
ENDBRANCH  12  26
ENDBRANCH   4  12
ENDBRANCH   2   6
ENDBRANCH   1   2
BRANCH   1  27
ATOM     27  C   UNL     1       9.404  -1.618  24.718  0.00  0.00    +0.207 C 
BRANCH  27  28
ATOM     28  C   UNL     1       9.515  -0.489  23.711  0.00  0.00    -0.004 A 
ATOM     29  C   UNL     1      10.219   0.663  24.088  0.00  0.00    +0.053 A 
ATOM     30  C   UNL     1      10.303   1.779  23.253  0.00  0.00    +0.122 A 
ATOM     31  C   UNL     1       9.733   1.713  21.988  0.00  0.00    +0.046 A 
ATOM     32  C   UNL     1       9.106   0.536  21.558  0.00  0.00    +0.004 A 
ATOM     33  C   UNL     1       8.987  -0.557  22.420  0.00  0.00    +0.007 A 
BRANCH  30  34
ATOM     34  O   UNL     1      10.772   2.981  23.697  0.00  0.00    -0.481 OA
BRANCH  34  35
ATOM     35  C   UNL     1       9.815   4.020  23.888  0.00  0.00    +0.349 C 
BRANCH  35  36
ATOM     36  C   UNL     1      10.240   5.424  23.459  0.00  0.00    +0.343 C 
ATOM     37  O   UNL     1       9.484   6.380  23.447  0.00  0.00    -0.247 OA
BRANCH  36  38
ATOM     38  O   UNL     1      11.512   5.510  22.998  0.00  0.00    -0.478 OA
ATOM     39  H   UNL     1      11.657   6.440  22.728  0.00  0.00    +0.295 HD
ENDBRANCH  36  38
ENDBRANCH  35  36
ENDBRANCH  34  35
ENDBRANCH  30  34
ENDBRANCH  27  28
BRANCH  27  40
ATOM     40  C   UNL     1       9.667  -2.969  24.065  0.00  0.00    +0.054 C 
BRANCH  40  41
ATOM     41  C   UNL     1       9.365  -4.145  24.997  0.00  0.00    +0.039 C 
BRANCH  41  42
ATOM     42  C   UNL     1       7.974  -4.636  24.721  0.00  0.00    -0.044 A 
ATOM     43  C   UNL     1       7.641  -5.116  23.452  0.00  0.00    +0.053 A 
ATOM     44  C   UNL     1       6.415  -5.740  23.236  0.00  0.00    +0.162 A 
ATOM     45  C   UNL     1       5.493  -5.864  24.298  0.00  0.00    +0.161 A 
ATOM     46  C   UNL     1       5.817  -5.348  25.548  0.00  0.00    +0.049 A 
ATOM     47  C   UNL     1       7.054  -4.738  25.766  0.00  0.00    +0.007 A 
BRANCH  45  48
ATOM     48  O   UNL     1       4.315  -6.516  24.013  0.00  0.00    -0.491 OA
ATOM     49  C   UNL     1       3.736  -7.287  25.061  0.00  0.00    +0.277 C 
ENDBRANCH  45  48
BRANCH  44  50
ATOM     50  O   UNL     1       6.034  -6.295  22.035  0.00  0.00    -0.491 OA
ATOM     51  C   UNL     1       6.259  -5.523  20.860  0.00  0.00    +0.277 C 
ENDBRANCH  44  50
ENDBRANCH  41  42
ENDBRANCH  40  41
ENDBRANCH  27  40
ENDBRANCH   1  27
TORSDOF 19
ENDMDL
MODEL 6
REMARK VINA RESULT:      -6.1      2.263      7.329
REMARK  Name = 
REMARK  25 active torsions:
REMARK  status: ('A' for Active; 'I' for Inactive)
REMARK    1  A    between atoms: C_1  and  C_2
REMARK    2  A    between atoms: C_2  and  C_3
REMARK    3  A    between atoms: C_3  and  C_5
REMARK    4  A    between atoms: C_3  and  C_42
REMARK    5  A    between atoms: C_12  and  C_14
REMARK    6  A    between atoms: C_14  and  O_16
REMARK    7  A    between atoms: O_16  and  C_17
REMARK    8  A    between atoms: C_17  and  C_19
REMARK    9  A    between atoms: C_17  and  C_31
REMARK   10  A    between atoms: C_19  and  C_20
REMARK   11  A    between atoms: C_20  and  C_21
REMARK   12  A    between atoms: C_24  and  O_25
REMARK   13  A    between atoms: O_25  and  C_26
REMARK   14  A    between atoms: C_27  and  O_28
REMARK   15  A    between atoms: O_28  and  C_29
REMARK   16  A    between atoms: C_35  and  O_36
REMARK   17  A    between atoms: O_36  and  C_37
REMARK   18  A    between atoms: C_37  and  C_38
REMARK   19  A    between atoms: C_38  and  O_39
REMARK   20  A    between atoms: C_44  and  O_45
REMARK   21  A    between atoms: O_45  and  C_46
REMARK   22  A    between atoms: C_47  and  O_48
REMARK   23  A    between atoms: O_48  and  C_49
REMARK   24  A    between atoms: C_50  and  O_51
REMARK   25  A    between atoms: O_51  and  C_52
REMARK                            x       y       z     vdW  Elec       q    Type
REMARK                         _______ _______ _______ _____ _____    ______ ____
ROOT
ATOM      1  O   UNL     1       8.139  -1.771  25.348  0.00  0.00    -0.455 OA
ENDROOT
BRANCH   1   2
ATOM      2  C   UNL     1       7.893  -0.726  26.191  0.00  0.00    +0.328 C 
ATOM      3  O   UNL     1       8.626  -0.412  27.118  0.00  0.00    -0.249 OA
BRANCH   2   6
ATOM      4  C   UNL     1       5.029   0.540  27.906  0.00  0.00    +0.224 C 
ATOM      5  N   UNL     1       5.577  -0.386  27.029  0.00  0.00    -0.288 N 
ATOM      6  C   UNL     1       6.509  -0.099  25.926  0.00  0.00    +0.185 C 
ATOM      7  C   UNL     1       5.868  -0.547  24.603  0.00  0.00    +0.034 C 
ATOM      8  C   UNL     1       5.412  -2.006  24.621  0.00  0.00    +0.004 C 
ATOM      9  C   UNL     1       4.536  -2.309  25.833  0.00  0.00    +0.019 C 
ATOM     10  C   UNL     1       5.167  -1.802  27.126  0.00  0.00    +0.108 C 
ATOM     11  O   UNL     1       4.132   0.169  28.681  0.00  0.00    -0.275 OA
BRANCH   4  12
ATOM     12  C   UNL     1       5.496   2.032  27.910  0.00  0.00    +0.105 C 
BRANCH  12  13
ATOM     13  C   UNL     1       5.248   2.824  26.611  0.00  0.00    -0.028 A 
ATOM     14  C   UNL     1       6.153   3.800  26.149  0.00  0.00    +0.054 A 
ATOM     15  C   UNL     1       5.966   4.484  24.921  0.00  0.00    +0.165 A 
ATOM     16  C   UNL     1       4.843   4.192  24.133  0.00  0.00    +0.204 A 
ATOM     17  C   UNL     1       3.944   3.217  24.578  0.00  0.00    +0.165 A 
ATOM     18  C   UNL     1       4.130   2.590  25.820  0.00  0.00    +0.054 A 
BRANCH  17  19
ATOM     19  O   UNL     1       2.921   2.920  23.705  0.00  0.00    -0.491 OA
ATOM     20  C   UNL     1       1.638   3.303  24.147  0.00  0.00    +0.277 C 
ENDBRANCH  17  19
BRANCH  16  21
ATOM     21  O   UNL     1       4.571   4.674  22.877  0.00  0.00    -0.488 OA
ATOM     22  C   UNL     1       4.001   5.965  22.751  0.00  0.00    +0.277 C 
ENDBRANCH  16  21
BRANCH  15  23
ATOM     23  O   UNL     1       6.851   5.407  24.427  0.00  0.00    -0.491 OA
ATOM     24  C   UNL     1       6.984   6.636  25.100  0.00  0.00    +0.277 C 
ENDBRANCH  15  23
ENDBRANCH  12  13
BRANCH  12  26
ATOM     25  C   UNL     1       7.262   1.555  29.763  0.00  0.00    +0.005 C 
ATOM     26  C   UNL     1       6.978   2.092  28.359  0.00  0.00    +0.014 C 
ENDBRANCH  12  26
ENDBRANCH   4  12
ENDBRANCH   2   6
ENDBRANCH   1   2
BRANCH   1  27
ATOM     27  C   UNL     1       9.448  -1.853  24.748  0.00  0.00    +0.207 C 
BRANCH  27  28
ATOM     28  C   UNL     1       9.558  -0.743  23.720  0.00  0.00    -0.004 A 
ATOM     29  C   UNL     1      10.261   0.417  24.075  0.00  0.00    +0.053 A 
ATOM     30  C   UNL     1      10.345   1.517  23.219  0.00  0.00    +0.122 A 
ATOM     31  C   UNL     1       9.774   1.427  21.956  0.00  0.00    +0.046 A 
ATOM     32  C   UNL     1       9.149   0.241  21.548  0.00  0.00    +0.004 A 
ATOM     33  C   UNL     1       9.030  -0.836  22.431  0.00  0.00    +0.007 A 
BRANCH  30  34
ATOM     34  O   UNL     1      10.812   2.727  23.640  0.00  0.00    -0.481 OA
BRANCH  34  35
ATOM     35  C   UNL     1       9.857   3.775  23.792  0.00  0.00    +0.349 C 
BRANCH  35  36
ATOM     36  C   UNL     1      10.370   5.199  23.586  0.00  0.00    +0.343 C 
ATOM     37  O   UNL     1      11.409   5.615  24.069  0.00  0.00    -0.247 OA
BRANCH  36  38
ATOM     38  O   UNL     1       9.530   6.005  22.892  0.00  0.00    -0.478 OA
ATOM     39  H   UNL     1       9.189   6.675  23.521  0.00  0.00    +0.295 HD
ENDBRANCH  36  38
ENDBRANCH  35  36
ENDBRANCH  34  35
ENDBRANCH  30  34
ENDBRANCH  27  28
BRANCH  27  40
ATOM     40  C   UNL     1       9.852  -3.197  24.156  0.00  0.00    +0.054 C 
BRANCH  40  41
ATOM     41  C   UNL     1       9.559  -4.369  25.096  0.00  0.00    +0.039 C 
BRANCH  41  42
ATOM     42  C   UNL     1       8.121  -4.767  24.939  0.00  0.00    -0.044 A 
ATOM     43  C   UNL     1       7.573  -4.917  23.662  0.00  0.00    +0.053 A 
ATOM     44  C   UNL     1       6.301  -5.461  23.503  0.00  0.00    +0.162 A 
ATOM     45  C   UNL     1       5.551  -5.837  24.638  0.00  0.00    +0.161 A 
ATOM     46  C   UNL     1       6.089  -5.648  25.906  0.00  0.00    +0.049 A 
ATOM     47  C   UNL     1       7.372  -5.119  26.062  0.00  0.00    +0.007 A 
BRANCH  45  48
ATOM     48  O   UNL     1       4.314  -6.391  24.398  0.00  0.00    -0.491 OA
ATOM     49  C   UNL     1       3.791  -7.258  25.400  0.00  0.00    +0.277 C 
ENDBRANCH  45  48
BRANCH  44  50
ATOM     50  O   UNL     1       5.712  -5.698  22.281  0.00  0.00    -0.491 OA
ATOM     51  C   UNL     1       6.565  -5.726  21.141  0.00  0.00    +0.277 C 
ENDBRANCH  44  50
ENDBRANCH  41  42
ENDBRANCH  40  41
ENDBRANCH  27  40
ENDBRANCH   1  27
TORSDOF 19
ENDMDL
MODEL 7
REMARK VINA RESULT:      -6.0      2.465      6.815
REMARK  Name = 
REMARK  25 active torsions:
REMARK  status: ('A' for Active; 'I' for Inactive)
REMARK    1  A    between atoms: C_1  and  C_2
REMARK    2  A    between atoms: C_2  and  C_3
REMARK    3  A    between atoms: C_3  and  C_5
REMARK    4  A    between atoms: C_3  and  C_42
REMARK    5  A    between atoms: C_12  and  C_14
REMARK    6  A    between atoms: C_14  and  O_16
REMARK    7  A    between atoms: O_16  and  C_17
REMARK    8  A    between atoms: C_17  and  C_19
REMARK    9  A    between atoms: C_17  and  C_31
REMARK   10  A    between atoms: C_19  and  C_20
REMARK   11  A    between atoms: C_20  and  C_21
REMARK   12  A    between atoms: C_24  and  O_25
REMARK   13  A    between atoms: O_25  and  C_26
REMARK   14  A    between atoms: C_27  and  O_28
REMARK   15  A    between atoms: O_28  and  C_29
REMARK   16  A    between atoms: C_35  and  O_36
REMARK   17  A    between atoms: O_36  and  C_37
REMARK   18  A    between atoms: C_37  and  C_38
REMARK   19  A    between atoms: C_38  and  O_39
REMARK   20  A    between atoms: C_44  and  O_45
REMARK   21  A    between atoms: O_45  and  C_46
REMARK   22  A    between atoms: C_47  and  O_48
REMARK   23  A    between atoms: O_48  and  C_49
REMARK   24  A    between atoms: C_50  and  O_51
REMARK   25  A    between atoms: O_51  and  C_52
REMARK                            x       y       z     vdW  Elec       q    Type
REMARK                         _______ _______ _______ _____ _____    ______ ____
ROOT
ATOM      1  O   UNL     1       8.015  -0.582  25.254  0.00  0.00    -0.455 OA
ENDROOT
BRANCH   1   2
ATOM      2  C   UNL     1       8.128   0.714  25.665  0.00  0.00    +0.328 C 
ATOM      3  O   UNL     1       7.572   1.166  26.656  0.00  0.00    -0.249 OA
BRANCH   2   6
ATOM      4  C   UNL     1       7.706   2.461  22.581  0.00  0.00    +0.224 C 
ATOM      5  N   UNL     1       8.327   1.449  23.299  0.00  0.00    -0.288 N 
ATOM      6  C   UNL     1       8.911   1.565  24.645  0.00  0.00    +0.185 C 
ATOM      7  C   UNL     1      10.408   1.222  24.570  0.00  0.00    +0.034 C 
ATOM      8  C   UNL     1      10.679  -0.139  23.927  0.00  0.00    +0.004 C 
ATOM      9  C   UNL     1       9.973  -0.280  22.582  0.00  0.00    +0.019 C 
ATOM     10  C   UNL     1       8.505   0.123  22.671  0.00  0.00    +0.108 C 
ATOM     11  O   UNL     1       7.408   2.254  21.393  0.00  0.00    -0.275 OA
BRANCH   4  12
ATOM     12  C   UNL     1       7.407   3.852  23.229  0.00  0.00    +0.105 C 
BRANCH  12  13
ATOM     13  C   UNL     1       6.245   3.894  24.240  0.00  0.00    -0.028 A 
ATOM     14  C   UNL     1       4.981   3.343  23.947  0.00  0.00    +0.054 A 
ATOM     15  C   UNL     1       3.929   3.317  24.896  0.00  0.00    +0.165 A 
ATOM     16  C   UNL     1       4.137   3.861  26.173  0.00  0.00    +0.204 A 
ATOM     17  C   UNL     1       5.391   4.401  26.477  0.00  0.00    +0.165 A 
ATOM     18  C   UNL     1       6.399   4.456  25.502  0.00  0.00    +0.054 A 
BRANCH  17  19
ATOM     19  O   UNL     1       5.546   4.827  27.777  0.00  0.00    -0.491 OA
ATOM     20  C   UNL     1       6.605   4.210  28.478  0.00  0.00    +0.277 C 
ENDBRANCH  17  19
BRANCH  16  21
ATOM     21  O   UNL     1       3.272   3.817  27.238  0.00  0.00    -0.488 OA
ATOM     22  C   UNL     1       2.225   4.769  27.304  0.00  0.00    +0.277 C 
ENDBRANCH  16  21
BRANCH  15  23
ATOM     23  O   UNL     1       2.705   2.750  24.653  0.00  0.00    -0.491 OA
ATOM     24  C   UNL     1       1.831   3.397  23.758  0.00  0.00    +0.277 C 
ENDBRANCH  15  23
ENDBRANCH  12  13
BRANCH  12  26
ATOM     25  C   UNL     1       7.733   6.313  22.443  0.00  0.00    +0.005 C 
ATOM     26  C   UNL     1       7.242   4.904  22.103  0.00  0.00    +0.014 C 
ENDBRANCH  12  26
ENDBRANCH   4  12
ENDBRANCH   2   6
ENDBRANCH   1   2
BRANCH   1  27
ATOM     27  C   UNL     1       7.174  -1.460  26.032  0.00  0.00    +0.207 C 
BRANCH  27  28
ATOM     28  C   UNL     1       7.776  -2.851  25.974  0.00  0.00    -0.004 A 
ATOM     29  C   UNL     1       7.234  -3.838  26.809  0.00  0.00    +0.053 A 
ATOM     30  C   UNL     1       7.776  -5.123  26.876  0.00  0.00    +0.122 A 
ATOM     31  C   UNL     1       8.836  -5.447  26.039  0.00  0.00    +0.046 A 
ATOM     32  C   UNL     1       9.330  -4.501  25.130  0.00  0.00    +0.004 A 
ATOM     33  C   UNL     1       8.810  -3.205  25.106  0.00  0.00    +0.007 A 
BRANCH  30  34
ATOM     34  O   UNL     1       7.417  -6.010  27.849  0.00  0.00    -0.481 OA
BRANCH  34  35
ATOM     35  C   UNL     1       6.190  -5.761  28.533  0.00  0.00    +0.349 C 
BRANCH  35  36
ATOM     36  C   UNL     1       5.134  -6.863  28.457  0.00  0.00    +0.343 C 
ATOM     37  O   UNL     1       4.504  -7.256  29.423  0.00  0.00    -0.247 OA
BRANCH  36  38
ATOM     38  O   UNL     1       5.012  -7.443  27.238  0.00  0.00    -0.478 OA
ATOM     39  H   UNL     1       4.847  -6.725  26.593  0.00  0.00    +0.295 HD
ENDBRANCH  36  38
ENDBRANCH  35  36
ENDBRANCH  34  35
ENDBRANCH  30  34
ENDBRANCH  27  28
BRANCH  27  40
ATOM     40  C   UNL     1       5.692  -1.484  25.679  0.00  0.00    +0.054 C 
BRANCH  40  41
ATOM     41  C   UNL     1       5.439  -1.831  24.210  0.00  0.00    +0.039 C 
BRANCH  41  42
ATOM     42  C   UNL     1       4.976  -3.256  24.122  0.00  0.00    -0.044 A 
ATOM     43  C   UNL     1       5.628  -4.151  23.270  0.00  0.00    +0.053 A 
ATOM     44  C   UNL     1       5.328  -5.510  23.317  0.00  0.00    +0.162 A 
ATOM     45  C   UNL     1       4.341  -5.981  24.209  0.00  0.00    +0.161 A 
ATOM     46  C   UNL     1       3.670  -5.077  25.026  0.00  0.00    +0.049 A 
ATOM     47  C   UNL     1       3.985  -3.717  24.989  0.00  0.00    +0.007 A 
BRANCH  45  48
ATOM     48  O   UNL     1       4.119  -7.340  24.216  0.00  0.00    -0.491 OA
ATOM     49  C   UNL     1       2.797  -7.776  24.511  0.00  0.00    +0.277 C 
ENDBRANCH  45  48
BRANCH  44  50
ATOM     50  O   UNL     1       5.964  -6.466  22.558  0.00  0.00    -0.491 OA
ATOM     51  C   UNL     1       7.198  -6.100  21.948  0.00  0.00    +0.277 C 
ENDBRANCH  44  50
ENDBRANCH  41  42
ENDBRANCH  40  41
ENDBRANCH  27  40
ENDBRANCH   1  27
TORSDOF 19
ENDMDL
MODEL 8
REMARK VINA RESULT:      -6.0      2.667      8.889
REMARK  Name = 
REMARK  25 active torsions:
REMARK  status: ('A' for Active; 'I' for Inactive)
REMARK    1  A    between atoms: C_1  and  C_2
REMARK    2  A    between atoms: C_2  and  C_3
REMARK    3  A    between atoms: C_3  and  C_5
REMARK    4  A    between atoms: C_3  and  C_42
REMARK    5  A    between atoms: C_12  and  C_14
REMARK    6  A    between atoms: C_14  and  O_16
REMARK    7  A    between atoms: O_16  and  C_17
REMARK    8  A    between atoms: C_17  and  C_19
REMARK    9  A    between atoms: C_17  and  C_31
REMARK   10  A    between atoms: C_19  and  C_20
REMARK   11  A    between atoms: C_20  and  C_21
REMARK   12  A    between atoms: C_24  and  O_25
REMARK   13  A    between atoms: O_25  and  C_26
REMARK   14  A    between atoms: C_27  and  O_28
REMARK   15  A    between atoms: O_28  and  C_29
REMARK   16  A    between atoms: C_35  and  O_36
REMARK   17  A    between atoms: O_36  and  C_37
REMARK   18  A    between atoms: C_37  and  C_38
REMARK   19  A    between atoms: C_38  and  O_39
REMARK   20  A    between atoms: C_44  and  O_45
REMARK   21  A    between atoms: O_45  and  C_46
REMARK   22  A    between atoms: C_47  and  O_48
REMARK   23  A    between atoms: O_48  and  C_49
REMARK   24  A    between atoms: C_50  and  O_51
REMARK   25  A    between atoms: O_51  and  C_52
REMARK                            x       y       z     vdW  Elec       q    Type
REMARK                         _______ _______ _______ _____ _____    ______ ____
ROOT
ATOM      1  O   UNL     1       7.590   1.525  24.078  0.00  0.00    -0.455 OA
ENDROOT
BRANCH   1   2
ATOM      2  C   UNL     1       8.163   1.285  25.293  0.00  0.00    +0.328 C 
ATOM      3  O   UNL     1       9.288   0.826  25.437  0.00  0.00    -0.249 OA
BRANCH   2   6
ATOM      4  C   UNL     1       4.930   0.279  26.425  0.00  0.00    +0.224 C 
ATOM      5  N   UNL     1       5.779   1.291  25.999  0.00  0.00    -0.288 N 
ATOM      6  C   UNL     1       7.164   1.515  26.445  0.00  0.00    +0.185 C 
ATOM      7  C   UNL     1       7.263   2.910  27.082  0.00  0.00    +0.034 C 
ATOM      8  C   UNL     1       6.754   4.024  26.167  0.00  0.00    +0.004 C 
ATOM      9  C   UNL     1       5.359   3.719  25.627  0.00  0.00    +0.019 C 
ATOM     10  C   UNL     1       5.273   2.308  25.055  0.00  0.00    +0.108 C 
ATOM     11  O   UNL     1       3.738   0.317  26.080  0.00  0.00    -0.275 OA
BRANCH   4  12
ATOM     12  C   UNL     1       5.439  -0.875  27.348  0.00  0.00    +0.105 C 
BRANCH  12  13
ATOM     13  C   UNL     1       5.377  -2.296  26.754  0.00  0.00    -0.028 A 
ATOM     14  C   UNL     1       6.148  -3.356  27.272  0.00  0.00    +0.054 A 
ATOM     15  C   UNL     1       6.045  -4.679  26.776  0.00  0.00    +0.165 A 
ATOM     16  C   UNL     1       5.154  -4.956  25.728  0.00  0.00    +0.204 A 
ATOM     17  C   UNL     1       4.377  -3.913  25.213  0.00  0.00    +0.165 A 
ATOM     18  C   UNL     1       4.533  -2.604  25.692  0.00  0.00    +0.054 A 
BRANCH  17  19
ATOM     19  O   UNL     1       3.460  -4.283  24.254  0.00  0.00    -0.491 OA
ATOM     20  C   UNL     1       2.111  -4.118  24.633  0.00  0.00    +0.277 C 
ENDBRANCH  17  19
BRANCH  16  21
ATOM     21  O   UNL     1       4.851  -6.190  25.209  0.00  0.00    -0.488 OA
ATOM     22  C   UNL     1       3.998  -7.048  25.946  0.00  0.00    +0.277 C 
ENDBRANCH  16  21
BRANCH  15  23
ATOM     23  O   UNL     1       6.751  -5.737  27.288  0.00  0.00    -0.491 OA
ATOM     24  C   UNL     1       6.450  -6.176  28.592  0.00  0.00    +0.277 C 
ENDBRANCH  15  23
ENDBRANCH  12  13
BRANCH  12  26
ATOM     25  C   UNL     1       4.907   0.538  29.469  0.00  0.00    +0.005 C 
ATOM     26  C   UNL     1       4.716  -0.780  28.715  0.00  0.00    +0.014 C 
ENDBRANCH  12  26
ENDBRANCH   4  12
ENDBRANCH   2   6
ENDBRANCH   1   2
BRANCH   1  27
ATOM     27  C   UNL     1       8.443   2.009  23.020  0.00  0.00    +0.207 C 
BRANCH  27  28
ATOM     28  C   UNL     1       8.193   3.498  22.867  0.00  0.00    -0.004 A 
ATOM     29  C   UNL     1       9.176   4.382  23.332  0.00  0.00    +0.053 A 
ATOM     30  C   UNL     1       8.994   5.766  23.300  0.00  0.00    +0.122 A 
ATOM     31  C   UNL     1       7.836   6.276  22.728  0.00  0.00    +0.046 A 
ATOM     32  C   UNL     1       6.884   5.410  22.173  0.00  0.00    +0.004 A 
ATOM     33  C   UNL     1       7.056   4.026  22.253  0.00  0.00    +0.007 A 
BRANCH  30  34
ATOM     34  O   UNL     1       9.827   6.621  23.961  0.00  0.00    -0.481 OA
BRANCH  34  35
ATOM     35  C   UNL     1      10.666   6.059  24.968  0.00  0.00    +0.349 C 
BRANCH  35  36
ATOM     36  C   UNL     1      12.147   6.433  24.906  0.00  0.00    +0.343 C 
ATOM     37  O   UNL     1      12.709   7.092  25.763  0.00  0.00    -0.247 OA
BRANCH  36  38
ATOM     38  O   UNL     1      12.776   6.051  23.768  0.00  0.00    -0.478 OA
ATOM     39  H   UNL     1      13.633   6.524  23.741  0.00  0.00    +0.295 HD
ENDBRANCH  36  38
ENDBRANCH  35  36
ENDBRANCH  34  35
ENDBRANCH  30  34
ENDBRANCH  27  28
BRANCH  27  40
ATOM     40  C   UNL     1       8.352   1.293  21.679  0.00  0.00    +0.054 C 
BRANCH  40  41
ATOM     41  C   UNL     1       9.465   0.259  21.484  0.00  0.00    +0.039 C 
BRANCH  41  42
ATOM     42  C   UNL     1       9.193  -0.918  22.374  0.00  0.00    -0.044 A 
ATOM     43  C   UNL     1       7.984  -1.610  22.266  0.00  0.00    +0.053 A 
ATOM     44  C   UNL     1       7.796  -2.807  22.953  0.00  0.00    +0.162 A 
ATOM     45  C   UNL     1       8.821  -3.309  23.784  0.00  0.00    +0.161 A 
ATOM     46  C   UNL     1      10.006  -2.593  23.915  0.00  0.00    +0.049 A 
ATOM     47  C   UNL     1      10.198  -1.402  23.211  0.00  0.00    +0.007 A 
BRANCH  45  48
ATOM     48  O   UNL     1       8.571  -4.510  24.408  0.00  0.00    -0.491 OA
ATOM     49  C   UNL     1       9.581  -5.005  25.281  0.00  0.00    +0.277 C 
ENDBRANCH  45  48
BRANCH  44  50
ATOM     50  O   UNL     1       6.662  -3.582  22.855  0.00  0.00    -0.491 OA
ATOM     51  C   UNL     1       5.817  -3.362  21.730  0.00  0.00    +0.277 C 
ENDBRANCH  44  50
ENDBRANCH  41  42
ENDBRANCH  40  41
ENDBRANCH  27  40
ENDBRANCH   1  27
TORSDOF 19
ENDMDL
MODEL 9
REMARK VINA RESULT:      -5.9      2.382      6.941
REMARK  Name = 
REMARK  25 active torsions:
REMARK  status: ('A' for Active; 'I' for Inactive)
REMARK    1  A    between atoms: C_1  and  C_2
REMARK    2  A    between atoms: C_2  and  C_3
REMARK    3  A    between atoms: C_3  and  C_5
REMARK    4  A    between atoms: C_3  and  C_42
REMARK    5  A    between atoms: C_12  and  C_14
REMARK    6  A    between atoms: C_14  and  O_16
REMARK    7  A    between atoms: O_16  and  C_17
REMARK    8  A    between atoms: C_17  and  C_19
REMARK    9  A    between atoms: C_17  and  C_31
REMARK   10  A    between atoms: C_19  and  C_20
REMARK   11  A    between atoms: C_20  and  C_21
REMARK   12  A    between atoms: C_24  and  O_25
REMARK   13  A    between atoms: O_25  and  C_26
REMARK   14  A    between atoms: C_27  and  O_28
REMARK   15  A    between atoms: O_28  and  C_29
REMARK   16  A    between atoms: C_35  and  O_36
REMARK   17  A    between atoms: O_36  and  C_37
REMARK   18  A    between atoms: C_37  and  C_38
REMARK   19  A    between atoms: C_38  and  O_39
REMARK   20  A    between atoms: C_44  and  O_45
REMARK   21  A    between atoms: O_45  and  C_46
REMARK   22  A    between atoms: C_47  and  O_48
REMARK   23  A    between atoms: O_48  and  C_49
REMARK   24  A    between atoms: C_50  and  O_51
REMARK   25  A    between atoms: O_51  and  C_52
REMARK                            x       y       z     vdW  Elec       q    Type
REMARK                         _______ _______ _______ _____ _____    ______ ____
ROOT
ATOM      1  O   UNL     1       7.945  -0.146  25.229  0.00  0.00    -0.455 OA
ENDROOT
BRANCH   1   2
ATOM      2  C   UNL     1       9.165   0.439  25.049  0.00  0.00    +0.328 C 
ATOM      3  O   UNL     1      10.220  -0.059  25.417  0.00  0.00    -0.249 OA
BRANCH   2   6
ATOM      4  C   UNL     1       6.703   2.841  24.094  0.00  0.00    +0.224 C 
ATOM      5  N   UNL     1       7.764   2.020  23.738  0.00  0.00    -0.288 N 
ATOM      6  C   UNL     1       9.031   1.862  24.472  0.00  0.00    +0.185 C 
ATOM      7  C   UNL     1      10.192   2.271  23.553  0.00  0.00    +0.034 C 
ATOM      8  C   UNL     1      10.191   1.526  22.217  0.00  0.00    +0.004 C 
ATOM      9  C   UNL     1       8.834   1.609  21.525  0.00  0.00    +0.019 C 
ATOM     10  C   UNL     1       7.694   1.257  22.475  0.00  0.00    +0.108 C 
ATOM     11  O   UNL     1       5.769   2.990  23.289  0.00  0.00    -0.275 OA
BRANCH   4  12
ATOM     12  C   UNL     1       6.683   3.597  25.462  0.00  0.00    +0.105 C 
BRANCH  12  13
ATOM     13  C   UNL     1       6.054   2.838  26.647  0.00  0.00    -0.028 A 
ATOM     14  C   UNL     1       6.798   2.502  27.797  0.00  0.00    +0.054 A 
ATOM     15  C   UNL     1       6.211   1.864  28.918  0.00  0.00    +0.165 A 
ATOM     16  C   UNL     1       4.845   1.545  28.893  0.00  0.00    +0.204 A 
ATOM     17  C   UNL     1       4.095   1.884  27.762  0.00  0.00    +0.165 A 
ATOM     18  C   UNL     1       4.713   2.472  26.647  0.00  0.00    +0.054 A 
BRANCH  17  19
ATOM     19  O   UNL     1       2.746   1.625  27.853  0.00  0.00    -0.491 OA
ATOM     20  C   UNL     1       1.983   2.076  26.755  0.00  0.00    +0.277 C 
ENDBRANCH  17  19
BRANCH  16  21
ATOM     21  O   UNL     1       4.099   1.035  29.927  0.00  0.00    -0.488 OA
ATOM     22  C   UNL     1       4.167  -0.355  30.194  0.00  0.00    +0.277 C 
ENDBRANCH  16  21
BRANCH  15  23
ATOM     23  O   UNL     1       6.900   1.564  30.064  0.00  0.00    -0.491 OA
ATOM     24  C   UNL     1       7.917   2.441  30.485  0.00  0.00    +0.277 C 
ENDBRANCH  15  23
ENDBRANCH  12  13
BRANCH  12  26
ATOM     25  C   UNL     1       6.282   6.000  26.380  0.00  0.00    +0.005 C 
ATOM     26  C   UNL     1       6.041   4.992  25.255  0.00  0.00    +0.014 C 
ENDBRANCH  12  26
ENDBRANCH   4  12
ENDBRANCH   2   6
ENDBRANCH   1   2
BRANCH   1  27
ATOM     27  C   UNL     1       7.835  -1.164  26.246  0.00  0.00    +0.207 C 
BRANCH  27  28
ATOM     28  C   UNL     1       8.032  -2.511  25.577  0.00  0.00    -0.004 A 
ATOM     29  C   UNL     1       7.958  -2.569  24.178  0.00  0.00    +0.053 A 
ATOM     30  C   UNL     1       8.052  -3.778  23.487  0.00  0.00    +0.122 A 
ATOM     31  C   UNL     1       8.293  -4.943  24.204  0.00  0.00    +0.046 A 
ATOM     32  C   UNL     1       8.463  -4.891  25.594  0.00  0.00    +0.004 A 
ATOM     33  C   UNL     1       8.321  -3.682  26.280  0.00  0.00    +0.007 A 
BRANCH  30  34
ATOM     34  O   UNL     1       7.744  -3.879  22.161  0.00  0.00    -0.481 OA
BRANCH  34  35
ATOM     35  C   UNL     1       6.387  -4.167  21.831  0.00  0.00    +0.349 C 
BRANCH  35  36
ATOM     36  C   UNL     1       6.118  -5.528  21.190  0.00  0.00    +0.343 C 
ATOM     37  O   UNL     1       6.068  -5.705  19.985  0.00  0.00    -0.247 OA
BRANCH  36  38
ATOM     38  O   UNL     1       5.843  -6.521  22.071  0.00  0.00    -0.478 OA
ATOM     39  H   UNL     1       6.405  -7.285  21.827  0.00  0.00    +0.295 HD
ENDBRANCH  36  38
ENDBRANCH  35  36
ENDBRANCH  34  35
ENDBRANCH  30  34
ENDBRANCH  27  28
BRANCH  27  40
ATOM     40  C   UNL     1       6.573  -1.150  27.100  0.00  0.00    +0.054 C 
BRANCH  40  41
ATOM     41  C   UNL     1       5.293  -1.229  26.263  0.00  0.00    +0.039 C 
BRANCH  41  42
ATOM     42  C   UNL     1       4.775  -2.636  26.302  0.00  0.00    -0.044 A 
ATOM     43  C   UNL     1       4.486  -3.307  25.111  0.00  0.00    +0.053 A 
ATOM     44  C   UNL     1       4.182  -4.666  25.127  0.00  0.00    +0.162 A 
ATOM     45  C   UNL     1       4.139  -5.363  26.354  0.00  0.00    +0.161 A 
ATOM     46  C   UNL     1       4.391  -4.678  27.538  0.00  0.00    +0.049 A 
ATOM     47  C   UNL     1       4.712  -3.319  27.517  0.00  0.00    +0.007 A 
BRANCH  45  48
ATOM     48  O   UNL     1       3.859  -6.708  26.285  0.00  0.00    -0.491 OA
ATOM     49  C   UNL     1       2.624  -7.139  26.849  0.00  0.00    +0.277 C 
ENDBRANCH  45  48
BRANCH  44  50
ATOM     50  O   UNL     1       3.944  -5.415  23.997  0.00  0.00    -0.491 OA
ATOM     51  C   UNL     1       2.677  -5.261  23.366  0.00  0.00    +0.277 C 
ENDBRANCH  44  50
ENDBRANCH  41  42
ENDBRANCH  40  41
ENDBRANCH  27  40
ENDBRANCH   1  27
TORSDOF 19
ENDMDL
