MODEL 1
REMARK VINA RESULT:      -6.5      0.000      0.000
REMARK  Name = 
REMARK  8 active torsions:
REMARK  status: ('A' for Active; 'I' for Inactive)
REMARK    1  A    between atoms: C_1  and  C_2
REMARK    2  A    between atoms: C_2  and  C_3
REMARK    3  A    between atoms: N_5  and  C_6
REMARK    4  A    between atoms: N_5  and  C_20
REMARK    5  A    between atoms: N_9  and  C_10
REMARK    6  A    between atoms: C_10  and  C_11
REMARK    7  A    between atoms: C_11  and  O_12
REMARK    8  A    between atoms: C_11  and  C_13
REMARK                            x       y       z     vdW  Elec       q    Type
REMARK                         _______ _______ _______ _____ _____    ______ ____
ROOT
ATOM      1  C   UNL     1       8.033  -3.694  23.385  0.00  0.00    +0.084 C 
ATOM      2  C   UNL     1       9.071  -3.142  24.384  0.00  0.00    +0.038 C 
ATOM      3  C   UNL     1       8.964  -1.650  24.723  0.00  0.00    +0.086 C 
ATOM      4  N   UNL     1       8.585  -0.775  23.610  0.00  0.00    -0.299 NA
ATOM      5  C   UNL     1       7.389  -1.268  22.919  0.00  0.00    +0.086 C 
ATOM      6  C   UNL     1       7.569  -2.663  22.345  0.00  0.00    +0.038 C 
ENDROOT
BRANCH   1   8
ATOM      7  C   UNL     1       6.336  -5.680  23.190  0.00  0.00    +0.220 C 
ATOM      8  N   UNL     1       6.900  -4.576  23.867  0.00  0.00    -0.268 N 
ATOM      9  O   UNL     1       5.329  -6.281  23.585  0.00  0.00    -0.275 OA
BRANCH   8  10
ATOM     10  C   UNL     1       6.568  -4.406  25.293  0.00  0.00    +0.037 A 
ATOM     11  C   UNL     1       7.016  -5.304  26.281  0.00  0.00    +0.023 A 
ATOM     12  C   UNL     1       6.582  -5.222  27.613  0.00  0.00    +0.002 A 
ATOM     13  C   UNL     1       5.700  -4.224  27.998  0.00  0.00    +0.000 A 
ATOM     14  C   UNL     1       5.268  -3.297  27.056  0.00  0.00    +0.002 A 
ATOM     15  C   UNL     1       5.696  -3.391  25.723  0.00  0.00    +0.023 A 
ENDBRANCH   8  10
BRANCH   7  17
ATOM     16  C   UNL     1       6.182  -5.770  20.635  0.00  0.00    +0.013 C 
ATOM     17  C   UNL     1       6.964  -6.127  21.889  0.00  0.00    +0.093 C 
ENDBRANCH   7  17
ENDBRANCH   1   8
BRANCH   4  18
ATOM     18  C   UNL     1       9.719  -0.485  22.708  0.00  0.00    +0.121 C 
BRANCH  18  19
ATOM     19  C   UNL     1       9.722   0.954  22.118  0.00  0.00    +0.165 C 
BRANCH  19  20
ATOM     20  C   UNL     1       9.085   1.943  23.049  0.00  0.00    +0.019 A 
ATOM     21  S   UNL     1       7.600   2.681  22.606  0.00  0.00    -0.099 S 
ATOM     22  C   UNL     1       7.519   3.545  24.076  0.00  0.00    +0.045 A 
ATOM     23  C   UNL     1       8.609   3.303  24.880  0.00  0.00    +0.008 A 
ATOM     24  C   UNL     1       9.517   2.381  24.288  0.00  0.00    +0.014 A 
ENDBRANCH  19  20
BRANCH  19  25
ATOM     25  O   UNL     1       8.994   1.025  20.890  0.00  0.00    -0.385 OA
ATOM     26  H   UNL     1       9.462   0.471  20.246  0.00  0.00    +0.210 HD
ENDBRANCH  19  25
ENDBRANCH  18  19
ENDBRANCH   4  18
TORSDOF 7
ENDMDL
MODEL 2
REMARK VINA RESULT:      -6.5      3.144      8.724
REMARK  Name = 
REMARK  8 active torsions:
REMARK  status: ('A' for Active; 'I' for Inactive)
REMARK    1  A    between atoms: C_1  and  C_2
REMARK    2  A    between atoms: C_2  and  C_3
REMARK    3  A    between atoms: N_5  and  C_6
REMARK    4  A    between atoms: N_5  and  C_20
REMARK    5  A    between atoms: N_9  and  C_10
REMARK    6  A    between atoms: C_10  and  C_11
REMARK    7  A    between atoms: C_11  and  O_12
REMARK    8  A    between atoms: C_11  and  C_13
REMARK                            x       y       z     vdW  Elec       q    Type
REMARK                         _______ _______ _______ _____ _____    ______ ____
ROOT
ATOM      1  C   UNL     1       8.334   3.330  23.596  0.00  0.00    +0.084 C 
ATOM      2  C   UNL     1       9.104   2.636  24.739  0.00  0.00    +0.038 C 
ATOM      3  C   UNL     1      10.219   1.669  24.320  0.00  0.00    +0.086 C 
ATOM      4  N   UNL     1       9.945   0.868  23.124  0.00  0.00    -0.299 NA
ATOM      5  C   UNL     1       9.495   1.703  22.007  0.00  0.00    +0.086 C 
ATOM      6  C   UNL     1       8.228   2.481  22.320  0.00  0.00    +0.038 C 
ENDROOT
BRANCH   1   8
ATOM      7  C   UNL     1       7.640   5.709  22.747  0.00  0.00    +0.220 C 
ATOM      8  N   UNL     1       8.568   4.796  23.295  0.00  0.00    -0.268 N 
ATOM      9  O   UNL     1       7.935   6.862  22.411  0.00  0.00    -0.275 OA
BRANCH   8  10
ATOM     10  C   UNL     1       9.795   5.347  23.898  0.00  0.00    +0.037 A 
ATOM     11  C   UNL     1       9.764   6.197  25.020  0.00  0.00    +0.023 A 
ATOM     12  C   UNL     1      10.918   6.834  25.503  0.00  0.00    +0.002 A 
ATOM     13  C   UNL     1      12.141   6.621  24.886  0.00  0.00    +0.000 A 
ATOM     14  C   UNL     1      12.214   5.757  23.799  0.00  0.00    +0.002 A 
ATOM     15  C   UNL     1      11.055   5.133  23.313  0.00  0.00    +0.023 A 
ENDBRANCH   8  10
BRANCH   7  17
ATOM     16  C   UNL     1       5.262   5.475  23.670  0.00  0.00    +0.013 C 
ATOM     17  C   UNL     1       6.221   5.242  22.513  0.00  0.00    +0.093 C 
ENDBRANCH   7  17
ENDBRANCH   1   8
BRANCH   4  18
ATOM     18  C   UNL     1       9.058  -0.281  23.405  0.00  0.00    +0.121 C 
BRANCH  18  19
ATOM     19  C   UNL     1       8.998  -1.341  22.269  0.00  0.00    +0.165 C 
BRANCH  19  20
ATOM     20  C   UNL     1       8.454  -2.653  22.753  0.00  0.00    +0.019 A 
ATOM     21  S   UNL     1       9.064  -3.334  24.205  0.00  0.00    -0.099 S 
ATOM     22  C   UNL     1       7.996  -4.662  24.104  0.00  0.00    +0.045 A 
ATOM     23  C   UNL     1       7.208  -4.610  22.977  0.00  0.00    +0.008 A 
ATOM     24  C   UNL     1       7.473  -3.451  22.193  0.00  0.00    +0.014 A 
ENDBRANCH  19  20
BRANCH  19  25
ATOM     25  O   UNL     1      10.293  -1.613  21.729  0.00  0.00    -0.385 OA
ATOM     26  H   UNL     1      10.581  -2.468  22.088  0.00  0.00    +0.210 HD
ENDBRANCH  19  25
ENDBRANCH  18  19
ENDBRANCH   4  18
TORSDOF 7
ENDMDL
MODEL 3
REMARK VINA RESULT:      -6.4      3.027      8.458
REMARK  Name = 
REMARK  8 active torsions:
REMARK  status: ('A' for Active; 'I' for Inactive)
REMARK    1  A    between atoms: C_1  and  C_2
REMARK    2  A    between atoms: C_2  and  C_3
REMARK    3  A    between atoms: N_5  and  C_6
REMARK    4  A    between atoms: N_5  and  C_20
REMARK    5  A    between atoms: N_9  and  C_10
REMARK    6  A    between atoms: C_10  and  C_11
REMARK    7  A    between atoms: C_11  and  O_12
REMARK    8  A    between atoms: C_11  and  C_13
REMARK                            x       y       z     vdW  Elec       q    Type
REMARK                         _______ _______ _______ _____ _____    ______ ____
ROOT
ATOM      1  C   UNL     1       9.974   2.771  23.721  0.00  0.00    +0.084 C 
ATOM      2  C   UNL     1       9.986   2.086  22.340  0.00  0.00    +0.038 C 
ATOM      3  C   UNL     1       8.699   1.359  21.928  0.00  0.00    +0.086 C 
ATOM      4  N   UNL     1       7.994   0.662  23.007  0.00  0.00    -0.299 NA
ATOM      5  C   UNL     1       7.785   1.534  24.167  0.00  0.00    +0.086 C 
ATOM      6  C   UNL     1       9.083   2.062  24.753  0.00  0.00    +0.038 C 
ENDROOT
BRANCH   1   8
ATOM      7  C   UNL     1      10.949   5.202  23.675  0.00  0.00    +0.220 C 
ATOM      8  N   UNL     1       9.890   4.280  23.827  0.00  0.00    -0.268 N 
ATOM      9  O   UNL     1      10.837   6.413  23.898  0.00  0.00    -0.275 OA
BRANCH   8  10
ATOM     10  C   UNL     1       8.515   4.809  23.816  0.00  0.00    +0.037 A 
ATOM     11  C   UNL     1       7.843   5.180  24.996  0.00  0.00    +0.023 A 
ATOM     12  C   UNL     1       6.488   5.547  24.998  0.00  0.00    +0.002 A 
ATOM     13  C   UNL     1       5.772   5.571  23.812  0.00  0.00    +0.000 A 
ATOM     14  C   UNL     1       6.415   5.248  22.622  0.00  0.00    +0.002 A 
ATOM     15  C   UNL     1       7.766   4.871  22.628  0.00  0.00    +0.023 A 
ENDBRANCH   8  10
BRANCH   7  17
ATOM     16  C   UNL     1      13.088   5.579  22.318  0.00  0.00    +0.013 C 
ATOM     17  C   UNL     1      12.308   4.680  23.263  0.00  0.00    +0.093 C 
ENDBRANCH   7  17
ENDBRANCH   1   8
BRANCH   4  18
ATOM     18  C   UNL     1       8.617  -0.636  23.341  0.00  0.00    +0.121 C 
BRANCH  18  19
ATOM     19  C   UNL     1       8.521  -1.705  22.215  0.00  0.00    +0.165 C 
BRANCH  19  20
ATOM     20  C   UNL     1       8.152  -3.056  22.753  0.00  0.00    +0.019 A 
ATOM     21  S   UNL     1       8.828  -3.585  24.239  0.00  0.00    -0.099 S 
ATOM     22  C   UNL     1       7.951  -5.048  24.190  0.00  0.00    +0.045 A 
ATOM     23  C   UNL     1       7.178  -5.152  23.056  0.00  0.00    +0.008 A 
ATOM     24  C   UNL     1       7.295  -4.004  22.223  0.00  0.00    +0.014 A 
ENDBRANCH  19  20
BRANCH  19  25
ATOM     25  O   UNL     1       9.764  -1.867  21.531  0.00  0.00    -0.385 OA
ATOM     26  H   UNL     1       9.572  -2.289  20.678  0.00  0.00    +0.210 HD
ENDBRANCH  19  25
ENDBRANCH  18  19
ENDBRANCH   4  18
TORSDOF 7
ENDMDL
MODEL 4
REMARK VINA RESULT:      -6.4      1.390      3.571
REMARK  Name = 
REMARK  8 active torsions:
REMARK  status: ('A' for Active; 'I' for Inactive)
REMARK    1  A    between atoms: C_1  and  C_2
REMARK    2  A    between atoms: C_2  and  C_3
REMARK    3  A    between atoms: N_5  and  C_6
REMARK    4  A    between atoms: N_5  and  C_20
REMARK    5  A    between atoms: N_9  and  C_10
REMARK    6  A    between atoms: C_10  and  C_11
REMARK    7  A    between atoms: C_11  and  O_12
REMARK    8  A    between atoms: C_11  and  C_13
REMARK                            x       y       z     vdW  Elec       q    Type
REMARK                         _______ _______ _______ _____ _____    ______ ____
ROOT
ATOM      1  C   UNL     1       7.169  -2.949  25.279  0.00  0.00    +0.084 C 
ATOM      2  C   UNL     1       6.540  -2.009  24.230  0.00  0.00    +0.038 C 
ATOM      3  C   UNL     1       7.438  -1.601  23.055  0.00  0.00    +0.086 C 
ATOM      4  N   UNL     1       8.848  -1.377  23.386  0.00  0.00    -0.299 NA
ATOM      5  C   UNL     1       9.410  -2.499  24.143  0.00  0.00    +0.086 C 
ATOM      6  C   UNL     1       8.683  -2.755  25.451  0.00  0.00    +0.038 C 
ENDROOT
BRANCH   1   8
ATOM      7  C   UNL     1       6.354  -5.127  26.486  0.00  0.00    +0.220 C 
ATOM      8  N   UNL     1       6.763  -4.408  25.342  0.00  0.00    -0.268 N 
ATOM      9  O   UNL     1       6.156  -6.348  26.490  0.00  0.00    -0.275 OA
BRANCH   8  10
ATOM     10  C   UNL     1       6.524  -5.023  24.024  0.00  0.00    +0.037 A 
ATOM     11  C   UNL     1       7.576  -5.379  23.159  0.00  0.00    +0.023 A 
ATOM     12  C   UNL     1       7.344  -5.831  21.851  0.00  0.00    +0.002 A 
ATOM     13  C   UNL     1       6.048  -5.957  21.378  0.00  0.00    +0.000 A 
ATOM     14  C   UNL     1       4.983  -5.651  22.218  0.00  0.00    +0.002 A 
ATOM     15  C   UNL     1       5.222  -5.188  23.521  0.00  0.00    +0.023 A 
ENDBRANCH   8  10
BRANCH   7  17
ATOM     16  C   UNL     1       4.804  -3.808  28.042  0.00  0.00    +0.013 C 
ATOM     17  C   UNL     1       6.191  -4.378  27.790  0.00  0.00    +0.093 C 
ENDBRANCH   7  17
ENDBRANCH   1   8
BRANCH   4  18
ATOM     18  C   UNL     1       9.077  -0.059  24.014  0.00  0.00    +0.121 C 
BRANCH  18  19
ATOM     19  C   UNL     1       9.700   1.007  23.068  0.00  0.00    +0.165 C 
BRANCH  19  20
ATOM     20  C   UNL     1       8.784   2.175  22.857  0.00  0.00    +0.019 A 
ATOM     21  S   UNL     1       9.021   3.609  23.770  0.00  0.00    -0.099 S 
ATOM     22  C   UNL     1       7.734   4.402  22.977  0.00  0.00    +0.045 A 
ATOM     23  C   UNL     1       7.114   3.590  22.055  0.00  0.00    +0.008 A 
ATOM     24  C   UNL     1       7.717   2.302  21.985  0.00  0.00    +0.014 A 
ENDBRANCH  19  20
BRANCH  19  25
ATOM     25  O   UNL     1       9.976   0.468  21.773  0.00  0.00    -0.385 OA
ATOM     26  H   UNL     1       9.249   0.735  21.189  0.00  0.00    +0.210 HD
ENDBRANCH  19  25
ENDBRANCH  18  19
ENDBRANCH   4  18
TORSDOF 7
ENDMDL
MODEL 5
REMARK VINA RESULT:      -6.4      2.219      3.999
REMARK  Name = 
REMARK  8 active torsions:
REMARK  status: ('A' for Active; 'I' for Inactive)
REMARK    1  A    between atoms: C_1  and  C_2
REMARK    2  A    between atoms: C_2  and  C_3
REMARK    3  A    between atoms: N_5  and  C_6
REMARK    4  A    between atoms: N_5  and  C_20
REMARK    5  A    between atoms: N_9  and  C_10
REMARK    6  A    between atoms: C_10  and  C_11
REMARK    7  A    between atoms: C_11  and  O_12
REMARK    8  A    between atoms: C_11  and  C_13
REMARK                            x       y       z     vdW  Elec       q    Type
REMARK                         _______ _______ _______ _____ _____    ______ ____
ROOT
ATOM      1  C   UNL     1       6.863  -4.187  25.879  0.00  0.00    +0.084 C 
ATOM      2  C   UNL     1       6.460  -2.811  25.309  0.00  0.00    +0.038 C 
ATOM      3  C   UNL     1       6.896  -2.516  23.868  0.00  0.00    +0.086 C 
ATOM      4  N   UNL     1       8.215  -3.029  23.489  0.00  0.00    -0.299 NA
ATOM      5  C   UNL     1       8.360  -4.448  23.827  0.00  0.00    +0.086 C 
ATOM      6  C   UNL     1       8.185  -4.726  25.310  0.00  0.00    +0.038 C 
ENDROOT
BRANCH   1   8
ATOM      7  C   UNL     1       5.688  -6.143  27.164  0.00  0.00    +0.220 C 
ATOM      8  N   UNL     1       5.826  -5.275  26.059  0.00  0.00    -0.268 N 
ATOM      9  O   UNL     1       4.897  -7.093  27.192  0.00  0.00    -0.275 OA
BRANCH   8  10
ATOM     10  C   UNL     1       4.710  -5.209  25.098  0.00  0.00    +0.037 A 
ATOM     11  C   UNL     1       3.495  -4.565  25.401  0.00  0.00    +0.023 A 
ATOM     12  C   UNL     1       2.386  -4.626  24.544  0.00  0.00    +0.002 A 
ATOM     13  C   UNL     1       2.469  -5.321  23.347  0.00  0.00    +0.000 A 
ATOM     14  C   UNL     1       3.666  -5.936  22.998  0.00  0.00    +0.002 A 
ATOM     15  C   UNL     1       4.768  -5.881  23.865  0.00  0.00    +0.023 A 
ENDBRANCH   8  10
BRANCH   7  17
ATOM     16  C   UNL     1       5.978  -6.313  29.704  0.00  0.00    +0.013 C 
ATOM     17  C   UNL     1       6.587  -5.933  28.363  0.00  0.00    +0.093 C 
ENDBRANCH   7  17
ENDBRANCH   1   8
BRANCH   4  18
ATOM     18  C   UNL     1       9.316  -2.181  23.992  0.00  0.00    +0.121 C 
BRANCH  18  19
ATOM     19  C   UNL     1      10.204  -1.553  22.880  0.00  0.00    +0.165 C 
BRANCH  19  20
ATOM     20  C   UNL     1      10.231  -0.055  22.963  0.00  0.00    +0.019 A 
ATOM     21  S   UNL     1      10.738   0.701  24.418  0.00  0.00    -0.099 S 
ATOM     22  C   UNL     1      10.559   2.259  23.746  0.00  0.00    +0.045 A 
ATOM     23  C   UNL     1      10.097   2.215  22.450  0.00  0.00    +0.008 A 
ATOM     24  C   UNL     1       9.904   0.879  21.996  0.00  0.00    +0.014 A 
ENDBRANCH  19  20
BRANCH  19  25
ATOM     25  O   UNL     1       9.727  -1.878  21.574  0.00  0.00    -0.385 OA
ATOM     26  H   UNL     1       8.796  -1.606  21.531  0.00  0.00    +0.210 HD
ENDBRANCH  19  25
ENDBRANCH  18  19
ENDBRANCH   4  18
TORSDOF 7
ENDMDL
MODEL 6
REMARK VINA RESULT:      -6.1      2.893      7.374
REMARK  Name = 
REMARK  8 active torsions:
REMARK  status: ('A' for Active; 'I' for Inactive)
REMARK    1  A    between atoms: C_1  and  C_2
REMARK    2  A    between atoms: C_2  and  C_3
REMARK    3  A    between atoms: N_5  and  C_6
REMARK    4  A    between atoms: N_5  and  C_20
REMARK    5  A    between atoms: N_9  and  C_10
REMARK    6  A    between atoms: C_10  and  C_11
REMARK    7  A    between atoms: C_11  and  O_12
REMARK    8  A    between atoms: C_11  and  C_13
REMARK                            x       y       z     vdW  Elec       q    Type
REMARK                         _______ _______ _______ _____ _____    ______ ____
ROOT
ATOM      1  C   UNL     1       7.631  -1.496  24.986  0.00  0.00    +0.084 C 
ATOM      2  C   UNL     1       8.887  -2.197  24.430  0.00  0.00    +0.038 C 
ATOM      3  C   UNL     1       8.774  -2.778  23.015  0.00  0.00    +0.086 C 
ATOM      4  N   UNL     1       7.479  -3.375  22.678  0.00  0.00    -0.299 NA
ATOM      5  C   UNL     1       6.369  -2.470  22.991  0.00  0.00    +0.086 C 
ATOM      6  C   UNL     1       6.313  -2.085  24.459  0.00  0.00    +0.038 C 
ENDROOT
BRANCH   1   8
ATOM      7  C   UNL     1       7.108   0.768  26.195  0.00  0.00    +0.220 C 
ATOM      8  N   UNL     1       7.583   0.013  25.100  0.00  0.00    -0.268 N 
ATOM      9  O   UNL     1       6.981   1.997  26.173  0.00  0.00    -0.275 OA
BRANCH   8  10
ATOM     10  C   UNL     1       8.365   0.720  24.070  0.00  0.00    +0.037 A 
ATOM     11  C   UNL     1       7.907   0.862  22.746  0.00  0.00    +0.023 A 
ATOM     12  C   UNL     1       8.712   1.407  21.734  0.00  0.00    +0.002 A 
ATOM     13  C   UNL     1       9.995   1.844  22.025  0.00  0.00    +0.000 A 
ATOM     14  C   UNL     1      10.465   1.755  23.331  0.00  0.00    +0.002 A 
ATOM     15  C   UNL     1       9.660   1.198  24.336  0.00  0.00    +0.023 A 
ENDBRANCH   8  10
BRANCH   7  17
ATOM     16  C   UNL     1       5.191  -0.216  27.581  0.00  0.00    +0.013 C 
ATOM     17  C   UNL     1       6.685   0.034  27.449  0.00  0.00    +0.093 C 
ENDBRANCH   7  17
ENDBRANCH   1   8
BRANCH   4  18
ATOM     18  C   UNL     1       7.320  -4.732  23.244  0.00  0.00    +0.121 C 
BRANCH  18  19
ATOM     19  C   UNL     1       5.952  -5.403  22.930  0.00  0.00    +0.165 C 
BRANCH  19  20
ATOM     20  C   UNL     1       5.330  -6.008  24.154  0.00  0.00    +0.019 A 
ATOM     21  S   UNL     1       5.972  -5.632  25.700  0.00  0.00    -0.099 S 
ATOM     22  C   UNL     1       4.789  -6.575  26.490  0.00  0.00    +0.045 A 
ATOM     23  C   UNL     1       3.936  -7.189  25.601  0.00  0.00    +0.008 A 
ATOM     24  C   UNL     1       4.248  -6.865  24.251  0.00  0.00    +0.014 A 
ENDBRANCH  19  20
BRANCH  19  25
ATOM     25  O   UNL     1       6.088  -6.461  21.979  0.00  0.00    -0.385 OA
ATOM     26  H   UNL     1       5.652  -7.243  22.353  0.00  0.00    +0.210 HD
ENDBRANCH  19  25
ENDBRANCH  18  19
ENDBRANCH   4  18
TORSDOF 7
ENDMDL
MODEL 7
REMARK VINA RESULT:      -6.0      1.762      3.809
REMARK  Name = 
REMARK  8 active torsions:
REMARK  status: ('A' for Active; 'I' for Inactive)
REMARK    1  A    between atoms: C_1  and  C_2
REMARK    2  A    between atoms: C_2  and  C_3
REMARK    3  A    between atoms: N_5  and  C_6
REMARK    4  A    between atoms: N_5  and  C_20
REMARK    5  A    between atoms: N_9  and  C_10
REMARK    6  A    between atoms: C_10  and  C_11
REMARK    7  A    between atoms: C_11  and  O_12
REMARK    8  A    between atoms: C_11  and  C_13
REMARK                            x       y       z     vdW  Elec       q    Type
REMARK                         _______ _______ _______ _____ _____    ______ ____
ROOT
ATOM      1  C   UNL     1       6.801  -2.710  25.592  0.00  0.00    +0.084 C 
ATOM      2  C   UNL     1       6.162  -1.799  24.524  0.00  0.00    +0.038 C 
ATOM      3  C   UNL     1       7.112  -1.212  23.472  0.00  0.00    +0.086 C 
ATOM      4  N   UNL     1       8.438  -0.829  23.962  0.00  0.00    -0.299 NA
ATOM      5  C   UNL     1       9.066  -1.912  24.725  0.00  0.00    +0.086 C 
ATOM      6  C   UNL     1       8.251  -2.335  25.935  0.00  0.00    +0.038 C 
ENDROOT
BRANCH   1   8
ATOM      7  C   UNL     1       6.253  -5.053  26.628  0.00  0.00    +0.220 C 
ATOM      8  N   UNL     1       6.588  -4.209  25.546  0.00  0.00    -0.268 N 
ATOM      9  O   UNL     1       6.217  -6.286  26.545  0.00  0.00    -0.275 OA
BRANCH   8  10
ATOM     10  C   UNL     1       6.459  -4.758  24.184  0.00  0.00    +0.037 A 
ATOM     11  C   UNL     1       5.208  -5.057  23.612  0.00  0.00    +0.023 A 
ATOM     12  C   UNL     1       5.092  -5.711  22.376  0.00  0.00    +0.002 A 
ATOM     13  C   UNL     1       6.229  -6.067  21.667  0.00  0.00    +0.000 A 
ATOM     14  C   UNL     1       7.481  -5.751  22.185  0.00  0.00    +0.002 A 
ATOM     15  C   UNL     1       7.590  -5.108  23.427  0.00  0.00    +0.023 A 
ENDBRANCH   8  10
BRANCH   7  17
ATOM     16  C   UNL     1       4.512  -4.060  28.223  0.00  0.00    +0.013 C 
ATOM     17  C   UNL     1       5.967  -4.423  27.973  0.00  0.00    +0.093 C 
ENDBRANCH   7  17
ENDBRANCH   1   8
BRANCH   4  18
ATOM     18  C   UNL     1       8.426   0.469  24.669  0.00  0.00    +0.121 C 
BRANCH  18  19
ATOM     19  C   UNL     1       8.039   1.684  23.778  0.00  0.00    +0.165 C 
BRANCH  19  20
ATOM     20  C   UNL     1       9.147   2.693  23.693  0.00  0.00    +0.019 A 
ATOM     21  S   UNL     1       8.823   4.334  24.076  0.00  0.00    -0.099 S 
ATOM     22  C   UNL     1      10.450   4.780  23.816  0.00  0.00    +0.045 A 
ATOM     23  C   UNL     1      11.224   3.713  23.419  0.00  0.00    +0.008 A 
ATOM     24  C   UNL     1      10.472   2.507  23.344  0.00  0.00    +0.014 A 
ENDBRANCH  19  20
BRANCH  19  25
ATOM     25  O   UNL     1       6.899   2.376  24.292  0.00  0.00    -0.385 OA
ATOM     26  H   UNL     1       6.465   2.812  23.542  0.00  0.00    +0.210 HD
ENDBRANCH  19  25
ENDBRANCH  18  19
ENDBRANCH   4  18
TORSDOF 7
ENDMDL
MODEL 8
REMARK VINA RESULT:      -6.0      1.287      1.492
REMARK  Name = 
REMARK  8 active torsions:
REMARK  status: ('A' for Active; 'I' for Inactive)
REMARK    1  A    between atoms: C_1  and  C_2
REMARK    2  A    between atoms: C_2  and  C_3
REMARK    3  A    between atoms: N_5  and  C_6
REMARK    4  A    between atoms: N_5  and  C_20
REMARK    5  A    between atoms: N_9  and  C_10
REMARK    6  A    between atoms: C_10  and  C_11
REMARK    7  A    between atoms: C_11  and  O_12
REMARK    8  A    between atoms: C_11  and  C_13
REMARK                            x       y       z     vdW  Elec       q    Type
REMARK                         _______ _______ _______ _____ _____    ______ ____
ROOT
ATOM      1  C   UNL     1       7.799  -3.242  23.814  0.00  0.00    +0.084 C 
ATOM      2  C   UNL     1       8.909  -2.849  24.811  0.00  0.00    +0.038 C 
ATOM      3  C   UNL     1       8.718  -1.522  25.555  0.00  0.00    +0.086 C 
ATOM      4  N   UNL     1       8.117  -0.438  24.772  0.00  0.00    -0.299 NA
ATOM      5  C   UNL     1       6.887  -0.875  24.103  0.00  0.00    +0.086 C 
ATOM      6  C   UNL     1       7.110  -2.038  23.153  0.00  0.00    +0.038 C 
ENDROOT
BRANCH   1   8
ATOM      7  C   UNL     1       6.441  -5.428  23.324  0.00  0.00    +0.220 C 
ATOM      8  N   UNL     1       6.823  -4.350  24.153  0.00  0.00    -0.268 N 
ATOM      9  O   UNL     1       5.545  -6.229  23.616  0.00  0.00    -0.275 OA
BRANCH   8  10
ATOM     10  C   UNL     1       6.473  -4.429  25.583  0.00  0.00    +0.037 A 
ATOM     11  C   UNL     1       7.067  -5.365  26.451  0.00  0.00    +0.023 A 
ATOM     12  C   UNL     1       6.631  -5.534  27.774  0.00  0.00    +0.002 A 
ATOM     13  C   UNL     1       5.598  -4.756  28.271  0.00  0.00    +0.000 A 
ATOM     14  C   UNL     1       5.014  -3.795  27.453  0.00  0.00    +0.002 A 
ATOM     15  C   UNL     1       5.446  -3.639  26.127  0.00  0.00    +0.023 A 
ENDBRANCH   8  10
BRANCH   7  17
ATOM     16  C   UNL     1       6.198  -5.735  20.793  0.00  0.00    +0.013 C 
ATOM     17  C   UNL     1       7.128  -5.589  21.987  0.00  0.00    +0.093 C 
ENDBRANCH   7  17
ENDBRANCH   1   8
BRANCH   4  18
ATOM     18  C   UNL     1       9.089   0.212  23.869  0.00  0.00    +0.121 C 
BRANCH  18  19
ATOM     19  C   UNL     1       9.539   1.630  24.321  0.00  0.00    +0.165 C 
BRANCH  19  20
ATOM     20  C   UNL     1       8.737   2.712  23.658  0.00  0.00    +0.019 A 
ATOM     21  S   UNL     1       8.913   4.335  24.186  0.00  0.00    -0.099 S 
ATOM     22  C   UNL     1       7.815   4.903  23.008  0.00  0.00    +0.045 A 
ATOM     23  C   UNL     1       7.300   3.880  22.244  0.00  0.00    +0.008 A 
ATOM     24  C   UNL     1       7.829   2.613  22.619  0.00  0.00    +0.014 A 
ENDBRANCH  19  20
BRANCH  19  25
ATOM     25  O   UNL     1      10.907   1.882  23.994  0.00  0.00    -0.385 OA
ATOM     26  H   UNL     1      10.920   2.607  23.349  0.00  0.00    +0.210 HD
ENDBRANCH  19  25
ENDBRANCH  18  19
ENDBRANCH   4  18
TORSDOF 7
ENDMDL
MODEL 9
REMARK VINA RESULT:      -5.9      2.891      7.679
REMARK  Name = 
REMARK  8 active torsions:
REMARK  status: ('A' for Active; 'I' for Inactive)
REMARK    1  A    between atoms: C_1  and  C_2
REMARK    2  A    between atoms: C_2  and  C_3
REMARK    3  A    between atoms: N_5  and  C_6
REMARK    4  A    between atoms: N_5  and  C_20
REMARK    5  A    between atoms: N_9  and  C_10
REMARK    6  A    between atoms: C_10  and  C_11
REMARK    7  A    between atoms: C_11  and  O_12
REMARK    8  A    between atoms: C_11  and  C_13
REMARK                            x       y       z     vdW  Elec       q    Type
REMARK                         _______ _______ _______ _____ _____    ______ ____
ROOT
ATOM      1  C   UNL     1       7.508   0.192  26.103  0.00  0.00    +0.084 C 
ATOM      2  C   UNL     1       8.704  -0.768  25.935  0.00  0.00    +0.038 C 
ATOM      3  C   UNL     1       8.559  -1.858  24.866  0.00  0.00    +0.086 C 
ATOM      4  N   UNL     1       7.220  -2.440  24.735  0.00  0.00    -0.299 NA
ATOM      5  C   UNL     1       6.191  -1.403  24.605  0.00  0.00    +0.086 C 
ATOM      6  C   UNL     1       6.150  -0.457  25.793  0.00  0.00    +0.038 C 
ENDROOT
BRANCH   1   8
ATOM      7  C   UNL     1       7.271   2.791  26.319  0.00  0.00    +0.220 C 
ATOM      8  N   UNL     1       7.594   1.618  25.602  0.00  0.00    -0.268 N 
ATOM      9  O   UNL     1       7.244   3.917  25.809  0.00  0.00    -0.275 OA
BRANCH   8  10
ATOM     10  C   UNL     1       8.347   1.771  24.344  0.00  0.00    +0.037 A 
ATOM     11  C   UNL     1       7.774   1.493  23.088  0.00  0.00    +0.023 A 
ATOM     12  C   UNL     1       8.532   1.500  21.907  0.00  0.00    +0.002 A 
ATOM     13  C   UNL     1       9.884   1.804  21.948  0.00  0.00    +0.000 A 
ATOM     14  C   UNL     1      10.473   2.120  23.167  0.00  0.00    +0.002 A 
ATOM     15  C   UNL     1       9.713   2.100  24.347  0.00  0.00    +0.023 A 
ENDBRANCH   8  10
BRANCH   7  17
ATOM     16  C   UNL     1       5.396   2.667  28.060  0.00  0.00    +0.013 C 
ATOM     17  C   UNL     1       6.890   2.664  27.777  0.00  0.00    +0.093 C 
ENDBRANCH   7  17
ENDBRANCH   1   8
BRANCH   4  18
ATOM     18  C   UNL     1       6.932  -3.437  25.787  0.00  0.00    +0.121 C 
BRANCH  18  19
ATOM     19  C   UNL     1       7.338  -4.893  25.422  0.00  0.00    +0.165 C 
BRANCH  19  20
ATOM     20  C   UNL     1       6.892  -5.271  24.040  0.00  0.00    +0.019 A 
ATOM     21  S   UNL     1       5.214  -5.400  23.702  0.00  0.00    -0.099 S 
ATOM     22  C   UNL     1       5.509  -5.772  22.062  0.00  0.00    +0.045 A 
ATOM     23  C   UNL     1       6.855  -5.827  21.777  0.00  0.00    +0.008 A 
ATOM     24  C   UNL     1       7.655  -5.540  22.918  0.00  0.00    +0.014 A 
ENDBRANCH  19  20
BRANCH  19  25
ATOM     25  O   UNL     1       6.752  -5.845  26.312  0.00  0.00    -0.385 OA
ATOM     26  H   UNL     1       5.993  -6.240  25.853  0.00  0.00    +0.210 HD
ENDBRANCH  19  25
ENDBRANCH  18  19
ENDBRANCH   4  18
TORSDOF 7
ENDMDL
