MODEL 1
REMARK VINA RESULT:      -6.9      0.000      0.000
REMARK  Name = 
REMARK  3 active torsions:
REMARK  status: ('A' for Active; 'I' for Inactive)
REMARK    1  A    between atoms: N_1  and  S_2
REMARK    2  A    between atoms: S_2  and  O_5
REMARK    3  A    between atoms: O_5  and  C_6
REMARK                            x       y       z     vdW  Elec       q    Type
REMARK                         _______ _______ _______ _____ _____    ______ ____
ROOT
ATOM      1  C   UNL     1       9.623  -1.070  23.353  0.00  0.00    +0.161 A 
ATOM      2  C   UNL     1       9.430  -1.627  24.608  0.00  0.00    +0.095 A 
ATOM      3  C   UNL     1       8.522  -2.679  24.761  0.00  0.00    +0.143 A 
ATOM      4  C   UNL     1       7.771  -3.196  23.707  0.00  0.00    +0.021 A 
ATOM      5  C   UNL     1       6.846  -4.307  23.990  0.00  0.00    -0.027 A 
ATOM      6  C   UNL     1       5.953  -4.866  22.907  0.00  0.00    +0.036 C 
ATOM      7  C   UNL     1       4.495  -4.429  23.080  0.00  0.00    +0.005 C 
ATOM      8  C   UNL     1       3.945  -4.580  24.504  0.00  0.00    +0.001 C 
ATOM      9  C   UNL     1       4.379  -5.880  25.180  0.00  0.00    +0.005 C 
ATOM     10  C   UNL     1       5.851  -5.953  25.634  0.00  0.00    +0.042 C 
ATOM     11  C   UNL     1       6.783  -4.821  25.241  0.00  0.00    +0.041 A 
ATOM     12  C   UNL     1       7.613  -4.279  26.350  0.00  0.00    +0.341 A 
ATOM     13  O   UNL     1       7.580  -4.748  27.483  0.00  0.00    -0.245 OA
ATOM     14  C   UNL     1       7.960  -2.602  22.452  0.00  0.00    +0.015 A 
ATOM     15  O   UNL     1       8.421  -3.197  26.061  0.00  0.00    -0.422 OA
ATOM     16  C   UNL     1       8.875  -1.550  22.277  0.00  0.00    +0.049 A 
ENDROOT
BRANCH   1  17
ATOM     17  O   UNL     1      10.478  -0.033  23.083  0.00  0.00    -0.334 OA
BRANCH  17  18
ATOM     18  S   UNL     1       9.996   1.517  23.197  0.00  0.00    +0.189 S 
ATOM     19  O   UNL     1       8.623   1.571  23.651  0.00  0.00    -0.119 OA
ATOM     20  O   UNL     1      11.034   2.318  23.802  0.00  0.00    -0.119 OA
BRANCH  18  21
ATOM     21  N   UNL     1       9.903   2.024  21.596  0.00  0.00    -0.174 NA
ATOM     22  H   UNL     1       8.968   1.815  21.244  0.00  0.00    +0.147 HD
ATOM     23  H   UNL     1      10.095   3.026  21.569  0.00  0.00    +0.147 HD
ENDBRANCH  18  21
ENDBRANCH  17  18
ENDBRANCH   1  17
TORSDOF 3
ENDMDL
MODEL 2
REMARK VINA RESULT:      -6.9      4.713      7.837
REMARK  Name = 
REMARK  3 active torsions:
REMARK  status: ('A' for Active; 'I' for Inactive)
REMARK    1  A    between atoms: N_1  and  S_2
REMARK    2  A    between atoms: S_2  and  O_5
REMARK    3  A    between atoms: O_5  and  C_6
REMARK                            x       y       z     vdW  Elec       q    Type
REMARK                         _______ _______ _______ _____ _____    ______ ____
ROOT
ATOM      1  C   UNL     1       9.335  -0.400  24.992  0.00  0.00    +0.161 A 
ATOM      2  C   UNL     1      10.302   0.417  24.425  0.00  0.00    +0.095 A 
ATOM      3  C   UNL     1      10.043   1.781  24.269  0.00  0.00    +0.143 A 
ATOM      4  C   UNL     1       8.839   2.375  24.639  0.00  0.00    +0.021 A 
ATOM      5  C   UNL     1       8.682   3.825  24.426  0.00  0.00    -0.027 A 
ATOM      6  C   UNL     1       7.376   4.517  24.741  0.00  0.00    +0.036 C 
ATOM      7  C   UNL     1       6.594   4.876  23.473  0.00  0.00    +0.005 C 
ATOM      8  C   UNL     1       7.427   5.549  22.375  0.00  0.00    +0.001 C 
ATOM      9  C   UNL     1       8.408   6.587  22.918  0.00  0.00    +0.005 C 
ATOM     10  C   UNL     1       9.646   6.033  23.654  0.00  0.00    +0.042 C 
ATOM     11  C   UNL     1       9.715   4.541  23.925  0.00  0.00    +0.041 A 
ATOM     12  C   UNL     1      11.007   3.898  23.562  0.00  0.00    +0.341 A 
ATOM     13  O   UNL     1      11.957   4.539  23.126  0.00  0.00    -0.245 OA
ATOM     14  C   UNL     1       7.864   1.529  25.184  0.00  0.00    +0.015 A 
ATOM     15  O   UNL     1      11.094   2.529  23.716  0.00  0.00    -0.422 OA
ATOM     16  C   UNL     1       8.109   0.157  25.359  0.00  0.00    +0.049 A 
ENDROOT
BRANCH   1  17
ATOM     17  O   UNL     1       9.472  -1.749  25.188  0.00  0.00    -0.334 OA
BRANCH  17  18
ATOM     18  S   UNL     1       9.420  -2.798  23.946  0.00  0.00    +0.189 S 
ATOM     19  O   UNL     1       8.054  -2.956  23.495  0.00  0.00    -0.119 OA
ATOM     20  O   UNL     1      10.503  -2.537  23.027  0.00  0.00    -0.119 OA
BRANCH  18  21
ATOM     21  N   UNL     1       9.774  -4.280  24.659  0.00  0.00    -0.174 NA
ATOM     22  H   UNL     1       9.829  -4.987  23.925  0.00  0.00    +0.147 HD
ATOM     23  H   UNL     1      10.661  -4.188  25.155  0.00  0.00    +0.147 HD
ENDBRANCH  18  21
ENDBRANCH  17  18
ENDBRANCH   1  17
TORSDOF 3
ENDMDL
MODEL 3
REMARK VINA RESULT:      -6.8      3.840      6.941
REMARK  Name = 
REMARK  3 active torsions:
REMARK  status: ('A' for Active; 'I' for Inactive)
REMARK    1  A    between atoms: N_1  and  S_2
REMARK    2  A    between atoms: S_2  and  O_5
REMARK    3  A    between atoms: O_5  and  C_6
REMARK                            x       y       z     vdW  Elec       q    Type
REMARK                         _______ _______ _______ _____ _____    ______ ____
ROOT
ATOM      1  C   UNL     1       8.738  -2.737  23.636  0.00  0.00    +0.161 A 
ATOM      2  C   UNL     1       7.624  -1.930  23.819  0.00  0.00    +0.095 A 
ATOM      3  C   UNL     1       7.705  -0.569  23.509  0.00  0.00    +0.143 A 
ATOM      4  C   UNL     1       8.867   0.038  23.038  0.00  0.00    +0.021 A 
ATOM      5  C   UNL     1       8.830   1.481  22.745  0.00  0.00    -0.027 A 
ATOM      6  C   UNL     1      10.074   2.212  22.298  0.00  0.00    +0.036 C 
ATOM      7  C   UNL     1      10.662   3.086  23.412  0.00  0.00    +0.005 C 
ATOM      8  C   UNL     1       9.638   3.957  24.150  0.00  0.00    +0.001 C 
ATOM      9  C   UNL     1       8.611   4.597  23.217  0.00  0.00    +0.005 C 
ATOM     10  C   UNL     1       7.537   3.653  22.637  0.00  0.00    +0.042 C 
ATOM     11  C   UNL     1       7.671   2.163  22.897  0.00  0.00    +0.041 A 
ATOM     12  C   UNL     1       6.429   1.496  23.373  0.00  0.00    +0.341 A 
ATOM     13  O   UNL     1       5.368   2.099  23.495  0.00  0.00    -0.245 OA
ATOM     14  C   UNL     1       9.988  -0.789  22.886  0.00  0.00    +0.015 A 
ATOM     15  O   UNL     1       6.519   0.157  23.697  0.00  0.00    -0.422 OA
ATOM     16  C   UNL     1       9.924  -2.161  23.182  0.00  0.00    +0.049 A 
ENDROOT
BRANCH   1  17
ATOM     17  O   UNL     1       8.780  -4.079  23.911  0.00  0.00    -0.334 OA
BRANCH  17  18
ATOM     18  S   UNL     1       8.832  -4.632  25.440  0.00  0.00    +0.189 S 
ATOM     19  O   UNL     1       9.102  -3.537  26.347  0.00  0.00    -0.119 OA
ATOM     20  O   UNL     1       7.756  -5.568  25.669  0.00  0.00    -0.119 OA
BRANCH  18  21
ATOM     21  N   UNL     1      10.246  -5.542  25.488  0.00  0.00    -0.174 NA
ATOM     22  H   UNL     1      10.477  -5.831  24.537  0.00  0.00    +0.147 HD
ATOM     23  H   UNL     1      10.983  -4.962  25.890  0.00  0.00    +0.147 HD
ENDBRANCH  18  21
ENDBRANCH  17  18
ENDBRANCH   1  17
TORSDOF 3
ENDMDL
MODEL 4
REMARK VINA RESULT:      -6.7      4.245      6.794
REMARK  Name = 
REMARK  3 active torsions:
REMARK  status: ('A' for Active; 'I' for Inactive)
REMARK    1  A    between atoms: N_1  and  S_2
REMARK    2  A    between atoms: S_2  and  O_5
REMARK    3  A    between atoms: O_5  and  C_6
REMARK                            x       y       z     vdW  Elec       q    Type
REMARK                         _______ _______ _______ _____ _____    ______ ____
ROOT
ATOM      1  C   UNL     1       5.647  -3.833  24.666  0.00  0.00    +0.161 A 
ATOM      2  C   UNL     1       6.906  -3.900  24.087  0.00  0.00    +0.095 A 
ATOM      3  C   UNL     1       7.596  -2.718  23.805  0.00  0.00    +0.143 A 
ATOM      4  C   UNL     1       7.073  -1.452  24.057  0.00  0.00    +0.021 A 
ATOM      5  C   UNL     1       7.894  -0.277  23.717  0.00  0.00    -0.027 A 
ATOM      6  C   UNL     1       7.358   1.123  23.900  0.00  0.00    +0.036 C 
ATOM      7  C   UNL     1       6.983   1.776  22.566  0.00  0.00    +0.005 C 
ATOM      8  C   UNL     1       8.040   1.636  21.465  0.00  0.00    +0.001 C 
ATOM      9  C   UNL     1       9.467   1.835  21.973  0.00  0.00    +0.005 C 
ATOM     10  C   UNL     1      10.055   0.688  22.820  0.00  0.00    +0.042 C 
ATOM     11  C   UNL     1       9.139  -0.456  23.217  0.00  0.00    +0.041 A 
ATOM     12  C   UNL     1       9.698  -1.816  22.980  0.00  0.00    +0.341 A 
ATOM     13  O   UNL     1      10.831  -1.991  22.546  0.00  0.00    -0.245 OA
ATOM     14  C   UNL     1       5.788  -1.404  24.615  0.00  0.00    +0.015 A 
ATOM     15  O   UNL     1       8.874  -2.890  23.252  0.00  0.00    -0.422 OA
ATOM     16  C   UNL     1       5.083  -2.582  24.916  0.00  0.00    +0.049 A 
ENDROOT
BRANCH   1  17
ATOM     17  O   UNL     1       4.875  -4.921  24.980  0.00  0.00    -0.334 OA
BRANCH  17  18
ATOM     18  S   UNL     1       3.912  -5.628  23.875  0.00  0.00    +0.189 S 
ATOM     19  O   UNL     1       2.577  -5.775  24.412  0.00  0.00    -0.119 OA
ATOM     20  O   UNL     1       4.153  -5.061  22.568  0.00  0.00    -0.119 OA
BRANCH  18  21
ATOM     21  N   UNL     1       4.485  -7.207  23.799  0.00  0.00    -0.174 NA
ATOM     22  H   UNL     1       4.073  -7.662  22.983  0.00  0.00    +0.147 HD
ATOM     23  H   UNL     1       5.503  -7.173  23.732  0.00  0.00    +0.147 HD
ENDBRANCH  18  21
ENDBRANCH  17  18
ENDBRANCH   1  17
TORSDOF 3
ENDMDL
MODEL 5
REMARK VINA RESULT:      -6.6      3.696      6.712
REMARK  Name = 
REMARK  3 active torsions:
REMARK  status: ('A' for Active; 'I' for Inactive)
REMARK    1  A    between atoms: N_1  and  S_2
REMARK    2  A    between atoms: S_2  and  O_5
REMARK    3  A    between atoms: O_5  and  C_6
REMARK                            x       y       z     vdW  Elec       q    Type
REMARK                         _______ _______ _______ _____ _____    ______ ____
ROOT
ATOM      1  C   UNL     1       6.425  -3.905  25.538  0.00  0.00    +0.161 A 
ATOM      2  C   UNL     1       7.511  -3.909  24.674  0.00  0.00    +0.095 A 
ATOM      3  C   UNL     1       8.043  -2.694  24.234  0.00  0.00    +0.143 A 
ATOM      4  C   UNL     1       7.522  -1.456  24.603  0.00  0.00    +0.021 A 
ATOM      5  C   UNL     1       8.168  -0.241  24.075  0.00  0.00    -0.027 A 
ATOM      6  C   UNL     1       7.610   1.129  24.382  0.00  0.00    +0.036 C 
ATOM      7  C   UNL     1       6.889   1.740  23.176  0.00  0.00    +0.005 C 
ATOM      8  C   UNL     1       7.658   1.644  21.853  0.00  0.00    +0.001 C 
ATOM      9  C   UNL     1       9.151   1.931  22.004  0.00  0.00    +0.005 C 
ATOM     10  C   UNL     1       9.991   0.831  22.686  0.00  0.00    +0.042 C 
ATOM     11  C   UNL     1       9.265  -0.357  23.291  0.00  0.00    +0.041 A 
ATOM     12  C   UNL     1       9.829  -1.686  22.928  0.00  0.00    +0.341 A 
ATOM     13  O   UNL     1      10.834  -1.803  22.235  0.00  0.00    -0.245 OA
ATOM     14  C   UNL     1       6.408  -1.473  25.454  0.00  0.00    +0.015 A 
ATOM     15  O   UNL     1       9.159  -2.801  23.390  0.00  0.00    -0.422 OA
ATOM     16  C   UNL     1       5.866  -2.684  25.916  0.00  0.00    +0.049 A 
ENDROOT
BRANCH   1  17
ATOM     17  O   UNL     1       5.816  -5.030  26.029  0.00  0.00    -0.334 OA
BRANCH  17  18
ATOM     18  S   UNL     1       6.219  -5.651  27.478  0.00  0.00    +0.189 S 
ATOM     19  O   UNL     1       6.058  -4.644  28.504  0.00  0.00    -0.119 OA
ATOM     20  O   UNL     1       5.675  -6.981  27.619  0.00  0.00    -0.119 OA
BRANCH  18  21
ATOM     21  N   UNL     1       7.886  -5.849  27.377  0.00  0.00    -0.174 NA
ATOM     22  H   UNL     1       8.205  -5.464  26.486  0.00  0.00    +0.147 HD
ATOM     23  H   UNL     1       8.312  -5.362  28.166  0.00  0.00    +0.147 HD
ENDBRANCH  18  21
ENDBRANCH  17  18
ENDBRANCH   1  17
TORSDOF 3
ENDMDL
MODEL 6
REMARK VINA RESULT:      -6.6      1.983      2.334
REMARK  Name = 
REMARK  3 active torsions:
REMARK  status: ('A' for Active; 'I' for Inactive)
REMARK    1  A    between atoms: N_1  and  S_2
REMARK    2  A    between atoms: S_2  and  O_5
REMARK    3  A    between atoms: O_5  and  C_6
REMARK                            x       y       z     vdW  Elec       q    Type
REMARK                         _______ _______ _______ _____ _____    ______ ____
ROOT
ATOM      1  C   UNL     1       8.723   0.155  22.566  0.00  0.00    +0.161 A 
ATOM      2  C   UNL     1       7.487   0.006  23.179  0.00  0.00    +0.095 A 
ATOM      3  C   UNL     1       7.016  -1.277  23.473  0.00  0.00    +0.143 A 
ATOM      4  C   UNL     1       7.722  -2.437  23.161  0.00  0.00    +0.021 A 
ATOM      5  C   UNL     1       7.124  -3.735  23.520  0.00  0.00    -0.027 A 
ATOM      6  C   UNL     1       7.804  -5.031  23.148  0.00  0.00    +0.036 C 
ATOM      7  C   UNL     1       7.104  -5.735  21.980  0.00  0.00    +0.005 C 
ATOM      8  C   UNL     1       5.579  -5.827  22.110  0.00  0.00    +0.001 C 
ATOM      9  C   UNL     1       5.116  -6.173  23.525  0.00  0.00    +0.005 C 
ATOM     10  C   UNL     1       5.236  -5.049  24.574  0.00  0.00    +0.042 C 
ATOM     11  C   UNL     1       5.940  -3.764  24.176  0.00  0.00    +0.041 A 
ATOM     12  C   UNL     1       5.211  -2.516  24.530  0.00  0.00    +0.341 A 
ATOM     13  O   UNL     1       4.149  -2.529  25.142  0.00  0.00    -0.245 OA
ATOM     14  C   UNL     1       8.955  -2.267  22.517  0.00  0.00    +0.015 A 
ATOM     15  O   UNL     1       5.773  -1.323  24.120  0.00  0.00    -0.422 OA
ATOM     16  C   UNL     1       9.450  -0.985  22.223  0.00  0.00    +0.049 A 
ENDROOT
BRANCH   1  17
ATOM     17  O   UNL     1       9.283   1.358  22.225  0.00  0.00    -0.334 OA
BRANCH  17  18
ATOM     18  S   UNL     1       9.741   2.434  23.356  0.00  0.00    +0.189 S 
ATOM     19  O   UNL     1       8.684   3.399  23.570  0.00  0.00    -0.119 OA
ATOM     20  O   UNL     1      10.393   1.758  24.453  0.00  0.00    -0.119 OA
BRANCH  18  21
ATOM     21  N   UNL     1      10.943   3.329  22.593  0.00  0.00    -0.174 NA
ATOM     22  H   UNL     1      11.805   2.782  22.595  0.00  0.00    +0.147 HD
ATOM     23  H   UNL     1      10.633   3.530  21.641  0.00  0.00    +0.147 HD
ENDBRANCH  18  21
ENDBRANCH  17  18
ENDBRANCH   1  17
TORSDOF 3
ENDMDL
MODEL 7
REMARK VINA RESULT:      -6.5      4.381      6.705
REMARK  Name = 
REMARK  3 active torsions:
REMARK  status: ('A' for Active; 'I' for Inactive)
REMARK    1  A    between atoms: N_1  and  S_2
REMARK    2  A    between atoms: S_2  and  O_5
REMARK    3  A    between atoms: O_5  and  C_6
REMARK                            x       y       z     vdW  Elec       q    Type
REMARK                         _______ _______ _______ _____ _____    ______ ____
ROOT
ATOM      1  C   UNL     1       7.645  -4.646  26.639  0.00  0.00    +0.161 A 
ATOM      2  C   UNL     1       7.079  -3.382  26.724  0.00  0.00    +0.095 A 
ATOM      3  C   UNL     1       7.215  -2.494  25.653  0.00  0.00    +0.143 A 
ATOM      4  C   UNL     1       7.918  -2.805  24.491  0.00  0.00    +0.021 A 
ATOM      5  C   UNL     1       7.993  -1.787  23.428  0.00  0.00    -0.027 A 
ATOM      6  C   UNL     1       8.798  -2.035  22.174  0.00  0.00    +0.036 C 
ATOM      7  C   UNL     1      10.110  -1.244  22.165  0.00  0.00    +0.005 C 
ATOM      8  C   UNL     1       9.971   0.232  22.555  0.00  0.00    +0.001 C 
ATOM      9  C   UNL     1       8.739   0.900  21.946  0.00  0.00    +0.005 C 
ATOM     10  C   UNL     1       7.379   0.508  22.559  0.00  0.00    +0.042 C 
ATOM     11  C   UNL     1       7.348  -0.608  23.587  0.00  0.00    +0.041 A 
ATOM     12  C   UNL     1       6.575  -0.301  24.821  0.00  0.00    +0.341 A 
ATOM     13  O   UNL     1       5.970   0.755  24.969  0.00  0.00    -0.245 OA
ATOM     14  C   UNL     1       8.506  -4.076  24.435  0.00  0.00    +0.015 A 
ATOM     15  O   UNL     1       6.581  -1.254  25.820  0.00  0.00    -0.422 OA
ATOM     16  C   UNL     1       8.371  -4.986  25.497  0.00  0.00    +0.049 A 
ENDROOT
BRANCH   1  17
ATOM     17  O   UNL     1       7.583  -5.595  27.625  0.00  0.00    -0.334 OA
BRANCH  17  18
ATOM     18  S   UNL     1       6.159  -6.149  28.183  0.00  0.00    +0.189 S 
ATOM     19  O   UNL     1       5.553  -5.160  29.048  0.00  0.00    -0.119 OA
ATOM     20  O   UNL     1       5.421  -6.789  27.119  0.00  0.00    -0.119 OA
BRANCH  18  21
ATOM     21  N   UNL     1       6.597  -7.382  29.239  0.00  0.00    -0.174 NA
ATOM     22  H   UNL     1       6.514  -7.035  30.195  0.00  0.00    +0.147 HD
ATOM     23  H   UNL     1       5.975  -8.175  29.077  0.00  0.00    +0.147 HD
ENDBRANCH  18  21
ENDBRANCH  17  18
ENDBRANCH   1  17
TORSDOF 3
ENDMDL
MODEL 8
REMARK VINA RESULT:      -6.5      4.222      6.889
REMARK  Name = 
REMARK  3 active torsions:
REMARK  status: ('A' for Active; 'I' for Inactive)
REMARK    1  A    between atoms: N_1  and  S_2
REMARK    2  A    between atoms: S_2  and  O_5
REMARK    3  A    between atoms: O_5  and  C_6
REMARK                            x       y       z     vdW  Elec       q    Type
REMARK                         _______ _______ _______ _____ _____    ______ ____
ROOT
ATOM      1  C   UNL     1       6.821  -3.619  23.576  0.00  0.00    +0.161 A 
ATOM      2  C   UNL     1       6.197  -2.562  24.223  0.00  0.00    +0.095 A 
ATOM      3  C   UNL     1       6.523  -1.250  23.868  0.00  0.00    +0.143 A 
ATOM      4  C   UNL     1       7.473  -0.938  22.898  0.00  0.00    +0.021 A 
ATOM      5  C   UNL     1       7.732   0.483  22.608  0.00  0.00    -0.027 A 
ATOM      6  C   UNL     1       8.798   0.890  21.618  0.00  0.00    +0.036 C 
ATOM      7  C   UNL     1      10.047   1.446  22.311  0.00  0.00    +0.005 C 
ATOM      8  C   UNL     1       9.764   2.480  23.408  0.00  0.00    +0.001 C 
ATOM      9  C   UNL     1       8.666   3.471  23.030  0.00  0.00    +0.005 C 
ATOM     10  C   UNL     1       7.223   2.925  23.036  0.00  0.00    +0.042 C 
ATOM     11  C   UNL     1       7.018   1.436  23.252  0.00  0.00    +0.041 A 
ATOM     12  C   UNL     1       5.985   1.087  24.265  0.00  0.00    +0.341 A 
ATOM     13  O   UNL     1       5.318   1.940  24.840  0.00  0.00    -0.245 OA
ATOM     14  C   UNL     1       8.112  -2.018  22.276  0.00  0.00    +0.015 A 
ATOM     15  O   UNL     1       5.816  -0.252  24.554  0.00  0.00    -0.422 OA
ATOM     16  C   UNL     1       7.790  -3.344  22.611  0.00  0.00    +0.049 A 
ENDROOT
BRANCH   1  17
ATOM     17  O   UNL     1       6.588  -4.943  23.843  0.00  0.00    -0.334 OA
BRANCH  17  18
ATOM     18  S   UNL     1       5.413  -5.770  23.081  0.00  0.00    +0.189 S 
ATOM     19  O   UNL     1       4.880  -6.787  23.961  0.00  0.00    -0.119 OA
ATOM     20  O   UNL     1       4.557  -4.863  22.353  0.00  0.00    -0.119 OA
BRANCH  18  21
ATOM     21  N   UNL     1       6.240  -6.652  21.912  0.00  0.00    -0.174 NA
ATOM     22  H   UNL     1       6.990  -7.172  22.369  0.00  0.00    +0.147 HD
ATOM     23  H   UNL     1       5.575  -7.280  21.459  0.00  0.00    +0.147 HD
ENDBRANCH  18  21
ENDBRANCH  17  18
ENDBRANCH   1  17
TORSDOF 3
ENDMDL
MODEL 9
REMARK VINA RESULT:      -6.5      1.763      2.096
REMARK  Name = 
REMARK  3 active torsions:
REMARK  status: ('A' for Active; 'I' for Inactive)
REMARK    1  A    between atoms: N_1  and  S_2
REMARK    2  A    between atoms: S_2  and  O_5
REMARK    3  A    between atoms: O_5  and  C_6
REMARK                            x       y       z     vdW  Elec       q    Type
REMARK                         _______ _______ _______ _____ _____    ______ ____
ROOT
ATOM      1  C   UNL     1       9.306   0.654  22.754  0.00  0.00    +0.161 A 
ATOM      2  C   UNL     1       9.902  -0.469  23.309  0.00  0.00    +0.095 A 
ATOM      3  C   UNL     1       9.118  -1.586  23.608  0.00  0.00    +0.143 A 
ATOM      4  C   UNL     1       7.742  -1.630  23.396  0.00  0.00    +0.021 A 
ATOM      5  C   UNL     1       7.020  -2.864  23.751  0.00  0.00    -0.027 A 
ATOM      6  C   UNL     1       5.518  -2.951  23.610  0.00  0.00    +0.036 C 
ATOM      7  C   UNL     1       4.808  -2.886  24.966  0.00  0.00    +0.005 C 
ATOM      8  C   UNL     1       5.403  -3.797  26.046  0.00  0.00    +0.001 C 
ATOM      9  C   UNL     1       5.794  -5.177  25.519  0.00  0.00    +0.005 C 
ATOM     10  C   UNL     1       7.056  -5.235  24.634  0.00  0.00    +0.042 C 
ATOM     11  C   UNL     1       7.710  -3.927  24.226  0.00  0.00    +0.041 A 
ATOM     12  C   UNL     1       9.185  -3.877  24.420  0.00  0.00    +0.341 A 
ATOM     13  O   UNL     1       9.824  -4.840  24.831  0.00  0.00    -0.245 OA
ATOM     14  C   UNL     1       7.153  -0.476  22.861  0.00  0.00    +0.015 A 
ATOM     15  O   UNL     1       9.816  -2.682  24.136  0.00  0.00    -0.422 OA
ATOM     16  C   UNL     1       7.927   0.653  22.543  0.00  0.00    +0.049 A 
ENDROOT
BRANCH   1  17
ATOM     17  O   UNL     1       9.970   1.807  22.427  0.00  0.00    -0.334 OA
BRANCH  17  18
ATOM     18  S   UNL     1      10.039   3.069  23.452  0.00  0.00    +0.189 S 
ATOM     19  O   UNL     1       9.422   2.710  24.711  0.00  0.00    -0.119 OA
ATOM     20  O   UNL     1      11.340   3.693  23.388  0.00  0.00    -0.119 OA
BRANCH  18  21
ATOM     21  N   UNL     1       8.966   4.181  22.789  0.00  0.00    -0.174 NA
ATOM     22  H   UNL     1       9.233   4.349  21.818  0.00  0.00    +0.147 HD
ATOM     23  H   UNL     1       8.025   3.793  22.855  0.00  0.00    +0.147 HD
ENDBRANCH  18  21
ENDBRANCH  17  18
ENDBRANCH   1  17
TORSDOF 3
ENDMDL
