MODEL 1
REMARK VINA RESULT:      -6.9      0.000      0.000
REMARK  Name = 
REMARK  16 active torsions:
REMARK  status: ('A' for Active; 'I' for Inactive)
REMARK    1  A    between atoms: C_1  and  C_2
REMARK    2  A    between atoms: C_2  and  C_3
REMARK    3  A    between atoms: C_2  and  O_4
REMARK    4  A    between atoms: O_4  and  C_5
REMARK    5  A    between atoms: C_5  and  C_7
REMARK    6  A    between atoms: C_7  and  C_9
REMARK    7  A    between atoms: C_7  and  N_10
REMARK    8  A    between atoms: N_10  and  P_11
REMARK    9  A    between atoms: P_11  and  O_13
REMARK   10  A    between atoms: P_11  and  O_33
REMARK   11  A    between atoms: O_13  and  C_14
REMARK   12  A    between atoms: C_14  and  C_15
REMARK   13  A    between atoms: C_17  and  N_19
REMARK   14  A    between atoms: C_27  and  C_28
REMARK   15  A    between atoms: C_30  and  O_32
REMARK   16  A    between atoms: O_33  and  C_34
REMARK                            x       y       z     vdW  Elec       q    Type
REMARK                         _______ _______ _______ _____ _____    ______ ____
ROOT
ATOM      1  O   UNL     1       5.751  -0.654  26.234  0.00  0.00    -0.284 OA
ENDROOT
BRANCH   1   2
ATOM      2  P   UNL     1       7.231   0.035  25.871  0.00  0.00    +0.462 P 
ATOM      3  O   UNL     1       7.887  -0.638  27.101  0.00  0.00    -0.228 OA
BRANCH   2   4
ATOM      4  N   UNL     1       7.847  -1.127  24.783  0.00  0.00    -0.199 NA
ATOM      5  H   UNL     1       7.297  -1.962  24.988  0.00  0.00    +0.135 HD
BRANCH   4   6
ATOM      6  C   UNL     1       9.280  -1.479  24.884  0.00  0.00    +0.171 C 
ATOM      7  C   UNL     1       9.551  -2.737  24.060  0.00  0.00    +0.036 C 
BRANCH   6   8
ATOM      8  C   UNL     1      10.208  -0.309  24.497  0.00  0.00    +0.325 C 
ATOM      9  O   UNL     1      10.738   0.416  25.334  0.00  0.00    -0.249 OA
BRANCH   8  10
ATOM     10  O   UNL     1      10.428  -0.233  23.151  0.00  0.00    -0.461 OA
BRANCH  10  12
ATOM     11  C   UNL     1      10.254   1.894  21.995  0.00  0.00    +0.052 C 
ATOM     12  C   UNL     1       9.544   0.595  22.367  0.00  0.00    +0.170 C 
ATOM     13  C   UNL     1       9.188  -0.174  21.093  0.00  0.00    +0.052 C 
ENDBRANCH  10  12
ENDBRANCH   8  10
ENDBRANCH   6   8
ENDBRANCH   4   6
ENDBRANCH   2   4
BRANCH   2  14
ATOM     14  O   UNL     1       6.497   0.788  24.496  0.00  0.00    -0.413 OA
BRANCH  14  15
ATOM     15  C   UNL     1       6.994   2.027  24.164  0.00  0.00    +0.131 A 
ATOM     16  C   UNL     1       7.919   2.604  25.030  0.00  0.00    +0.046 A 
ATOM     17  C   UNL     1       8.475   3.847  24.722  0.00  0.00    +0.004 A 
ATOM     18  C   UNL     1       8.102   4.513  23.553  0.00  0.00    +0.000 A 
ATOM     19  C   UNL     1       7.158   3.945  22.700  0.00  0.00    +0.004 A 
ATOM     20  C   UNL     1       6.595   2.707  23.010  0.00  0.00    +0.046 A 
ENDBRANCH  14  15
ENDBRANCH   2  14
ENDBRANCH   1   2
BRANCH   1  21
ATOM     21  C   UNL     1       5.713  -1.614  27.303  0.00  0.00    +0.206 C 
BRANCH  21  22
ATOM     22  C   UNL     1       5.383  -3.079  26.913  0.00  0.00    +0.179 C 
ATOM     23  C   UNL     1       6.281  -4.140  27.550  0.00  0.00    +0.187 C 
ATOM     24  C   UNL     1       6.396  -5.209  26.443  0.00  0.00    +0.182 C 
ATOM     25  F   UNL     1       6.002  -6.409  26.947  0.00  0.00    -0.235 F 
ATOM     26  C   UNL     1       7.842  -5.314  25.989  0.00  0.00    +0.055 C 
ATOM     27  C   UNL     1       5.441  -4.696  25.340  0.00  0.00    +0.263 C 
ATOM     28  O   UNL     1       5.488  -3.262  25.503  0.00  0.00    -0.345 OA
BRANCH  27  29
ATOM     29  N   UNL     1       5.723  -5.009  23.940  0.00  0.00    -0.271 N 
ATOM     30  C   UNL     1       5.293  -6.235  23.446  0.00  0.00    +0.331 A 
ATOM     31  O   UNL     1       4.745  -7.100  24.120  0.00  0.00    -0.246 OA
ATOM     32  N   UNL     1       5.508  -6.440  22.109  0.00  0.00    -0.275 N 
ATOM     33  H   UNL     1       5.205  -7.319  21.729  0.00  0.00    +0.173 HD
ATOM     34  C   UNL     1       5.970  -5.510  21.215  0.00  0.00    +0.254 A 
ATOM     35  O   UNL     1       6.042  -5.716  20.014  0.00  0.00    -0.268 OA
ATOM     36  C   UNL     1       6.346  -4.211  21.784  0.00  0.00    +0.088 A 
ATOM     37  C   UNL     1       6.209  -4.027  23.095  0.00  0.00    +0.098 A 
ENDBRANCH  27  29
BRANCH  23  38
ATOM     38  O   UNL     1       5.758  -4.662  28.778  0.00  0.00    -0.386 OA
ATOM     39  H   UNL     1       5.012  -5.246  28.548  0.00  0.00    +0.210 HD
ENDBRANCH  23  38
ENDBRANCH  21  22
ENDBRANCH   1  21
TORSDOF 12
ENDMDL
MODEL 2
REMARK VINA RESULT:      -6.7      2.816      7.753
REMARK  Name = 
REMARK  16 active torsions:
REMARK  status: ('A' for Active; 'I' for Inactive)
REMARK    1  A    between atoms: C_1  and  C_2
REMARK    2  A    between atoms: C_2  and  C_3
REMARK    3  A    between atoms: C_2  and  O_4
REMARK    4  A    between atoms: O_4  and  C_5
REMARK    5  A    between atoms: C_5  and  C_7
REMARK    6  A    between atoms: C_7  and  C_9
REMARK    7  A    between atoms: C_7  and  N_10
REMARK    8  A    between atoms: N_10  and  P_11
REMARK    9  A    between atoms: P_11  and  O_13
REMARK   10  A    between atoms: P_11  and  O_33
REMARK   11  A    between atoms: O_13  and  C_14
REMARK   12  A    between atoms: C_14  and  C_15
REMARK   13  A    between atoms: C_17  and  N_19
REMARK   14  A    between atoms: C_27  and  C_28
REMARK   15  A    between atoms: C_30  and  O_32
REMARK   16  A    between atoms: O_33  and  C_34
REMARK                            x       y       z     vdW  Elec       q    Type
REMARK                         _______ _______ _______ _____ _____    ______ ____
ROOT
ATOM      1  O   UNL     1       7.207  -3.348  26.541  0.00  0.00    -0.284 OA
ENDROOT
BRANCH   1   2
ATOM      2  P   UNL     1       7.809  -4.892  26.323  0.00  0.00    +0.462 P 
ATOM      3  O   UNL     1       9.162  -4.495  26.962  0.00  0.00    -0.228 OA
BRANCH   2   4
ATOM      4  N   UNL     1       7.244  -5.642  27.748  0.00  0.00    -0.199 NA
ATOM      5  H   UNL     1       7.591  -6.599  27.669  0.00  0.00    +0.135 HD
BRANCH   4   6
ATOM      6  C   UNL     1       5.783  -5.695  27.971  0.00  0.00    +0.171 C 
ATOM      7  C   UNL     1       5.363  -7.142  28.229  0.00  0.00    +0.036 C 
BRANCH   6   8
ATOM      8  C   UNL     1       5.318  -4.738  29.088  0.00  0.00    +0.325 C 
ATOM      9  O   UNL     1       5.639  -4.891  30.263  0.00  0.00    -0.249 OA
BRANCH   8  10
ATOM     10  O   UNL     1       4.595  -3.682  28.610  0.00  0.00    -0.461 OA
BRANCH  10  12
ATOM     11  C   UNL     1       2.294  -4.177  28.015  0.00  0.00    +0.052 C 
ATOM     12  C   UNL     1       3.707  -3.919  27.497  0.00  0.00    +0.170 C 
ATOM     13  C   UNL     1       3.707  -2.666  26.622  0.00  0.00    +0.052 C 
ENDBRANCH  10  12
ENDBRANCH   8  10
ENDBRANCH   6   8
ENDBRANCH   4   6
ENDBRANCH   2   4
BRANCH   2  14
ATOM     14  O   UNL     1       6.298  -5.337  25.608  0.00  0.00    -0.413 OA
BRANCH  14  15
ATOM     15  C   UNL     1       6.293  -5.418  24.234  0.00  0.00    +0.131 A 
ATOM     16  C   UNL     1       7.516  -5.310  23.578  0.00  0.00    +0.046 A 
ATOM     17  C   UNL     1       7.568  -5.416  22.187  0.00  0.00    +0.004 A 
ATOM     18  C   UNL     1       6.398  -5.625  21.455  0.00  0.00    +0.000 A 
ATOM     19  C   UNL     1       5.172  -5.708  22.111  0.00  0.00    +0.004 A 
ATOM     20  C   UNL     1       5.117  -5.594  23.500  0.00  0.00    +0.046 A 
ENDBRANCH  14  15
ENDBRANCH   2  14
ENDBRANCH   1   2
BRANCH   1  21
ATOM     21  C   UNL     1       8.121  -2.251  26.367  0.00  0.00    +0.206 C 
BRANCH  21  22
ATOM     22  C   UNL     1       8.363  -1.769  24.913  0.00  0.00    +0.179 C 
ATOM     23  C   UNL     1       9.818  -1.820  24.445  0.00  0.00    +0.187 C 
ATOM     24  C   UNL     1       9.931  -0.586  23.525  0.00  0.00    +0.182 C 
ATOM     25  F   UNL     1      10.377  -0.985  22.305  0.00  0.00    -0.235 F 
ATOM     26  C   UNL     1      10.927   0.398  24.118  0.00  0.00    +0.055 C 
ATOM     27  C   UNL     1       8.485  -0.039  23.470  0.00  0.00    +0.263 C 
ATOM     28  O   UNL     1       7.939  -0.417  24.751  0.00  0.00    -0.345 OA
BRANCH  27  29
ATOM     29  N   UNL     1       8.264   1.395  23.281  0.00  0.00    -0.271 N 
ATOM     30  C   UNL     1       8.354   1.904  21.991  0.00  0.00    +0.331 A 
ATOM     31  O   UNL     1       8.667   1.245  21.005  0.00  0.00    -0.246 OA
ATOM     32  N   UNL     1       8.055   3.234  21.860  0.00  0.00    -0.275 N 
ATOM     33  H   UNL     1       8.113   3.625  20.937  0.00  0.00    +0.173 HD
ATOM     34  C   UNL     1       7.551   4.047  22.842  0.00  0.00    +0.254 A 
ATOM     35  O   UNL     1       7.203   5.199  22.641  0.00  0.00    -0.268 OA
ATOM     36  C   UNL     1       7.416   3.435  24.168  0.00  0.00    +0.088 A 
ATOM     37  C   UNL     1       7.774   2.162  24.322  0.00  0.00    +0.098 A 
ENDBRANCH  27  29
BRANCH  23  38
ATOM     38  O   UNL     1      10.157  -3.043  23.782  0.00  0.00    -0.386 OA
ATOM     39  H   UNL     1       9.484  -3.193  23.091  0.00  0.00    +0.210 HD
ENDBRANCH  23  38
ENDBRANCH  21  22
ENDBRANCH   1  21
TORSDOF 12
ENDMDL
MODEL 3
REMARK VINA RESULT:      -6.7      2.782      7.872
REMARK  Name = 
REMARK  16 active torsions:
REMARK  status: ('A' for Active; 'I' for Inactive)
REMARK    1  A    between atoms: C_1  and  C_2
REMARK    2  A    between atoms: C_2  and  C_3
REMARK    3  A    between atoms: C_2  and  O_4
REMARK    4  A    between atoms: O_4  and  C_5
REMARK    5  A    between atoms: C_5  and  C_7
REMARK    6  A    between atoms: C_7  and  C_9
REMARK    7  A    between atoms: C_7  and  N_10
REMARK    8  A    between atoms: N_10  and  P_11
REMARK    9  A    between atoms: P_11  and  O_13
REMARK   10  A    between atoms: P_11  and  O_33
REMARK   11  A    between atoms: O_13  and  C_14
REMARK   12  A    between atoms: C_14  and  C_15
REMARK   13  A    between atoms: C_17  and  N_19
REMARK   14  A    between atoms: C_27  and  C_28
REMARK   15  A    between atoms: C_30  and  O_32
REMARK   16  A    between atoms: O_33  and  C_34
REMARK                            x       y       z     vdW  Elec       q    Type
REMARK                         _______ _______ _______ _____ _____    ______ ____
ROOT
ATOM      1  O   UNL     1       7.083  -2.802  26.726  0.00  0.00    -0.284 OA
ENDROOT
BRANCH   1   2
ATOM      2  P   UNL     1       7.042  -4.332  26.053  0.00  0.00    +0.462 P 
ATOM      3  O   UNL     1       7.875  -4.908  27.224  0.00  0.00    -0.228 OA
BRANCH   2   4
ATOM      4  N   UNL     1       5.567  -4.905  26.691  0.00  0.00    -0.199 NA
ATOM      5  H   UNL     1       5.640  -4.697  27.688  0.00  0.00    +0.135 HD
BRANCH   4   6
ATOM      6  C   UNL     1       5.258  -6.343  26.539  0.00  0.00    +0.171 C 
ATOM      7  C   UNL     1       4.781  -6.903  27.879  0.00  0.00    +0.036 C 
BRANCH   6   8
ATOM      8  C   UNL     1       4.260  -6.618  25.395  0.00  0.00    +0.325 C 
ATOM      9  O   UNL     1       4.479  -7.446  24.515  0.00  0.00    -0.249 OA
BRANCH   8  10
ATOM     10  O   UNL     1       3.099  -5.911  25.526  0.00  0.00    -0.461 OA
BRANCH  10  12
ATOM     11  C   UNL     1       1.674  -5.412  23.626  0.00  0.00    +0.052 C 
ATOM     12  C   UNL     1       2.800  -4.912  24.528  0.00  0.00    +0.170 C 
ATOM     13  C   UNL     1       2.346  -3.645  25.254  0.00  0.00    +0.052 C 
ENDBRANCH  10  12
ENDBRANCH   8  10
ENDBRANCH   6   8
ENDBRANCH   4   6
ENDBRANCH   2   4
BRANCH   2  14
ATOM     14  O   UNL     1       6.112  -3.688  24.744  0.00  0.00    -0.413 OA
BRANCH  14  15
ATOM     15  C   UNL     1       6.310  -4.291  23.524  0.00  0.00    +0.131 A 
ATOM     16  C   UNL     1       7.220  -5.343  23.465  0.00  0.00    +0.046 A 
ATOM     17  C   UNL     1       7.433  -6.008  22.256  0.00  0.00    +0.004 A 
ATOM     18  C   UNL     1       6.742  -5.617  21.108  0.00  0.00    +0.000 A 
ATOM     19  C   UNL     1       5.849  -4.548  21.164  0.00  0.00    +0.004 A 
ATOM     20  C   UNL     1       5.641  -3.878  22.369  0.00  0.00    +0.046 A 
ENDBRANCH  14  15
ENDBRANCH   2  14
ENDBRANCH   1   2
BRANCH   1  21
ATOM     21  C   UNL     1       8.245  -1.996  26.469  0.00  0.00    +0.206 C 
BRANCH  21  22
ATOM     22  C   UNL     1       8.413  -1.454  25.025  0.00  0.00    +0.179 C 
ATOM     23  C   UNL     1       9.812  -1.618  24.428  0.00  0.00    +0.187 C 
ATOM     24  C   UNL     1       9.972  -0.348  23.565  0.00  0.00    +0.182 C 
ATOM     25  F   UNL     1      10.272  -0.716  22.292  0.00  0.00    -0.235 F 
ATOM     26  C   UNL     1      11.108   0.498  24.117  0.00  0.00    +0.055 C 
ATOM     27  C   UNL     1       8.590   0.338  23.666  0.00  0.00    +0.263 C 
ATOM     28  O   UNL     1       8.117  -0.061  24.970  0.00  0.00    -0.345 OA
BRANCH  27  29
ATOM     29  N   UNL     1       8.500   1.795  23.571  0.00  0.00    -0.271 N 
ATOM     30  C   UNL     1       8.335   2.357  22.310  0.00  0.00    +0.331 A 
ATOM     31  O   UNL     1       8.321   1.719  21.263  0.00  0.00    -0.246 OA
ATOM     32  N   UNL     1       8.172   3.717  22.288  0.00  0.00    -0.275 N 
ATOM     33  H   UNL     1       8.051   4.145  21.388  0.00  0.00    +0.173 HD
ATOM     34  C   UNL     1       8.019   4.528  23.381  0.00  0.00    +0.254 A 
ATOM     35  O   UNL     1       7.771   5.720  23.299  0.00  0.00    -0.268 OA
ATOM     36  C   UNL     1       8.136   3.867  24.685  0.00  0.00    +0.088 A 
ATOM     37  C   UNL     1       8.369   2.557  24.718  0.00  0.00    +0.098 A 
ENDBRANCH  27  29
BRANCH  23  38
ATOM     38  O   UNL     1       9.969  -2.827  23.676  0.00  0.00    -0.386 OA
ATOM     39  H   UNL     1      10.459  -3.454  24.240  0.00  0.00    +0.210 HD
ENDBRANCH  23  38
ENDBRANCH  21  22
ENDBRANCH   1  21
TORSDOF 12
ENDMDL
MODEL 4
REMARK VINA RESULT:      -6.7      3.128      8.378
REMARK  Name = 
REMARK  16 active torsions:
REMARK  status: ('A' for Active; 'I' for Inactive)
REMARK    1  A    between atoms: C_1  and  C_2
REMARK    2  A    between atoms: C_2  and  C_3
REMARK    3  A    between atoms: C_2  and  O_4
REMARK    4  A    between atoms: O_4  and  C_5
REMARK    5  A    between atoms: C_5  and  C_7
REMARK    6  A    between atoms: C_7  and  C_9
REMARK    7  A    between atoms: C_7  and  N_10
REMARK    8  A    between atoms: N_10  and  P_11
REMARK    9  A    between atoms: P_11  and  O_13
REMARK   10  A    between atoms: P_11  and  O_33
REMARK   11  A    between atoms: O_13  and  C_14
REMARK   12  A    between atoms: C_14  and  C_15
REMARK   13  A    between atoms: C_17  and  N_19
REMARK   14  A    between atoms: C_27  and  C_28
REMARK   15  A    between atoms: C_30  and  O_32
REMARK   16  A    between atoms: O_33  and  C_34
REMARK                            x       y       z     vdW  Elec       q    Type
REMARK                         _______ _______ _______ _____ _____    ______ ____
ROOT
ATOM      1  O   UNL     1       8.549  -2.168  25.985  0.00  0.00    -0.284 OA
ENDROOT
BRANCH   1   2
ATOM      2  P   UNL     1       8.062  -3.749  25.741  0.00  0.00    +0.462 P 
ATOM      3  O   UNL     1       9.074  -4.261  26.794  0.00  0.00    -0.228 OA
BRANCH   2   4
ATOM      4  N   UNL     1       6.745  -3.831  26.825  0.00  0.00    -0.199 NA
ATOM      5  H   UNL     1       7.177  -3.680  27.738  0.00  0.00    +0.135 HD
BRANCH   4   6
ATOM      6  C   UNL     1       5.970  -5.089  26.879  0.00  0.00    +0.171 C 
ATOM      7  C   UNL     1       6.293  -5.825  28.179  0.00  0.00    +0.036 C 
BRANCH   6   8
ATOM      8  C   UNL     1       4.456  -4.862  26.690  0.00  0.00    +0.325 C 
ATOM      9  O   UNL     1       3.716  -4.547  27.618  0.00  0.00    -0.249 OA
BRANCH   8  10
ATOM     10  O   UNL     1       4.065  -4.969  25.386  0.00  0.00    -0.461 OA
BRANCH  10  12
ATOM     11  C   UNL     1       3.434  -7.307  25.547  0.00  0.00    +0.052 C 
ATOM     12  C   UNL     1       4.196  -6.255  24.744  0.00  0.00    +0.170 C 
ATOM     13  C   UNL     1       3.590  -6.145  23.345  0.00  0.00    +0.052 C 
ENDBRANCH  10  12
ENDBRANCH   8  10
ENDBRANCH   6   8
ENDBRANCH   4   6
ENDBRANCH   2   4
BRANCH   2  14
ATOM     14  O   UNL     1       6.930  -3.176  24.565  0.00  0.00    -0.413 OA
BRANCH  14  15
ATOM     15  C   UNL     1       6.816  -3.945  23.429  0.00  0.00    +0.131 A 
ATOM     16  C   UNL     1       7.475  -5.170  23.412  0.00  0.00    +0.046 A 
ATOM     17  C   UNL     1       7.365  -6.001  22.295  0.00  0.00    +0.004 A 
ATOM     18  C   UNL     1       6.602  -5.602  21.197  0.00  0.00    +0.000 A 
ATOM     19  C   UNL     1       5.962  -4.364  21.206  0.00  0.00    +0.004 A 
ATOM     20  C   UNL     1       6.077  -3.530  22.318  0.00  0.00    +0.046 A 
ENDBRANCH  14  15
ENDBRANCH   2  14
ENDBRANCH   1   2
BRANCH   1  21
ATOM     21  C   UNL     1       9.010  -1.433  24.838  0.00  0.00    +0.206 C 
BRANCH  21  22
ATOM     22  C   UNL     1       8.330  -0.064  24.568  0.00  0.00    +0.179 C 
ATOM     23  C   UNL     1       7.517   0.014  23.275  0.00  0.00    +0.187 C 
ATOM     24  C   UNL     1       7.745   1.467  22.809  0.00  0.00    +0.182 C 
ATOM     25  F   UNL     1       6.539   2.071  22.646  0.00  0.00    -0.235 F 
ATOM     26  C   UNL     1       8.481   1.463  21.479  0.00  0.00    +0.055 C 
ATOM     27  C   UNL     1       8.563   2.096  23.962  0.00  0.00    +0.263 C 
ATOM     28  O   UNL     1       9.302   0.976  24.492  0.00  0.00    -0.345 OA
BRANCH  27  29
ATOM     29  N   UNL     1       9.508   3.174  23.671  0.00  0.00    -0.271 N 
ATOM     30  C   UNL     1       9.049   4.484  23.757  0.00  0.00    +0.331 A 
ATOM     31  O   UNL     1       7.890   4.798  24.003  0.00  0.00    -0.246 OA
ATOM     32  N   UNL     1       9.996   5.453  23.558  0.00  0.00    -0.275 N 
ATOM     33  H   UNL     1       9.689   6.408  23.616  0.00  0.00    +0.173 HD
ATOM     34  C   UNL     1      11.344   5.248  23.425  0.00  0.00    +0.254 A 
ATOM     35  O   UNL     1      12.155   6.157  23.355  0.00  0.00    -0.268 OA
ATOM     36  C   UNL     1      11.776   3.847  23.407  0.00  0.00    +0.088 A 
ATOM     37  C   UNL     1      10.854   2.894  23.527  0.00  0.00    +0.098 A 
ENDBRANCH  27  29
BRANCH  23  38
ATOM     38  O   UNL     1       6.133  -0.304  23.457  0.00  0.00    -0.386 OA
ATOM     39  H   UNL     1       5.690   0.506  23.774  0.00  0.00    +0.210 HD
ENDBRANCH  23  38
ENDBRANCH  21  22
ENDBRANCH   1  21
TORSDOF 12
ENDMDL
MODEL 5
REMARK VINA RESULT:      -6.6      3.415      8.207
REMARK  Name = 
REMARK  16 active torsions:
REMARK  status: ('A' for Active; 'I' for Inactive)
REMARK    1  A    between atoms: C_1  and  C_2
REMARK    2  A    between atoms: C_2  and  C_3
REMARK    3  A    between atoms: C_2  and  O_4
REMARK    4  A    between atoms: O_4  and  C_5
REMARK    5  A    between atoms: C_5  and  C_7
REMARK    6  A    between atoms: C_7  and  C_9
REMARK    7  A    between atoms: C_7  and  N_10
REMARK    8  A    between atoms: N_10  and  P_11
REMARK    9  A    between atoms: P_11  and  O_13
REMARK   10  A    between atoms: P_11  and  O_33
REMARK   11  A    between atoms: O_13  and  C_14
REMARK   12  A    between atoms: C_14  and  C_15
REMARK   13  A    between atoms: C_17  and  N_19
REMARK   14  A    between atoms: C_27  and  C_28
REMARK   15  A    between atoms: C_30  and  O_32
REMARK   16  A    between atoms: O_33  and  C_34
REMARK                            x       y       z     vdW  Elec       q    Type
REMARK                         _______ _______ _______ _____ _____    ______ ____
ROOT
ATOM      1  O   UNL     1       8.617  -0.513  21.852  0.00  0.00    -0.284 OA
ENDROOT
BRANCH   1   2
ATOM      2  P   UNL     1       8.670  -1.981  22.651  0.00  0.00    +0.462 P 
ATOM      3  O   UNL     1      10.169  -1.786  22.985  0.00  0.00    -0.228 OA
BRANCH   2   4
ATOM      4  N   UNL     1       8.160  -1.499  24.207  0.00  0.00    -0.199 NA
ATOM      5  H   UNL     1       8.205  -0.479  24.168  0.00  0.00    +0.135 HD
BRANCH   4   6
ATOM      6  C   UNL     1       8.952  -1.955  25.368  0.00  0.00    +0.171 C 
ATOM      7  C   UNL     1       8.653  -1.057  26.569  0.00  0.00    +0.036 C 
BRANCH   6   8
ATOM      8  C   UNL     1       8.739  -3.450  25.682  0.00  0.00    +0.325 C 
ATOM      9  O   UNL     1       9.425  -4.334  25.177  0.00  0.00    -0.249 OA
BRANCH   8  10
ATOM     10  O   UNL     1       7.777  -3.659  26.629  0.00  0.00    -0.461 OA
BRANCH  10  12
ATOM     11  C   UNL     1       6.339  -5.602  26.407  0.00  0.00    +0.052 C 
ATOM     12  C   UNL     1       6.476  -4.097  26.186  0.00  0.00    +0.170 C 
ATOM     13  C   UNL     1       5.424  -3.362  27.018  0.00  0.00    +0.052 C 
ENDBRANCH  10  12
ENDBRANCH   8  10
ENDBRANCH   6   8
ENDBRANCH   4   6
ENDBRANCH   2   4
BRANCH   2  14
ATOM     14  O   UNL     1       6.995  -2.200  22.277  0.00  0.00    -0.413 OA
BRANCH  14  15
ATOM     15  C   UNL     1       6.507  -3.473  22.464  0.00  0.00    +0.131 A 
ATOM     16  C   UNL     1       5.173  -3.604  22.835  0.00  0.00    +0.046 A 
ATOM     17  C   UNL     1       4.622  -4.875  23.007  0.00  0.00    +0.004 A 
ATOM     18  C   UNL     1       5.409  -6.012  22.813  0.00  0.00    +0.000 A 
ATOM     19  C   UNL     1       6.752  -5.879  22.466  0.00  0.00    +0.004 A 
ATOM     20  C   UNL     1       7.305  -4.609  22.301  0.00  0.00    +0.046 A 
ENDBRANCH  14  15
ENDBRANCH   2  14
ENDBRANCH   1   2
BRANCH   1  21
ATOM     21  C   UNL     1       9.806   0.295  21.872  0.00  0.00    +0.206 C 
BRANCH  21  22
ATOM     22  C   UNL     1       9.618   1.804  22.180  0.00  0.00    +0.179 C 
ATOM     23  C   UNL     1      10.026   2.236  23.589  0.00  0.00    +0.187 C 
ATOM     24  C   UNL     1       9.000   3.338  23.926  0.00  0.00    +0.182 C 
ATOM     25  F   UNL     1       9.668   4.473  24.265  0.00  0.00    -0.235 F 
ATOM     26  C   UNL     1       8.148   2.895  25.104  0.00  0.00    +0.055 C 
ATOM     27  C   UNL     1       8.197   3.502  22.614  0.00  0.00    +0.263 C 
ATOM     28  O   UNL     1       8.253   2.185  22.026  0.00  0.00    -0.345 OA
BRANCH  27  29
ATOM     29  N   UNL     1       6.797   3.920  22.674  0.00  0.00    -0.271 N 
ATOM     30  C   UNL     1       6.514   5.274  22.539  0.00  0.00    +0.331 A 
ATOM     31  O   UNL     1       7.363   6.153  22.433  0.00  0.00    -0.246 OA
ATOM     32  N   UNL     1       5.184   5.599  22.517  0.00  0.00    -0.275 N 
ATOM     33  H   UNL     1       4.955   6.572  22.420  0.00  0.00    +0.173 HD
ATOM     34  C   UNL     1       4.139   4.714  22.475  0.00  0.00    +0.254 A 
ATOM     35  O   UNL     1       2.975   5.060  22.350  0.00  0.00    -0.268 OA
ATOM     36  C   UNL     1       4.502   3.295  22.554  0.00  0.00    +0.088 A 
ATOM     37  C   UNL     1       5.790   2.972  22.649  0.00  0.00    +0.098 A 
ENDBRANCH  27  29
BRANCH  23  38
ATOM     38  O   UNL     1      11.382   2.690  23.672  0.00  0.00    -0.386 OA
ATOM     39  H   UNL     1      11.355   3.661  23.766  0.00  0.00    +0.210 HD
ENDBRANCH  23  38
ENDBRANCH  21  22
ENDBRANCH   1  21
TORSDOF 12
ENDMDL
MODEL 6
REMARK VINA RESULT:      -6.5      2.921      5.635
REMARK  Name = 
REMARK  16 active torsions:
REMARK  status: ('A' for Active; 'I' for Inactive)
REMARK    1  A    between atoms: C_1  and  C_2
REMARK    2  A    between atoms: C_2  and  C_3
REMARK    3  A    between atoms: C_2  and  O_4
REMARK    4  A    between atoms: O_4  and  C_5
REMARK    5  A    between atoms: C_5  and  C_7
REMARK    6  A    between atoms: C_7  and  C_9
REMARK    7  A    between atoms: C_7  and  N_10
REMARK    8  A    between atoms: N_10  and  P_11
REMARK    9  A    between atoms: P_11  and  O_13
REMARK   10  A    between atoms: P_11  and  O_33
REMARK   11  A    between atoms: O_13  and  C_14
REMARK   12  A    between atoms: C_14  and  C_15
REMARK   13  A    between atoms: C_17  and  N_19
REMARK   14  A    between atoms: C_27  and  C_28
REMARK   15  A    between atoms: C_30  and  O_32
REMARK   16  A    between atoms: O_33  and  C_34
REMARK                            x       y       z     vdW  Elec       q    Type
REMARK                         _______ _______ _______ _____ _____    ______ ____
ROOT
ATOM      1  O   UNL     1       7.494   1.342  23.649  0.00  0.00    -0.284 OA
ENDROOT
BRANCH   1   2
ATOM      2  P   UNL     1       8.211   2.445  22.617  0.00  0.00    +0.462 P 
ATOM      3  O   UNL     1       7.874   1.568  21.387  0.00  0.00    -0.228 OA
BRANCH   2   4
ATOM      4  N   UNL     1       6.900   3.503  22.345  0.00  0.00    -0.199 NA
ATOM      5  H   UNL     1       7.350   4.381  22.083  0.00  0.00    +0.135 HD
BRANCH   4   6
ATOM      6  C   UNL     1       5.980   3.771  23.471  0.00  0.00    +0.171 C 
ATOM      7  C   UNL     1       5.872   5.280  23.688  0.00  0.00    +0.036 C 
BRANCH   6   8
ATOM      8  C   UNL     1       4.602   3.102  23.284  0.00  0.00    +0.325 C 
ATOM      9  O   UNL     1       3.850   3.390  22.356  0.00  0.00    -0.249 OA
BRANCH   8  10
ATOM     10  O   UNL     1       4.363   2.119  24.202  0.00  0.00    -0.461 OA
BRANCH  10  12
ATOM     11  C   UNL     1       3.294   3.183  26.103  0.00  0.00    +0.052 C 
ATOM     12  C   UNL     1       4.530   2.443  25.598  0.00  0.00    +0.170 C 
ATOM     13  C   UNL     1       4.689   1.132  26.369  0.00  0.00    +0.052 C 
ENDBRANCH  10  12
ENDBRANCH   8  10
ENDBRANCH   6   8
ENDBRANCH   4   6
ENDBRANCH   2   4
BRANCH   2  14
ATOM     14  O   UNL     1       8.588   3.426  23.992  0.00  0.00    -0.413 OA
BRANCH  14  15
ATOM     15  C   UNL     1       9.740   4.172  23.889  0.00  0.00    +0.131 A 
ATOM     16  C   UNL     1       9.691   5.494  24.320  0.00  0.00    +0.046 A 
ATOM     17  C   UNL     1      10.841   6.284  24.265  0.00  0.00    +0.004 A 
ATOM     18  C   UNL     1      12.035   5.752  23.775  0.00  0.00    +0.000 A 
ATOM     19  C   UNL     1      12.075   4.435  23.321  0.00  0.00    +0.004 A 
ATOM     20  C   UNL     1      10.925   3.647  23.368  0.00  0.00    +0.046 A 
ENDBRANCH  14  15
ENDBRANCH   2  14
ENDBRANCH   1   2
BRANCH   1  21
ATOM     21  C   UNL     1       8.140   1.098  24.910  0.00  0.00    +0.206 C 
BRANCH  21  22
ATOM     22  C   UNL     1       8.947  -0.221  25.036  0.00  0.00    +0.179 C 
ATOM     23  C   UNL     1       9.314  -0.888  23.709  0.00  0.00    +0.187 C 
ATOM     24  C   UNL     1       9.232  -2.392  24.042  0.00  0.00    +0.182 C 
ATOM     25  F   UNL     1      10.418  -2.978  23.729  0.00  0.00    -0.235 F 
ATOM     26  C   UNL     1       8.129  -3.035  23.216  0.00  0.00    +0.055 C 
ATOM     27  C   UNL     1       8.951  -2.415  25.564  0.00  0.00    +0.263 C 
ATOM     28  O   UNL     1       8.217  -1.192  25.782  0.00  0.00    -0.345 OA
BRANCH  27  29
ATOM     29  N   UNL     1       8.186  -3.520  26.139  0.00  0.00    -0.271 N 
ATOM     30  C   UNL     1       8.839  -4.729  26.342  0.00  0.00    +0.331 A 
ATOM     31  O   UNL     1      10.000  -4.954  26.016  0.00  0.00    -0.246 OA
ATOM     32  N   UNL     1       8.100  -5.702  26.961  0.00  0.00    -0.275 N 
ATOM     33  H   UNL     1       8.551  -6.585  27.119  0.00  0.00    +0.173 HD
ATOM     34  C   UNL     1       6.854  -5.541  27.508  0.00  0.00    +0.254 A 
ATOM     35  O   UNL     1       6.284  -6.415  28.142  0.00  0.00    -0.268 OA
ATOM     36  C   UNL     1       6.241  -4.222  27.320  0.00  0.00    +0.088 A 
ATOM     37  C   UNL     1       6.923  -3.292  26.655  0.00  0.00    +0.098 A 
ENDBRANCH  27  29
BRANCH  23  38
ATOM     38  O   UNL     1      10.599  -0.495  23.213  0.00  0.00    -0.386 OA
ATOM     39  H   UNL     1      10.773   0.405  23.547  0.00  0.00    +0.210 HD
ENDBRANCH  23  38
ENDBRANCH  21  22
ENDBRANCH   1  21
TORSDOF 12
ENDMDL
MODEL 7
REMARK VINA RESULT:      -6.4      3.151      5.448
REMARK  Name = 
REMARK  16 active torsions:
REMARK  status: ('A' for Active; 'I' for Inactive)
REMARK    1  A    between atoms: C_1  and  C_2
REMARK    2  A    between atoms: C_2  and  C_3
REMARK    3  A    between atoms: C_2  and  O_4
REMARK    4  A    between atoms: O_4  and  C_5
REMARK    5  A    between atoms: C_5  and  C_7
REMARK    6  A    between atoms: C_7  and  C_9
REMARK    7  A    between atoms: C_7  and  N_10
REMARK    8  A    between atoms: N_10  and  P_11
REMARK    9  A    between atoms: P_11  and  O_13
REMARK   10  A    between atoms: P_11  and  O_33
REMARK   11  A    between atoms: O_13  and  C_14
REMARK   12  A    between atoms: C_14  and  C_15
REMARK   13  A    between atoms: C_17  and  N_19
REMARK   14  A    between atoms: C_27  and  C_28
REMARK   15  A    between atoms: C_30  and  O_32
REMARK   16  A    between atoms: O_33  and  C_34
REMARK                            x       y       z     vdW  Elec       q    Type
REMARK                         _______ _______ _______ _____ _____    ______ ____
ROOT
ATOM      1  O   UNL     1       7.074   1.874  23.756  0.00  0.00    -0.284 OA
ENDROOT
BRANCH   1   2
ATOM      2  P   UNL     1       7.765   2.851  22.588  0.00  0.00    +0.462 P 
ATOM      3  O   UNL     1       7.402   1.837  21.475  0.00  0.00    -0.228 OA
BRANCH   2   4
ATOM      4  N   UNL     1       6.444   3.870  22.225  0.00  0.00    -0.199 NA
ATOM      5  H   UNL     1       6.886   4.757  21.980  0.00  0.00    +0.135 HD
BRANCH   4   6
ATOM      6  C   UNL     1       5.453   4.125  23.292  0.00  0.00    +0.171 C 
ATOM      7  C   UNL     1       5.115   5.615  23.323  0.00  0.00    +0.036 C 
BRANCH   6   8
ATOM      8  C   UNL     1       4.197   3.238  23.160  0.00  0.00    +0.325 C 
ATOM      9  O   UNL     1       3.713   2.636  24.115  0.00  0.00    -0.249 OA
BRANCH   8  10
ATOM     10  O   UNL     1       3.656   3.272  21.907  0.00  0.00    -0.461 OA
BRANCH  10  12
ATOM     11  C   UNL     1       1.970   4.949  21.420  0.00  0.00    +0.052 C 
ATOM     12  C   UNL     1       2.234   3.492  21.790  0.00  0.00    +0.170 C 
ATOM     13  C   UNL     1       1.709   2.581  20.680  0.00  0.00    +0.052 C 
ENDBRANCH  10  12
ENDBRANCH   8  10
ENDBRANCH   6   8
ENDBRANCH   4   6
ENDBRANCH   2   4
BRANCH   2  14
ATOM     14  O   UNL     1       8.170   3.983  23.831  0.00  0.00    -0.413 OA
BRANCH  14  15
ATOM     15  C   UNL     1       9.462   4.457  23.803  0.00  0.00    +0.131 A 
ATOM     16  C   UNL     1       9.680   5.759  24.243  0.00  0.00    +0.046 A 
ATOM     17  C   UNL     1      10.977   6.275  24.262  0.00  0.00    +0.004 A 
ATOM     18  C   UNL     1      12.051   5.491  23.838  0.00  0.00    +0.000 A 
ATOM     19  C   UNL     1      11.827   4.196  23.375  0.00  0.00    +0.004 A 
ATOM     20  C   UNL     1      10.531   3.682  23.347  0.00  0.00    +0.046 A 
ENDBRANCH  14  15
ENDBRANCH   2  14
ENDBRANCH   1   2
BRANCH   1  21
ATOM     21  C   UNL     1       7.899   1.488  24.869  0.00  0.00    +0.206 C 
BRANCH  21  22
ATOM     22  C   UNL     1       8.487   0.053  24.836  0.00  0.00    +0.179 C 
ATOM     23  C   UNL     1       9.709  -0.130  23.935  0.00  0.00    +0.187 C 
ATOM     24  C   UNL     1       9.524  -1.558  23.383  0.00  0.00    +0.182 C 
ATOM     25  F   UNL     1      10.637  -2.286  23.663  0.00  0.00    -0.235 F 
ATOM     26  C   UNL     1       9.339  -1.498  21.875  0.00  0.00    +0.055 C 
ATOM     27  C   UNL     1       8.277  -2.081  24.134  0.00  0.00    +0.263 C 
ATOM     28  O   UNL     1       7.512  -0.883  24.380  0.00  0.00    -0.345 OA
BRANCH  27  29
ATOM     29  N   UNL     1       7.404  -3.060  23.487  0.00  0.00    -0.271 N 
ATOM     30  C   UNL     1       7.745  -4.403  23.585  0.00  0.00    +0.331 A 
ATOM     31  O   UNL     1       8.762  -4.823  24.126  0.00  0.00    -0.246 OA
ATOM     32  N   UNL     1       6.848  -5.281  23.035  0.00  0.00    -0.275 N 
ATOM     33  H   UNL     1       7.073  -6.258  23.094  0.00  0.00    +0.173 HD
ATOM     34  C   UNL     1       5.612  -4.962  22.537  0.00  0.00    +0.254 A 
ATOM     35  O   UNL     1       4.810  -5.799  22.155  0.00  0.00    -0.268 OA
ATOM     36  C   UNL     1       5.280  -3.534  22.520  0.00  0.00    +0.088 A 
ATOM     37  C   UNL     1       6.176  -2.666  22.986  0.00  0.00    +0.098 A 
ENDBRANCH  27  29
BRANCH  23  38
ATOM     38  O   UNL     1      10.953   0.046  24.625  0.00  0.00    -0.386 OA
ATOM     39  H   UNL     1      11.077   1.005  24.755  0.00  0.00    +0.210 HD
ENDBRANCH  23  38
ENDBRANCH  21  22
ENDBRANCH   1  21
TORSDOF 12
ENDMDL
MODEL 8
REMARK VINA RESULT:      -6.4      3.617      8.388
REMARK  Name = 
REMARK  16 active torsions:
REMARK  status: ('A' for Active; 'I' for Inactive)
REMARK    1  A    between atoms: C_1  and  C_2
REMARK    2  A    between atoms: C_2  and  C_3
REMARK    3  A    between atoms: C_2  and  O_4
REMARK    4  A    between atoms: O_4  and  C_5
REMARK    5  A    between atoms: C_5  and  C_7
REMARK    6  A    between atoms: C_7  and  C_9
REMARK    7  A    between atoms: C_7  and  N_10
REMARK    8  A    between atoms: N_10  and  P_11
REMARK    9  A    between atoms: P_11  and  O_13
REMARK   10  A    between atoms: P_11  and  O_33
REMARK   11  A    between atoms: O_13  and  C_14
REMARK   12  A    between atoms: C_14  and  C_15
REMARK   13  A    between atoms: C_17  and  N_19
REMARK   14  A    between atoms: C_27  and  C_28
REMARK   15  A    between atoms: C_30  and  O_32
REMARK   16  A    between atoms: O_33  and  C_34
REMARK                            x       y       z     vdW  Elec       q    Type
REMARK                         _______ _______ _______ _____ _____    ______ ____
ROOT
ATOM      1  O   UNL     1       7.176   0.971  26.099  0.00  0.00    -0.284 OA
ENDROOT
BRANCH   1   2
ATOM      2  P   UNL     1       7.112  -0.384  25.122  0.00  0.00    +0.462 P 
ATOM      3  O   UNL     1       6.414   0.417  23.996  0.00  0.00    -0.228 OA
BRANCH   2   4
ATOM      4  N   UNL     1       8.643  -0.291  24.374  0.00  0.00    -0.199 NA
ATOM      5  H   UNL     1       8.869   0.704  24.413  0.00  0.00    +0.135 HD
BRANCH   4   6
ATOM      6  C   UNL     1       8.755  -0.737  22.969  0.00  0.00    +0.171 C 
ATOM      7  C   UNL     1       9.691   0.205  22.212  0.00  0.00    +0.036 C 
BRANCH   6   8
ATOM      8  C   UNL     1       9.183  -2.215  22.848  0.00  0.00    +0.325 C 
ATOM      9  O   UNL     1      10.186  -2.658  23.400  0.00  0.00    -0.249 OA
BRANCH   8  10
ATOM     10  O   UNL     1       8.288  -2.967  22.141  0.00  0.00    -0.461 OA
BRANCH  10  12
ATOM     11  C   UNL     1       5.870  -3.022  22.343  0.00  0.00    +0.052 C 
ATOM     12  C   UNL     1       7.195  -3.573  22.863  0.00  0.00    +0.170 C 
ATOM     13  C   UNL     1       7.250  -5.082  22.617  0.00  0.00    +0.052 C 
ENDBRANCH  10  12
ENDBRANCH   8  10
ENDBRANCH   6   8
ENDBRANCH   4   6
ENDBRANCH   2   4
BRANCH   2  14
ATOM     14  O   UNL     1       7.891  -1.279  26.381  0.00  0.00    -0.413 OA
BRANCH  14  15
ATOM     15  C   UNL     1       7.639  -2.632  26.388  0.00  0.00    +0.131 A 
ATOM     16  C   UNL     1       6.309  -3.040  26.402  0.00  0.00    +0.046 A 
ATOM     17  C   UNL     1       6.001  -4.402  26.380  0.00  0.00    +0.004 A 
ATOM     18  C   UNL     1       7.023  -5.352  26.349  0.00  0.00    +0.000 A 
ATOM     19  C   UNL     1       8.355  -4.942  26.360  0.00  0.00    +0.004 A 
ATOM     20  C   UNL     1       8.664  -3.582  26.390  0.00  0.00    +0.046 A 
ENDBRANCH  14  15
ENDBRANCH   2  14
ENDBRANCH   1   2
BRANCH   1  21
ATOM     21  C   UNL     1       6.133   1.949  25.945  0.00  0.00    +0.206 C 
BRANCH  21  22
ATOM     22  C   UNL     1       6.573   3.380  25.540  0.00  0.00    +0.179 C 
ATOM     23  C   UNL     1       5.831   3.974  24.341  0.00  0.00    +0.187 C 
ATOM     24  C   UNL     1       6.920   4.808  23.636  0.00  0.00    +0.182 C 
ATOM     25  F   UNL     1       6.481   6.088  23.507  0.00  0.00    -0.235 F 
ATOM     26  C   UNL     1       7.183   4.234  22.253  0.00  0.00    +0.055 C 
ATOM     27  C   UNL     1       8.136   4.700  24.587  0.00  0.00    +0.263 C 
ATOM     28  O   UNL     1       7.958   3.407  25.204  0.00  0.00    -0.345 OA
BRANCH  27  29
ATOM     29  N   UNL     1       9.489   4.764  24.036  0.00  0.00    -0.271 N 
ATOM     30  C   UNL     1      10.114   6.005  23.987  0.00  0.00    +0.331 A 
ATOM     31  O   UNL     1       9.586   7.061  24.316  0.00  0.00    -0.246 OA
ATOM     32  N   UNL     1      11.410   5.995  23.542  0.00  0.00    -0.275 N 
ATOM     33  H   UNL     1      11.882   6.880  23.497  0.00  0.00    +0.173 HD
ATOM     34  C   UNL     1      12.164   4.881  23.285  0.00  0.00    +0.254 A 
ATOM     35  O   UNL     1      13.348   4.929  22.992  0.00  0.00    -0.268 OA
ATOM     36  C   UNL     1      11.470   3.596  23.419  0.00  0.00    +0.088 A 
ATOM     37  C   UNL     1      10.188   3.599  23.780  0.00  0.00    +0.098 A 
ENDBRANCH  27  29
BRANCH  23  38
ATOM     38  O   UNL     1       4.686   4.751  24.712  0.00  0.00    -0.386 OA
ATOM     39  H   UNL     1       4.326   5.142  23.894  0.00  0.00    +0.210 HD
ENDBRANCH  23  38
ENDBRANCH  21  22
ENDBRANCH   1  21
TORSDOF 12
ENDMDL
MODEL 9
REMARK VINA RESULT:      -6.4      2.243      4.588
REMARK  Name = 
REMARK  16 active torsions:
REMARK  status: ('A' for Active; 'I' for Inactive)
REMARK    1  A    between atoms: C_1  and  C_2
REMARK    2  A    between atoms: C_2  and  C_3
REMARK    3  A    between atoms: C_2  and  O_4
REMARK    4  A    between atoms: O_4  and  C_5
REMARK    5  A    between atoms: C_5  and  C_7
REMARK    6  A    between atoms: C_7  and  C_9
REMARK    7  A    between atoms: C_7  and  N_10
REMARK    8  A    between atoms: N_10  and  P_11
REMARK    9  A    between atoms: P_11  and  O_13
REMARK   10  A    between atoms: P_11  and  O_33
REMARK   11  A    between atoms: O_13  and  C_14
REMARK   12  A    between atoms: C_14  and  C_15
REMARK   13  A    between atoms: C_17  and  N_19
REMARK   14  A    between atoms: C_27  and  C_28
REMARK   15  A    between atoms: C_30  and  O_32
REMARK   16  A    between atoms: O_33  and  C_34
REMARK                            x       y       z     vdW  Elec       q    Type
REMARK                         _______ _______ _______ _____ _____    ______ ____
ROOT
ATOM      1  O   UNL     1       9.133  -2.438  24.185  0.00  0.00    -0.284 OA
ENDROOT
BRANCH   1   2
ATOM      2  P   UNL     1       8.976  -0.923  24.875  0.00  0.00    +0.462 P 
ATOM      3  O   UNL     1      10.396  -0.522  24.406  0.00  0.00    -0.228 OA
BRANCH   2   4
ATOM      4  N   UNL     1       8.212  -0.086  23.598  0.00  0.00    -0.199 NA
ATOM      5  H   UNL     1       8.155  -0.784  22.855  0.00  0.00    +0.135 HD
BRANCH   4   6
ATOM      6  C   UNL     1       8.885   1.114  23.057  0.00  0.00    +0.171 C 
ATOM      7  C   UNL     1       8.946   1.017  21.533  0.00  0.00    +0.036 C 
BRANCH   6   8
ATOM      8  C   UNL     1       8.233   2.428  23.538  0.00  0.00    +0.325 C 
ATOM      9  O   UNL     1       7.302   2.447  24.338  0.00  0.00    -0.249 OA
BRANCH   8  10
ATOM     10  O   UNL     1       8.856   3.538  23.043  0.00  0.00    -0.461 OA
BRANCH  10  12
ATOM     11  C   UNL     1      11.250   3.822  23.325  0.00  0.00    +0.052 C 
ATOM     12  C   UNL     1       9.864   4.168  23.862  0.00  0.00    +0.170 C 
ATOM     13  C   UNL     1       9.652   5.681  23.787  0.00  0.00    +0.052 C 
ENDBRANCH  10  12
ENDBRANCH   8  10
ENDBRANCH   6   8
ENDBRANCH   4   6
ENDBRANCH   2   4
BRANCH   2  14
ATOM     14  O   UNL     1       7.389  -1.370  25.398  0.00  0.00    -0.413 OA
BRANCH  14  15
ATOM     15  C   UNL     1       6.764  -0.470  26.231  0.00  0.00    +0.131 A 
ATOM     16  C   UNL     1       5.437  -0.152  25.957  0.00  0.00    +0.046 A 
ATOM     17  C   UNL     1       4.750   0.733  26.790  0.00  0.00    +0.004 A 
ATOM     18  C   UNL     1       5.392   1.301  27.892  0.00  0.00    +0.000 A 
ATOM     19  C   UNL     1       6.727   1.000  28.151  0.00  0.00    +0.004 A 
ATOM     20  C   UNL     1       7.417   0.122  27.315  0.00  0.00    +0.046 A 
ENDBRANCH  14  15
ENDBRANCH   2  14
ENDBRANCH   1   2
BRANCH   1  21
ATOM     21  C   UNL     1       8.410  -2.689  22.967  0.00  0.00    +0.206 C 
BRANCH  21  22
ATOM     22  C   UNL     1       7.356  -3.826  23.005  0.00  0.00    +0.179 C 
ATOM     23  C   UNL     1       5.938  -3.412  22.608  0.00  0.00    +0.187 C 
ATOM     24  C   UNL     1       5.052  -4.283  23.522  0.00  0.00    +0.182 C 
ATOM     25  F   UNL     1       4.186  -4.991  22.750  0.00  0.00    -0.235 F 
ATOM     26  C   UNL     1       4.260  -3.388  24.462  0.00  0.00    +0.055 C 
ATOM     27  C   UNL     1       6.066  -5.195  24.252  0.00  0.00    +0.263 C 
ATOM     28  O   UNL     1       7.257  -4.381  24.314  0.00  0.00    -0.345 OA
BRANCH  27  29
ATOM     29  N   UNL     1       5.765  -5.673  25.601  0.00  0.00    -0.271 N 
ATOM     30  C   UNL     1       4.932  -6.778  25.730  0.00  0.00    +0.331 A 
ATOM     31  O   UNL     1       4.383  -7.346  24.792  0.00  0.00    -0.246 OA
ATOM     32  N   UNL     1       4.752  -7.234  27.009  0.00  0.00    -0.275 N 
ATOM     33  H   UNL     1       4.155  -8.033  27.127  0.00  0.00    +0.173 HD
ATOM     34  C   UNL     1       5.417  -6.793  28.122  0.00  0.00    +0.254 A 
ATOM     35  O   UNL     1       5.294  -7.308  29.222  0.00  0.00    -0.268 OA
ATOM     36  C   UNL     1       6.333  -5.666  27.913  0.00  0.00    +0.088 A 
ATOM     37  C   UNL     1       6.459  -5.168  26.685  0.00  0.00    +0.098 A 
ENDBRANCH  27  29
BRANCH  23  38
ATOM     38  O   UNL     1       5.661  -3.602  21.215  0.00  0.00    -0.386 OA
ATOM     39  H   UNL     1       5.800  -4.548  21.021  0.00  0.00    +0.210 HD
ENDBRANCH  23  38
ENDBRANCH  21  22
ENDBRANCH   1  21
TORSDOF 12
ENDMDL
