MODEL 1
REMARK VINA RESULT:      -6.5      0.000      0.000
REMARK  Name = 
REMARK  13 active torsions:
REMARK  status: ('A' for Active; 'I' for Inactive)
REMARK    1  A    between atoms: CA_2  and  N_3
REMARK    2  A    between atoms: CA_2  and  C_4
REMARK    3  A    between atoms: CA_2  and  C_30
REMARK    4  A    between atoms: C_4  and  C_5
REMARK    5  A    between atoms: C_6  and  O_7
REMARK    6  A    between atoms: C_9  and  O_10
REMARK    7  A    between atoms: C_11  and  N_12
REMARK    8  A    between atoms: N_12  and  C_13
REMARK    9  A    between atoms: C_13  and  C_14
REMARK   10  A    between atoms: C_14  and  O_15
REMARK   11  A    between atoms: O_15  and  C_16
REMARK   12  A    between atoms: C_26  and  C_27
REMARK   13  A    between atoms: C_30  and  O_31
REMARK                            x       y       z     vdW  Elec       q    Type
REMARK                         _______ _______ _______ _____ _____    ______ ____
ROOT
ATOM      1  C   UNL     1       6.829   1.741  23.951  0.00  0.00    -0.002 A 
ATOM      2  C   UNL     1       6.217   0.472  23.811  0.00  0.00    +0.034 A 
ATOM      3  C   UNL     1       6.226  -0.485  24.836  0.00  0.00    +0.074 A 
ATOM      4  C   UNL     1       6.782  -0.108  26.071  0.00  0.00    +0.141 A 
ATOM      5  C   UNL     1       7.359   1.145  26.258  0.00  0.00    +0.093 A 
ATOM      6  C   UNL     1       7.413   2.042  25.192  0.00  0.00    +0.124 A 
ENDROOT
BRANCH   3   7
ATOM      7  N   UNL     1       5.605  -1.755  24.720  0.00  0.00    -0.312 N 
ATOM      8  H   UNL     1       5.055  -1.948  25.560  0.00  0.00    +0.152 HD
BRANCH   7   9
ATOM      9  C   UNL     1       6.096  -2.890  24.076  0.00  0.00    +0.049 C 
ATOM     10  C   UNL     1       5.436  -3.352  22.988  0.00  0.00    +0.064 C 
BRANCH  10  11
ATOM     11  C   UNL     1       5.753  -4.592  22.260  0.00  0.00    +0.252 C 
ATOM     12  O   UNL     1       5.840  -4.617  21.038  0.00  0.00    -0.296 OA
ENDBRANCH  10  11
BRANCH   9  13
ATOM     13  C   UNL     1       7.404  -3.520  24.578  0.00  0.00    +0.279 C 
BRANCH  13  14
ATOM     14  O   UNL     1       8.407  -3.543  23.556  0.00  0.00    -0.486 OA
BRANCH  14  15
ATOM     15  C   UNL     1       8.990  -2.344  23.217  0.00  0.00    +0.122 A 
ATOM     16  C   UNL     1       9.683  -1.481  24.073  0.00  0.00    +0.054 A 
ATOM     17  C   UNL     1      10.070  -0.186  23.654  0.00  0.00    -0.014 A 
ATOM     18  C   UNL     1       9.758   0.235  22.342  0.00  0.00    -0.018 A 
ATOM     19  C   UNL     1      10.005   1.566  21.960  0.00  0.00    +0.008 A 
ATOM     20  C   UNL     1      10.595   2.468  22.846  0.00  0.00    +0.001 A 
ATOM     21  C   UNL     1      10.987   2.035  24.108  0.00  0.00    +0.001 A 
ATOM     22  C   UNL     1       9.196  -0.689  21.451  0.00  0.00    +0.012 A 
ATOM     23  C   UNL     1      10.726   0.721  24.509  0.00  0.00    +0.008 A 
ATOM     24  C   UNL     1       8.831  -1.968  21.882  0.00  0.00    +0.046 A 
ENDBRANCH  14  15
ENDBRANCH  13  14
ENDBRANCH   9  13
ENDBRANCH   7   9
ENDBRANCH   3   7
BRANCH   4  25
ATOM     25  O   UNL     1       6.766  -1.015  27.101  0.00  0.00    -0.505 OA
ATOM     26  H   UNL     1       6.196  -0.663  27.805  0.00  0.00    +0.292 HD
ENDBRANCH   4  25
BRANCH   6  27
ATOM     27  O   UNL     1       8.079   3.210  25.446  0.00  0.00    -0.506 OA
ATOM     28  H   UNL     1       7.511   3.806  25.956  0.00  0.00    +0.292 HD
ENDBRANCH   6  27
BRANCH   1  29
ATOM     29  C   UNL     1       6.923   2.709  22.782  0.00  0.00    +0.068 C 
BRANCH  29  30
ATOM     30  CA  UNL     1       6.410   4.151  22.976  0.00  0.00    +0.165 C 
BRANCH  30  31
ATOM     31  N   UNL     1       5.214   4.384  22.128  0.00  0.00    -0.318 NA
ATOM     32  H1  UNL     1       5.108   3.681  21.399  0.00  0.00    +0.119 HD
ATOM     33  H2  UNL     1       4.359   4.583  22.637  0.00  0.00    +0.119 HD
ENDBRANCH  30  31
BRANCH  30  34
ATOM     34  C   UNL     1       7.534   5.161  22.677  0.00  0.00    +0.322 C 
ATOM     35  OXT UNL     1       8.482   5.378  23.415  0.00  0.00    -0.249 OA
BRANCH  34  36
ATOM     36  O   UNL     1       7.393   5.808  21.495  0.00  0.00    -0.480 OA
ATOM     37  H   UNL     1       8.169   5.669  20.926  0.00  0.00    +0.295 HD
ENDBRANCH  34  36
ENDBRANCH  30  34
ENDBRANCH  29  30
ENDBRANCH   1  29
TORSDOF 13
ENDMDL
MODEL 2
REMARK VINA RESULT:      -6.4      2.452      4.492
REMARK  Name = 
REMARK  13 active torsions:
REMARK  status: ('A' for Active; 'I' for Inactive)
REMARK    1  A    between atoms: CA_2  and  N_3
REMARK    2  A    between atoms: CA_2  and  C_4
REMARK    3  A    between atoms: CA_2  and  C_30
REMARK    4  A    between atoms: C_4  and  C_5
REMARK    5  A    between atoms: C_6  and  O_7
REMARK    6  A    between atoms: C_9  and  O_10
REMARK    7  A    between atoms: C_11  and  N_12
REMARK    8  A    between atoms: N_12  and  C_13
REMARK    9  A    between atoms: C_13  and  C_14
REMARK   10  A    between atoms: C_14  and  O_15
REMARK   11  A    between atoms: O_15  and  C_16
REMARK   12  A    between atoms: C_26  and  C_27
REMARK   13  A    between atoms: C_30  and  O_31
REMARK                            x       y       z     vdW  Elec       q    Type
REMARK                         _______ _______ _______ _____ _____    ______ ____
ROOT
ATOM      1  C   UNL     1       9.442  -1.446  24.444  0.00  0.00    -0.002 A 
ATOM      2  C   UNL     1       9.112  -2.744  23.984  0.00  0.00    +0.034 A 
ATOM      3  C   UNL     1       8.637  -3.747  24.842  0.00  0.00    +0.074 A 
ATOM      4  C   UNL     1       8.393  -3.394  26.181  0.00  0.00    +0.141 A 
ATOM      5  C   UNL     1       8.670  -2.116  26.660  0.00  0.00    +0.093 A 
ATOM      6  C   UNL     1       9.225  -1.167  25.803  0.00  0.00    +0.124 A 
ENDROOT
BRANCH   3   7
ATOM      7  N   UNL     1       8.286  -5.047  24.399  0.00  0.00    -0.312 N 
ATOM      8  H   UNL     1       9.133  -5.598  24.240  0.00  0.00    +0.152 HD
BRANCH   7   9
ATOM      9  C   UNL     1       7.200  -5.416  23.607  0.00  0.00    +0.049 C 
ATOM     10  C   UNL     1       7.410  -5.655  22.291  0.00  0.00    +0.064 C 
BRANCH  10  11
ATOM     11  C   UNL     1       6.362  -5.945  21.298  0.00  0.00    +0.252 C 
ATOM     12  O   UNL     1       5.876  -5.063  20.599  0.00  0.00    -0.296 OA
ENDBRANCH  10  11
BRANCH   9  13
ATOM     13  C   UNL     1       5.829  -5.612  24.273  0.00  0.00    +0.279 C 
BRANCH  13  14
ATOM     14  O   UNL     1       4.900  -4.596  23.881  0.00  0.00    -0.486 OA
BRANCH  14  15
ATOM     15  C   UNL     1       4.947  -3.400  24.561  0.00  0.00    +0.122 A 
ATOM     16  C   UNL     1       5.416  -2.178  24.066  0.00  0.00    +0.054 A 
ATOM     17  C   UNL     1       5.596  -1.063  24.918  0.00  0.00    -0.014 A 
ATOM     18  C   UNL     1       5.285  -1.187  26.290  0.00  0.00    -0.018 A 
ATOM     19  C   UNL     1       5.596  -0.138  27.174  0.00  0.00    +0.008 A 
ATOM     20  C   UNL     1       6.169   1.046  26.707  0.00  0.00    +0.001 A 
ATOM     21  C   UNL     1       6.394   1.209  25.344  0.00  0.00    +0.001 A 
ATOM     22  C   UNL     1       4.680  -2.368  26.742  0.00  0.00    +0.012 A 
ATOM     23  C   UNL     1       6.112   0.165  24.458  0.00  0.00    +0.008 A 
ATOM     24  C   UNL     1       4.500  -3.455  25.881  0.00  0.00    +0.046 A 
ENDBRANCH  14  15
ENDBRANCH  13  14
ENDBRANCH   9  13
ENDBRANCH   7   9
ENDBRANCH   3   7
BRANCH   4  25
ATOM     25  O   UNL     1       7.890  -4.348  27.029  0.00  0.00    -0.505 OA
ATOM     26  H   UNL     1       6.951  -4.480  26.812  0.00  0.00    +0.292 HD
ENDBRANCH   4  25
BRANCH   6  27
ATOM     27  O   UNL     1       9.547   0.028  26.385  0.00  0.00    -0.506 OA
ATOM     28  H   UNL     1       8.761   0.593  26.428  0.00  0.00    +0.292 HD
ENDBRANCH   6  27
BRANCH   1  29
ATOM     29  C   UNL     1      10.083  -0.419  23.522  0.00  0.00    +0.068 C 
BRANCH  29  30
ATOM     30  CA  UNL     1       9.213   0.229  22.424  0.00  0.00    +0.165 C 
BRANCH  30  31
ATOM     31  N   UNL     1       9.529  -0.372  21.105  0.00  0.00    -0.318 NA
ATOM     32  H1  UNL     1       8.740  -0.876  20.705  0.00  0.00    +0.119 HD
ATOM     33  H2  UNL     1       9.997   0.248  20.452  0.00  0.00    +0.119 HD
ENDBRANCH  30  31
BRANCH  30  34
ATOM     34  C   UNL     1       9.408   1.757  22.424  0.00  0.00    +0.322 C 
ATOM     35  OXT UNL     1       8.858   2.524  23.198  0.00  0.00    -0.249 OA
BRANCH  34  36
ATOM     36  O   UNL     1      10.265   2.202  21.473  0.00  0.00    -0.480 OA
ATOM     37  H   UNL     1      10.963   1.548  21.300  0.00  0.00    +0.295 HD
ENDBRANCH  34  36
ENDBRANCH  30  34
ENDBRANCH  29  30
ENDBRANCH   1  29
TORSDOF 13
ENDMDL
MODEL 3
REMARK VINA RESULT:      -6.3      1.626      2.208
REMARK  Name = 
REMARK  13 active torsions:
REMARK  status: ('A' for Active; 'I' for Inactive)
REMARK    1  A    between atoms: CA_2  and  N_3
REMARK    2  A    between atoms: CA_2  and  C_4
REMARK    3  A    between atoms: CA_2  and  C_30
REMARK    4  A    between atoms: C_4  and  C_5
REMARK    5  A    between atoms: C_6  and  O_7
REMARK    6  A    between atoms: C_9  and  O_10
REMARK    7  A    between atoms: C_11  and  N_12
REMARK    8  A    between atoms: N_12  and  C_13
REMARK    9  A    between atoms: C_13  and  C_14
REMARK   10  A    between atoms: C_14  and  O_15
REMARK   11  A    between atoms: O_15  and  C_16
REMARK   12  A    between atoms: C_26  and  C_27
REMARK   13  A    between atoms: C_30  and  O_31
REMARK                            x       y       z     vdW  Elec       q    Type
REMARK                         _______ _______ _______ _____ _____    ______ ____
ROOT
ATOM      1  C   UNL     1       6.664   1.492  23.829  0.00  0.00    -0.002 A 
ATOM      2  C   UNL     1       6.259   0.173  24.146  0.00  0.00    +0.034 A 
ATOM      3  C   UNL     1       6.573  -0.437  25.370  0.00  0.00    +0.074 A 
ATOM      4  C   UNL     1       7.228   0.347  26.336  0.00  0.00    +0.141 A 
ATOM      5  C   UNL     1       7.609   1.661  26.072  0.00  0.00    +0.093 A 
ATOM      6  C   UNL     1       7.360   2.209  24.815  0.00  0.00    +0.124 A 
ENDROOT
BRANCH   3   7
ATOM      7  N   UNL     1       6.163  -1.750  25.713  0.00  0.00    -0.312 N 
ATOM      8  H   UNL     1       5.540  -1.717  26.523  0.00  0.00    +0.152 HD
BRANCH   7   9
ATOM      9  C   UNL     1       6.893  -2.931  25.593  0.00  0.00    +0.049 C 
ATOM     10  C   UNL     1       7.235  -3.598  26.721  0.00  0.00    +0.064 C 
BRANCH  10  11
ATOM     11  C   UNL     1       8.093  -4.793  26.781  0.00  0.00    +0.252 C 
ATOM     12  O   UNL     1       7.629  -5.923  26.684  0.00  0.00    -0.296 OA
ENDBRANCH  10  11
BRANCH   9  13
ATOM     13  C   UNL     1       7.211  -3.468  24.190  0.00  0.00    +0.279 C 
BRANCH  13  14
ATOM     14  O   UNL     1       8.615  -3.425  23.912  0.00  0.00    -0.486 OA
BRANCH  14  15
ATOM     15  C   UNL     1       9.132  -2.237  23.448  0.00  0.00    +0.122 A 
ATOM     16  C   UNL     1       9.851  -1.294  24.190  0.00  0.00    +0.054 A 
ATOM     17  C   UNL     1      10.163  -0.022  23.653  0.00  0.00    -0.014 A 
ATOM     18  C   UNL     1       9.749   0.292  22.340  0.00  0.00    -0.018 A 
ATOM     19  C   UNL     1       9.923   1.598  21.847  0.00  0.00    +0.008 A 
ATOM     20  C   UNL     1      10.540   2.579  22.623  0.00  0.00    +0.001 A 
ATOM     21  C   UNL     1      11.031   2.253  23.882  0.00  0.00    +0.001 A 
ATOM     22  C   UNL     1       9.160  -0.712  21.559  0.00  0.00    +0.012 A 
ATOM     23  C   UNL     1      10.844   0.964  24.393  0.00  0.00    +0.008 A 
ATOM     24  C   UNL     1       8.870  -1.966  22.104  0.00  0.00    +0.046 A 
ENDBRANCH  14  15
ENDBRANCH  13  14
ENDBRANCH   9  13
ENDBRANCH   7   9
ENDBRANCH   3   7
BRANCH   4  25
ATOM     25  O   UNL     1       7.510  -0.216  27.555  0.00  0.00    -0.505 OA
ATOM     26  H   UNL     1       6.854   0.106  28.196  0.00  0.00    +0.292 HD
ENDBRANCH   4  25
BRANCH   6  27
ATOM     27  O   UNL     1       7.851   3.471  24.621  0.00  0.00    -0.506 OA
ATOM     28  H   UNL     1       7.190   4.124  24.894  0.00  0.00    +0.292 HD
ENDBRANCH   6  27
BRANCH   1  29
ATOM     29  C   UNL     1       6.429   2.081  22.446  0.00  0.00    +0.068 C 
BRANCH  29  30
ATOM     30  CA  UNL     1       5.556   3.349  22.325  0.00  0.00    +0.165 C 
BRANCH  30  31
ATOM     31  N   UNL     1       6.419   4.552  22.218  0.00  0.00    -0.318 NA
ATOM     32  H1  UNL     1       7.216   4.409  21.601  0.00  0.00    +0.119 HD
ATOM     33  H2  UNL     1       5.922   5.422  22.058  0.00  0.00    +0.119 HD
ENDBRANCH  30  31
BRANCH  30  34
ATOM     34  C   UNL     1       4.583   3.440  23.515  0.00  0.00    +0.322 C 
ATOM     35  OXT UNL     1       4.722   4.193  24.466  0.00  0.00    -0.249 OA
BRANCH  34  36
ATOM     36  O   UNL     1       3.523   2.600  23.426  0.00  0.00    -0.480 OA
ATOM     37  H   UNL     1       2.789   3.016  22.943  0.00  0.00    +0.295 HD
ENDBRANCH  34  36
ENDBRANCH  30  34
ENDBRANCH  29  30
ENDBRANCH   1  29
TORSDOF 13
ENDMDL
MODEL 4
REMARK VINA RESULT:      -6.3      2.914      7.226
REMARK  Name = 
REMARK  13 active torsions:
REMARK  status: ('A' for Active; 'I' for Inactive)
REMARK    1  A    between atoms: CA_2  and  N_3
REMARK    2  A    between atoms: CA_2  and  C_4
REMARK    3  A    between atoms: CA_2  and  C_30
REMARK    4  A    between atoms: C_4  and  C_5
REMARK    5  A    between atoms: C_6  and  O_7
REMARK    6  A    between atoms: C_9  and  O_10
REMARK    7  A    between atoms: C_11  and  N_12
REMARK    8  A    between atoms: N_12  and  C_13
REMARK    9  A    between atoms: C_13  and  C_14
REMARK   10  A    between atoms: C_14  and  O_15
REMARK   11  A    between atoms: O_15  and  C_16
REMARK   12  A    between atoms: C_26  and  C_27
REMARK   13  A    between atoms: C_30  and  O_31
REMARK                            x       y       z     vdW  Elec       q    Type
REMARK                         _______ _______ _______ _____ _____    ______ ____
ROOT
ATOM      1  C   UNL     1       5.380  -5.402  25.043  0.00  0.00    -0.002 A 
ATOM      2  C   UNL     1       5.809  -4.058  24.916  0.00  0.00    +0.034 A 
ATOM      3  C   UNL     1       5.908  -3.414  23.674  0.00  0.00    +0.074 A 
ATOM      4  C   UNL     1       5.465  -4.118  22.541  0.00  0.00    +0.141 A 
ATOM      5  C   UNL     1       5.002  -5.429  22.632  0.00  0.00    +0.093 A 
ATOM      6  C   UNL     1       4.998  -6.071  23.869  0.00  0.00    +0.124 A 
ENDROOT
BRANCH   3   7
ATOM      7  N   UNL     1       6.320  -2.065  23.528  0.00  0.00    -0.312 N 
ATOM      8  H   UNL     1       5.654  -1.563  22.936  0.00  0.00    +0.152 HD
BRANCH   7   9
ATOM      9  C   UNL     1       7.622  -1.570  23.482  0.00  0.00    +0.049 C 
ATOM     10  C   UNL     1       8.356  -1.783  22.364  0.00  0.00    +0.064 C 
BRANCH  10  11
ATOM     11  C   UNL     1       9.774  -1.426  22.192  0.00  0.00    +0.252 C 
ATOM     12  O   UNL     1      10.674  -2.160  22.583  0.00  0.00    -0.296 OA
ENDBRANCH  10  11
BRANCH   9  13
ATOM     13  C   UNL     1       8.142  -0.740  24.664  0.00  0.00    +0.279 C 
BRANCH  13  14
ATOM     14  O   UNL     1       7.390   0.467  24.836  0.00  0.00    -0.486 OA
BRANCH  14  15
ATOM     15  C   UNL     1       7.995   1.647  24.470  0.00  0.00    +0.122 A 
ATOM     16  C   UNL     1       9.292   1.797  23.964  0.00  0.00    +0.054 A 
ATOM     17  C   UNL     1       9.873   3.078  23.807  0.00  0.00    -0.014 A 
ATOM     18  C   UNL     1       9.122   4.222  24.156  0.00  0.00    -0.018 A 
ATOM     19  C   UNL     1       9.735   5.489  24.144  0.00  0.00    +0.008 A 
ATOM     20  C   UNL     1      11.065   5.636  23.747  0.00  0.00    +0.001 A 
ATOM     21  C   UNL     1      11.781   4.525  23.316  0.00  0.00    +0.001 A 
ATOM     22  C   UNL     1       7.779   4.064  24.521  0.00  0.00    +0.012 A 
ATOM     23  C   UNL     1      11.191   3.258  23.345  0.00  0.00    +0.008 A 
ATOM     24  C   UNL     1       7.219   2.791  24.660  0.00  0.00    +0.046 A 
ENDBRANCH  14  15
ENDBRANCH  13  14
ENDBRANCH   9  13
ENDBRANCH   7   9
ENDBRANCH   3   7
BRANCH   4  25
ATOM     25  O   UNL     1       5.515  -3.494  21.320  0.00  0.00    -0.505 OA
ATOM     26  H   UNL     1       6.427  -3.186  21.176  0.00  0.00    +0.292 HD
ENDBRANCH   4  25
BRANCH   6  27
ATOM     27  O   UNL     1       4.612  -7.384  23.844  0.00  0.00    -0.506 OA
ATOM     28  H   UNL     1       4.298  -7.649  24.720  0.00  0.00    +0.292 HD
ENDBRANCH   6  27
BRANCH   1  29
ATOM     29  C   UNL     1       5.410  -6.120  26.384  0.00  0.00    +0.068 C 
BRANCH  29  30
ATOM     30  CA  UNL     1       6.424  -5.650  27.448  0.00  0.00    +0.165 C 
BRANCH  30  31
ATOM     31  N   UNL     1       7.808  -5.928  26.990  0.00  0.00    -0.318 NA
ATOM     32  H1  UNL     1       8.034  -6.921  27.009  0.00  0.00    +0.119 HD
ATOM     33  H2  UNL     1       8.078  -5.458  26.132  0.00  0.00    +0.119 HD
ENDBRANCH  30  31
BRANCH  30  34
ATOM     34  C   UNL     1       6.120  -6.315  28.803  0.00  0.00    +0.322 C 
ATOM     35  OXT UNL     1       6.250  -5.768  29.887  0.00  0.00    -0.249 OA
BRANCH  34  36
ATOM     36  O   UNL     1       5.678  -7.592  28.702  0.00  0.00    -0.480 OA
ATOM     37  H   UNL     1       4.707  -7.624  28.668  0.00  0.00    +0.295 HD
ENDBRANCH  34  36
ENDBRANCH  30  34
ENDBRANCH  29  30
ENDBRANCH   1  29
TORSDOF 13
ENDMDL
MODEL 5
REMARK VINA RESULT:      -6.3      2.784      5.208
REMARK  Name = 
REMARK  13 active torsions:
REMARK  status: ('A' for Active; 'I' for Inactive)
REMARK    1  A    between atoms: CA_2  and  N_3
REMARK    2  A    between atoms: CA_2  and  C_4
REMARK    3  A    between atoms: CA_2  and  C_30
REMARK    4  A    between atoms: C_4  and  C_5
REMARK    5  A    between atoms: C_6  and  O_7
REMARK    6  A    between atoms: C_9  and  O_10
REMARK    7  A    between atoms: C_11  and  N_12
REMARK    8  A    between atoms: N_12  and  C_13
REMARK    9  A    between atoms: C_13  and  C_14
REMARK   10  A    between atoms: C_14  and  O_15
REMARK   11  A    between atoms: O_15  and  C_16
REMARK   12  A    between atoms: C_26  and  C_27
REMARK   13  A    between atoms: C_30  and  O_31
REMARK                            x       y       z     vdW  Elec       q    Type
REMARK                         _______ _______ _______ _____ _____    ______ ____
ROOT
ATOM      1  C   UNL     1       9.143   3.134  23.646  0.00  0.00    -0.002 A 
ATOM      2  C   UNL     1       8.290   3.383  24.748  0.00  0.00    +0.034 A 
ATOM      3  C   UNL     1       6.931   3.034  24.741  0.00  0.00    +0.074 A 
ATOM      4  C   UNL     1       6.449   2.324  23.628  0.00  0.00    +0.141 A 
ATOM      5  C   UNL     1       7.269   2.028  22.541  0.00  0.00    +0.093 A 
ATOM      6  C   UNL     1       8.592   2.466  22.540  0.00  0.00    +0.124 A 
ENDROOT
BRANCH   3   7
ATOM      7  N   UNL     1       6.064   3.260  25.840  0.00  0.00    -0.312 N 
ATOM      8  H   UNL     1       5.652   4.193  25.768  0.00  0.00    +0.152 HD
BRANCH   7   9
ATOM      9  C   UNL     1       6.197   2.785  27.144  0.00  0.00    +0.049 C 
ATOM     10  C   UNL     1       6.541   3.660  28.119  0.00  0.00    +0.064 C 
BRANCH  10  11
ATOM     11  C   UNL     1       6.828   3.308  29.520  0.00  0.00    +0.252 C 
ATOM     12  O   UNL     1       7.907   2.834  29.856  0.00  0.00    -0.296 OA
ENDBRANCH  10  11
BRANCH   9  13
ATOM     13  C   UNL     1       5.872   1.312  27.434  0.00  0.00    +0.279 C 
BRANCH  13  14
ATOM     14  O   UNL     1       7.057   0.511  27.499  0.00  0.00    -0.486 OA
BRANCH  14  15
ATOM     15  C   UNL     1       7.449  -0.131  26.347  0.00  0.00    +0.122 A 
ATOM     16  C   UNL     1       8.729  -0.118  25.779  0.00  0.00    +0.054 A 
ATOM     17  C   UNL     1       8.965  -0.655  24.492  0.00  0.00    -0.014 A 
ATOM     18  C   UNL     1       7.888  -1.223  23.774  0.00  0.00    -0.018 A 
ATOM     19  C   UNL     1       8.075  -1.627  22.440  0.00  0.00    +0.008 A 
ATOM     20  C   UNL     1       9.324  -1.514  21.826  0.00  0.00    +0.001 A 
ATOM     21  C   UNL     1      10.408  -1.040  22.556  0.00  0.00    +0.001 A 
ATOM     22  C   UNL     1       6.649  -1.361  24.413  0.00  0.00    +0.012 A 
ATOM     23  C   UNL     1      10.231  -0.613  23.876  0.00  0.00    +0.008 A 
ATOM     24  C   UNL     1       6.438  -0.834  25.690  0.00  0.00    +0.046 A 
ENDBRANCH  14  15
ENDBRANCH  13  14
ENDBRANCH   9  13
ENDBRANCH   7   9
ENDBRANCH   3   7
BRANCH   4  25
ATOM     25  O   UNL     1       5.132   1.937  23.617  0.00  0.00    -0.505 OA
ATOM     26  H   UNL     1       4.761   2.154  22.744  0.00  0.00    +0.292 HD
ENDBRANCH   4  25
BRANCH   6  27
ATOM     27  O   UNL     1       9.291   2.208  21.393  0.00  0.00    -0.506 OA
ATOM     28  H   UNL     1       9.561   3.042  20.980  0.00  0.00    +0.292 HD
ENDBRANCH   6  27
BRANCH   1  29
ATOM     29  C   UNL     1      10.577   3.642  23.624  0.00  0.00    +0.068 C 
BRANCH  29  30
ATOM     30  CA  UNL     1      10.826   5.152  23.825  0.00  0.00    +0.165 C 
BRANCH  30  31
ATOM     31  N   UNL     1       9.940   5.937  22.930  0.00  0.00    -0.318 NA
ATOM     32  H1  UNL     1       9.043   5.483  22.770  0.00  0.00    +0.119 HD
ATOM     33  H2  UNL     1       9.870   6.925  23.154  0.00  0.00    +0.119 HD
ENDBRANCH  30  31
BRANCH  30  34
ATOM     34  C   UNL     1      12.314   5.480  23.598  0.00  0.00    +0.322 C 
ATOM     35  OXT UNL     1      12.960   5.123  22.626  0.00  0.00    -0.249 OA
BRANCH  34  36
ATOM     36  O   UNL     1      12.870   6.223  24.586  0.00  0.00    -0.480 OA
ATOM     37  H   UNL     1      13.584   6.785  24.238  0.00  0.00    +0.295 HD
ENDBRANCH  34  36
ENDBRANCH  30  34
ENDBRANCH  29  30
ENDBRANCH   1  29
TORSDOF 13
ENDMDL
MODEL 6
REMARK VINA RESULT:      -6.1      2.844      5.397
REMARK  Name = 
REMARK  13 active torsions:
REMARK  status: ('A' for Active; 'I' for Inactive)
REMARK    1  A    between atoms: CA_2  and  N_3
REMARK    2  A    between atoms: CA_2  and  C_4
REMARK    3  A    between atoms: CA_2  and  C_30
REMARK    4  A    between atoms: C_4  and  C_5
REMARK    5  A    between atoms: C_6  and  O_7
REMARK    6  A    between atoms: C_9  and  O_10
REMARK    7  A    between atoms: C_11  and  N_12
REMARK    8  A    between atoms: N_12  and  C_13
REMARK    9  A    between atoms: C_13  and  C_14
REMARK   10  A    between atoms: C_14  and  O_15
REMARK   11  A    between atoms: O_15  and  C_16
REMARK   12  A    between atoms: C_26  and  C_27
REMARK   13  A    between atoms: C_30  and  O_31
REMARK                            x       y       z     vdW  Elec       q    Type
REMARK                         _______ _______ _______ _____ _____    ______ ____
ROOT
ATOM      1  C   UNL     1       9.611   5.126  23.539  0.00  0.00    -0.002 A 
ATOM      2  C   UNL     1       9.756   3.828  24.086  0.00  0.00    +0.034 A 
ATOM      3  C   UNL     1       8.683   2.932  24.191  0.00  0.00    +0.074 A 
ATOM      4  C   UNL     1       7.453   3.325  23.635  0.00  0.00    +0.141 A 
ATOM      5  C   UNL     1       7.282   4.579  23.055  0.00  0.00    +0.093 A 
ATOM      6  C   UNL     1       8.345   5.481  23.045  0.00  0.00    +0.124 A 
ENDROOT
BRANCH   3   7
ATOM      7  N   UNL     1       8.811   1.623  24.721  0.00  0.00    -0.312 N 
ATOM      8  H   UNL     1       8.982   1.674  25.728  0.00  0.00    +0.152 HD
BRANCH   7   9
ATOM      9  C   UNL     1       9.350   0.499  24.099  0.00  0.00    +0.049 C 
ATOM     10  C   UNL     1       9.446   0.491  22.748  0.00  0.00    +0.064 C 
BRANCH  10  11
ATOM     11  C   UNL     1       9.887  -0.651  21.930  0.00  0.00    +0.252 C 
ATOM     12  O   UNL     1       9.095  -1.493  21.521  0.00  0.00    -0.296 OA
ENDBRANCH  10  11
BRANCH   9  13
ATOM     13  C   UNL     1       9.883  -0.648  24.971  0.00  0.00    +0.279 C 
BRANCH  13  14
ATOM     14  O   UNL     1       8.823  -1.356  25.622  0.00  0.00    -0.486 OA
BRANCH  14  15
ATOM     15  C   UNL     1       8.035  -2.170  24.842  0.00  0.00    +0.122 A 
ATOM     16  C   UNL     1       8.321  -3.484  24.453  0.00  0.00    +0.054 A 
ATOM     17  C   UNL     1       7.527  -4.153  23.491  0.00  0.00    -0.014 A 
ATOM     18  C   UNL     1       6.420  -3.483  22.925  0.00  0.00    -0.018 A 
ATOM     19  C   UNL     1       5.711  -4.078  21.866  0.00  0.00    +0.008 A 
ATOM     20  C   UNL     1       6.060  -5.344  21.394  0.00  0.00    +0.001 A 
ATOM     21  C   UNL     1       7.091  -6.047  22.007  0.00  0.00    +0.001 A 
ATOM     22  C   UNL     1       6.059  -2.226  23.431  0.00  0.00    +0.012 A 
ATOM     23  C   UNL     1       7.819  -5.457  23.045  0.00  0.00    +0.008 A 
ATOM     24  C   UNL     1       6.850  -1.586  24.389  0.00  0.00    +0.046 A 
ENDBRANCH  14  15
ENDBRANCH  13  14
ENDBRANCH   9  13
ENDBRANCH   7   9
ENDBRANCH   3   7
BRANCH   4  25
ATOM     25  O   UNL     1       6.398   2.448  23.691  0.00  0.00    -0.505 OA
ATOM     26  H   UNL     1       5.596   2.954  23.905  0.00  0.00    +0.292 HD
ENDBRANCH   4  25
BRANCH   6  27
ATOM     27  O   UNL     1       8.057   6.718  22.537  0.00  0.00    -0.506 OA
ATOM     28  H   UNL     1       8.045   6.679  21.569  0.00  0.00    +0.292 HD
ENDBRANCH   6  27
BRANCH   1  29
ATOM     29  C   UNL     1      10.757   6.127  23.559  0.00  0.00    +0.068 C 
BRANCH  29  30
ATOM     30  CA  UNL     1      12.133   5.660  24.077  0.00  0.00    +0.165 C 
BRANCH  30  31
ATOM     31  N   UNL     1      12.696   6.670  25.008  0.00  0.00    -0.318 NA
ATOM     32  H1  UNL     1      13.708   6.605  25.091  0.00  0.00    +0.119 HD
ATOM     33  H2  UNL     1      12.351   7.615  24.875  0.00  0.00    +0.119 HD
ENDBRANCH  30  31
BRANCH  30  34
ATOM     34  C   UNL     1      13.079   5.375  22.895  0.00  0.00    +0.322 C 
ATOM     35  OXT UNL     1      12.764   5.474  21.720  0.00  0.00    -0.249 OA
BRANCH  34  36
ATOM     36  O   UNL     1      14.326   4.999  23.266  0.00  0.00    -0.480 OA
ATOM     37  H   UNL     1      14.340   4.069  23.550  0.00  0.00    +0.295 HD
ENDBRANCH  34  36
ENDBRANCH  30  34
ENDBRANCH  29  30
ENDBRANCH   1  29
TORSDOF 13
ENDMDL
MODEL 7
REMARK VINA RESULT:      -6.1      3.196      7.062
REMARK  Name = 
REMARK  13 active torsions:
REMARK  status: ('A' for Active; 'I' for Inactive)
REMARK    1  A    between atoms: CA_2  and  N_3
REMARK    2  A    between atoms: CA_2  and  C_4
REMARK    3  A    between atoms: CA_2  and  C_30
REMARK    4  A    between atoms: C_4  and  C_5
REMARK    5  A    between atoms: C_6  and  O_7
REMARK    6  A    between atoms: C_9  and  O_10
REMARK    7  A    between atoms: C_11  and  N_12
REMARK    8  A    between atoms: N_12  and  C_13
REMARK    9  A    between atoms: C_13  and  C_14
REMARK   10  A    between atoms: C_14  and  O_15
REMARK   11  A    between atoms: O_15  and  C_16
REMARK   12  A    between atoms: C_26  and  C_27
REMARK   13  A    between atoms: C_30  and  O_31
REMARK                            x       y       z     vdW  Elec       q    Type
REMARK                         _______ _______ _______ _____ _____    ______ ____
ROOT
ATOM      1  C   UNL     1       6.531  -3.936  26.612  0.00  0.00    -0.002 A 
ATOM      2  C   UNL     1       7.318  -2.924  26.013  0.00  0.00    +0.034 A 
ATOM      3  C   UNL     1       8.582  -3.181  25.462  0.00  0.00    +0.074 A 
ATOM      4  C   UNL     1       9.015  -4.519  25.428  0.00  0.00    +0.141 A 
ATOM      5  C   UNL     1       8.250  -5.546  25.975  0.00  0.00    +0.093 A 
ATOM      6  C   UNL     1       7.038  -5.246  26.594  0.00  0.00    +0.124 A 
ENDROOT
BRANCH   3   7
ATOM      7  N   UNL     1       9.379  -2.185  24.843  0.00  0.00    -0.312 N 
ATOM      8  H   UNL     1       9.832  -1.611  25.559  0.00  0.00    +0.152 HD
BRANCH   7   9
ATOM      9  C   UNL     1       9.139  -1.525  23.640  0.00  0.00    +0.049 C 
ATOM     10  C   UNL     1       9.330  -0.185  23.587  0.00  0.00    +0.064 C 
BRANCH  10  11
ATOM     11  C   UNL     1       9.020   0.677  22.435  0.00  0.00    +0.252 C 
ATOM     12  O   UNL     1       9.901   1.109  21.699  0.00  0.00    -0.296 OA
ENDBRANCH  10  11
BRANCH   9  13
ATOM     13  C   UNL     1       8.745  -2.351  22.406  0.00  0.00    +0.279 C 
BRANCH  13  14
ATOM     14  O   UNL     1       7.344  -2.253  22.129  0.00  0.00    -0.486 OA
BRANCH  14  15
ATOM     15  C   UNL     1       6.554  -3.325  22.473  0.00  0.00    +0.122 A 
ATOM     16  C   UNL     1       5.273  -3.272  23.035  0.00  0.00    +0.054 A 
ATOM     17  C   UNL     1       4.639  -4.438  23.526  0.00  0.00    -0.014 A 
ATOM     18  C   UNL     1       5.310  -5.677  23.434  0.00  0.00    -0.018 A 
ATOM     19  C   UNL     1       4.758  -6.817  24.046  0.00  0.00    +0.008 A 
ATOM     20  C   UNL     1       3.531  -6.750  24.709  0.00  0.00    +0.001 A 
ATOM     21  C   UNL     1       2.823  -5.553  24.725  0.00  0.00    +0.001 A 
ATOM     22  C   UNL     1       6.525  -5.739  22.738  0.00  0.00    +0.012 A 
ATOM     23  C   UNL     1       3.372  -4.407  24.140  0.00  0.00    +0.008 A 
ATOM     24  C   UNL     1       7.131  -4.577  22.251  0.00  0.00    +0.046 A 
ENDBRANCH  14  15
ENDBRANCH  13  14
ENDBRANCH   9  13
ENDBRANCH   7   9
ENDBRANCH   3   7
BRANCH   4  25
ATOM     25  O   UNL     1      10.232  -4.800  24.858  0.00  0.00    -0.505 OA
ATOM     26  H   UNL     1      10.082  -5.031  23.926  0.00  0.00    +0.292 HD
ENDBRANCH   4  25
BRANCH   6  27
ATOM     27  O   UNL     1       6.403  -6.306  27.180  0.00  0.00    -0.506 OA
ATOM     28  H   UNL     1       5.584  -6.005  27.600  0.00  0.00    +0.292 HD
ENDBRANCH   6  27
BRANCH   1  29
ATOM     29  C   UNL     1       5.226  -3.608  27.321  0.00  0.00    +0.068 C 
BRANCH  29  30
ATOM     30  CA  UNL     1       4.890  -2.127  27.598  0.00  0.00    +0.165 C 
BRANCH  30  31
ATOM     31  N   UNL     1       4.245  -1.992  28.928  0.00  0.00    -0.318 NA
ATOM     32  H1  UNL     1       4.918  -1.826  29.674  0.00  0.00    +0.119 HD
ATOM     33  H2  UNL     1       3.439  -1.376  28.953  0.00  0.00    +0.119 HD
ENDBRANCH  30  31
BRANCH  30  34
ATOM     34  C   UNL     1       4.007  -1.562  26.469  0.00  0.00    +0.322 C 
ATOM     35  OXT UNL     1       2.814  -1.788  26.346  0.00  0.00    -0.249 OA
BRANCH  34  36
ATOM     36  O   UNL     1       4.672  -0.767  25.596  0.00  0.00    -0.480 OA
ATOM     37  H   UNL     1       5.403  -0.301  26.037  0.00  0.00    +0.295 HD
ENDBRANCH  34  36
ENDBRANCH  30  34
ENDBRANCH  29  30
ENDBRANCH   1  29
TORSDOF 13
ENDMDL
MODEL 8
REMARK VINA RESULT:      -6.0      2.826      5.574
REMARK  Name = 
REMARK  13 active torsions:
REMARK  status: ('A' for Active; 'I' for Inactive)
REMARK    1  A    between atoms: CA_2  and  N_3
REMARK    2  A    between atoms: CA_2  and  C_4
REMARK    3  A    between atoms: CA_2  and  C_30
REMARK    4  A    between atoms: C_4  and  C_5
REMARK    5  A    between atoms: C_6  and  O_7
REMARK    6  A    between atoms: C_9  and  O_10
REMARK    7  A    between atoms: C_11  and  N_12
REMARK    8  A    between atoms: N_12  and  C_13
REMARK    9  A    between atoms: C_13  and  C_14
REMARK   10  A    between atoms: C_14  and  O_15
REMARK   11  A    between atoms: O_15  and  C_16
REMARK   12  A    between atoms: C_26  and  C_27
REMARK   13  A    between atoms: C_30  and  O_31
REMARK                            x       y       z     vdW  Elec       q    Type
REMARK                         _______ _______ _______ _____ _____    ______ ____
ROOT
ATOM      1  C   UNL     1       8.208  -2.691  23.661  0.00  0.00    -0.002 A 
ATOM      2  C   UNL     1       7.288  -2.553  24.730  0.00  0.00    +0.034 A 
ATOM      3  C   UNL     1       7.582  -1.811  25.883  0.00  0.00    +0.074 A 
ATOM      4  C   UNL     1       8.798  -1.107  25.910  0.00  0.00    +0.141 A 
ATOM      5  C   UNL     1       9.711  -1.189  24.861  0.00  0.00    +0.093 A 
ATOM      6  C   UNL     1       9.429  -2.005  23.767  0.00  0.00    +0.124 A 
ENDROOT
BRANCH   3   7
ATOM      7  N   UNL     1       6.669  -1.648  26.956  0.00  0.00    -0.312 N 
ATOM      8  H   UNL     1       6.936  -2.260  27.731  0.00  0.00    +0.152 HD
BRANCH   7   9
ATOM      9  C   UNL     1       5.306  -1.367  26.883  0.00  0.00    +0.049 C 
ATOM     10  C   UNL     1       4.427  -2.390  27.003  0.00  0.00    +0.064 C 
BRANCH  10  11
ATOM     11  C   UNL     1       2.968  -2.285  26.841  0.00  0.00    +0.252 C 
ATOM     12  O   UNL     1       2.431  -2.406  25.745  0.00  0.00    -0.296 OA
ENDBRANCH  10  11
BRANCH   9  13
ATOM     13  C   UNL     1       4.857   0.096  26.749  0.00  0.00    +0.279 C 
BRANCH  13  14
ATOM     14  O   UNL     1       4.809   0.512  25.380  0.00  0.00    -0.486 OA
BRANCH  14  15
ATOM     15  C   UNL     1       5.937   1.105  24.860  0.00  0.00    +0.122 A 
ATOM     16  C   UNL     1       6.502   0.863  23.603  0.00  0.00    +0.054 A 
ATOM     17  C   UNL     1       7.769   1.387  23.256  0.00  0.00    -0.014 A 
ATOM     18  C   UNL     1       8.468   2.178  24.195  0.00  0.00    -0.018 A 
ATOM     19  C   UNL     1       9.787   2.584  23.921  0.00  0.00    +0.008 A 
ATOM     20  C   UNL     1      10.402   2.251  22.713  0.00  0.00    +0.001 A 
ATOM     21  C   UNL     1       9.688   1.550  21.748  0.00  0.00    +0.001 A 
ATOM     22  C   UNL     1       7.827   2.533  25.389  0.00  0.00    +0.012 A 
ATOM     23  C   UNL     1       8.384   1.121  22.017  0.00  0.00    +0.008 A 
ATOM     24  C   UNL     1       6.570   2.014  25.709  0.00  0.00    +0.046 A 
ENDBRANCH  14  15
ENDBRANCH  13  14
ENDBRANCH   9  13
ENDBRANCH   7   9
ENDBRANCH   3   7
BRANCH   4  25
ATOM     25  O   UNL     1       9.089  -0.342  27.012  0.00  0.00    -0.505 OA
ATOM     26  H   UNL     1       8.306  -0.334  27.588  0.00  0.00    +0.292 HD
ENDBRANCH   4  25
BRANCH   6  27
ATOM     27  O   UNL     1      10.423  -2.092  22.831  0.00  0.00    -0.506 OA
ATOM     28  H   UNL     1      10.232  -1.492  22.095  0.00  0.00    +0.292 HD
ENDBRANCH   6  27
BRANCH   1  29
ATOM     29  C   UNL     1       7.920  -3.609  22.483  0.00  0.00    +0.068 C 
BRANCH  29  30
ATOM     30  CA  UNL     1       6.861  -4.719  22.656  0.00  0.00    +0.165 C 
BRANCH  30  31
ATOM     31  N   UNL     1       7.324  -5.969  22.004  0.00  0.00    -0.318 NA
ATOM     32  H1  UNL     1       7.749  -5.802  21.094  0.00  0.00    +0.119 HD
ATOM     33  H2  UNL     1       7.857  -6.592  22.602  0.00  0.00    +0.119 HD
ENDBRANCH  30  31
BRANCH  30  34
ATOM     34  C   UNL     1       5.503  -4.248  22.102  0.00  0.00    +0.322 C 
ATOM     35  OXT UNL     1       4.441  -4.353  22.695  0.00  0.00    -0.249 OA
BRANCH  34  36
ATOM     36  O   UNL     1       5.575  -3.687  20.871  0.00  0.00    -0.480 OA
ATOM     37  H   UNL     1       5.701  -4.365  20.185  0.00  0.00    +0.295 HD
ENDBRANCH  34  36
ENDBRANCH  30  34
ENDBRANCH  29  30
ENDBRANCH   1  29
TORSDOF 13
ENDMDL
MODEL 9
REMARK VINA RESULT:      -5.9      1.828      5.906
REMARK  Name = 
REMARK  13 active torsions:
REMARK  status: ('A' for Active; 'I' for Inactive)
REMARK    1  A    between atoms: CA_2  and  N_3
REMARK    2  A    between atoms: CA_2  and  C_4
REMARK    3  A    between atoms: CA_2  and  C_30
REMARK    4  A    between atoms: C_4  and  C_5
REMARK    5  A    between atoms: C_6  and  O_7
REMARK    6  A    between atoms: C_9  and  O_10
REMARK    7  A    between atoms: C_11  and  N_12
REMARK    8  A    between atoms: N_12  and  C_13
REMARK    9  A    between atoms: C_13  and  C_14
REMARK   10  A    between atoms: C_14  and  O_15
REMARK   11  A    between atoms: O_15  and  C_16
REMARK   12  A    between atoms: C_26  and  C_27
REMARK   13  A    between atoms: C_30  and  O_31
REMARK                            x       y       z     vdW  Elec       q    Type
REMARK                         _______ _______ _______ _____ _____    ______ ____
ROOT
ATOM      1  C   UNL     1       7.005  -1.110  24.437  0.00  0.00    -0.002 A 
ATOM      2  C   UNL     1       6.257   0.092  24.412  0.00  0.00    +0.034 A 
ATOM      3  C   UNL     1       6.395   1.084  25.393  0.00  0.00    +0.074 A 
ATOM      4  C   UNL     1       7.389   0.898  26.370  0.00  0.00    +0.141 A 
ATOM      5  C   UNL     1       8.169  -0.255  26.404  0.00  0.00    +0.093 A 
ATOM      6  C   UNL     1       7.948  -1.263  25.466  0.00  0.00    +0.124 A 
ENDROOT
BRANCH   3   7
ATOM      7  N   UNL     1       5.667   2.301  25.377  0.00  0.00    -0.312 N 
ATOM      8  H   UNL     1       4.861   2.230  26.003  0.00  0.00    +0.152 HD
BRANCH   7   9
ATOM      9  C   UNL     1       5.493   3.178  24.308  0.00  0.00    +0.049 C 
ATOM     10  C   UNL     1       4.444   2.982  23.474  0.00  0.00    +0.064 C 
BRANCH  10  11
ATOM     11  C   UNL     1       4.178   3.743  22.242  0.00  0.00    +0.252 C 
ATOM     12  O   UNL     1       3.473   4.746  22.244  0.00  0.00    -0.296 OA
ENDBRANCH  10  11
BRANCH   9  13
ATOM     13  C   UNL     1       6.449   4.372  24.164  0.00  0.00    +0.279 C 
BRANCH  13  14
ATOM     14  O   UNL     1       7.256   4.266  22.987  0.00  0.00    -0.486 OA
BRANCH  14  15
ATOM     15  C   UNL     1       8.155   3.226  22.929  0.00  0.00    +0.122 A 
ATOM     16  C   UNL     1       8.171   2.188  21.990  0.00  0.00    +0.054 A 
ATOM     17  C   UNL     1       9.025   1.071  22.146  0.00  0.00    -0.014 A 
ATOM     18  C   UNL     1       9.884   1.013  23.266  0.00  0.00    -0.018 A 
ATOM     19  C   UNL     1      10.631  -0.154  23.513  0.00  0.00    +0.008 A 
ATOM     20  C   UNL     1      10.568  -1.242  22.640  0.00  0.00    +0.001 A 
ATOM     21  C   UNL     1       9.793  -1.155  21.489  0.00  0.00    +0.001 A 
ATOM     22  C   UNL     1       9.964   2.124  24.116  0.00  0.00    +0.012 A 
ATOM     23  C   UNL     1       9.029  -0.010  21.244  0.00  0.00    +0.008 A 
ATOM     24  C   UNL     1       9.119   3.223  23.938  0.00  0.00    +0.046 A 
ENDBRANCH  14  15
ENDBRANCH  13  14
ENDBRANCH   9  13
ENDBRANCH   7   9
ENDBRANCH   3   7
BRANCH   4  25
ATOM     25  O   UNL     1       7.568   1.874  27.317  0.00  0.00    -0.505 OA
ATOM     26  H   UNL     1       7.134   2.685  27.002  0.00  0.00    +0.292 HD
ENDBRANCH   4  25
BRANCH   6  27
ATOM     27  O   UNL     1       8.700  -2.393  25.636  0.00  0.00    -0.506 OA
ATOM     28  H   UNL     1       9.583  -2.257  25.263  0.00  0.00    +0.292 HD
ENDBRANCH   6  27
BRANCH   1  29
ATOM     29  C   UNL     1       6.742  -2.228  23.439  0.00  0.00    +0.068 C 
BRANCH  29  30
ATOM     30  CA  UNL     1       5.775  -3.362  23.842  0.00  0.00    +0.165 C 
BRANCH  30  31
ATOM     31  N   UNL     1       6.498  -4.387  24.637  0.00  0.00    -0.318 NA
ATOM     32  H1  UNL     1       6.444  -5.314  24.220  0.00  0.00    +0.119 HD
ATOM     33  H2  UNL     1       7.431  -4.120  24.933  0.00  0.00    +0.119 HD
ENDBRANCH  30  31
BRANCH  30  34
ATOM     34  C   UNL     1       5.111  -3.965  22.590  0.00  0.00    +0.322 C 
ATOM     35  OXT UNL     1       4.294  -4.871  22.610  0.00  0.00    -0.249 OA
BRANCH  34  36
ATOM     36  O   UNL     1       5.510  -3.395  21.427  0.00  0.00    -0.480 OA
ATOM     37  H   UNL     1       6.347  -2.913  21.544  0.00  0.00    +0.295 HD
ENDBRANCH  34  36
ENDBRANCH  30  34
ENDBRANCH  29  30
ENDBRANCH   1  29
TORSDOF 13
ENDMDL
