MODEL 1
REMARK VINA RESULT:      -5.5      0.000      0.000
REMARK  Name = 
REMARK  8 active torsions:
REMARK  status: ('A' for Active; 'I' for Inactive)
REMARK    1  A    between atoms: C_2  and  N_3
REMARK    2  A    between atoms: C_2  and  C_8
REMARK    3  A    between atoms: C_2  and  C_11
REMARK    4  A    between atoms: N_3  and  O_4
REMARK    5  A    between atoms: O_4  and  C_5
REMARK    6  A    between atoms: C_5  and  C_6
REMARK    7  A    between atoms: C_6  and  S_7
REMARK    8  A    between atoms: C_8  and  O_9
REMARK                            x       y       z     vdW  Elec       q    Type
REMARK                         _______ _______ _______ _____ _____    ______ ____
ROOT
ATOM      1  C   UNL     1       7.517  -4.500  22.370  0.00  0.00    +0.221 C 
ENDROOT
BRANCH   1   2
ATOM      2  C   UNL     1       7.201  -3.066  22.686  0.00  0.00    +0.007 A 
ATOM      3  C   UNL     1       7.958  -1.875  22.411  0.00  0.00    +0.005 A 
ATOM      4  C   UNL     1       9.214  -1.606  21.822  0.00  0.00    +0.010 A 
ATOM      5  C   UNL     1       9.647  -0.280  21.683  0.00  0.00    +0.001 A 
ATOM      6  C   UNL     1       8.855   0.775  22.113  0.00  0.00    +0.002 A 
ATOM      7  C   UNL     1       7.617   0.542  22.713  0.00  0.00    +0.026 A 
ATOM      8  C   UNL     1       7.204  -0.788  22.859  0.00  0.00    +0.047 A 
ATOM      9  N   UNL     1       6.059  -1.289  23.427  0.00  0.00    -0.360 N 
ATOM     10  H   UNL     1       5.343  -0.722  23.861  0.00  0.00    +0.165 HD
ATOM     11  C   UNL     1       6.042  -2.651  23.330  0.00  0.00    +0.089 A 
ENDBRANCH   1   2
BRANCH   1  12
ATOM     12  N   UNL     1       7.787  -5.194  23.665  0.00  0.00    -0.183 NA
ATOM     13  H   UNL     1       7.068  -4.953  24.351  0.00  0.00    +0.155 HD
BRANCH  12  14
ATOM     14  O   UNL     1       9.051  -4.729  24.232  0.00  0.00    -0.298 OA
BRANCH  14  15
ATOM     15  C   UNL     1       9.225  -5.127  25.602  0.00  0.00    +0.195 C 
BRANCH  15  16
ATOM     16  C   UNL     1       8.195  -4.390  26.448  0.00  0.00    +0.095 C 
BRANCH  16  17
ATOM     17  S   UNL     1       8.402  -2.596  26.265  0.00  0.00    -0.176 S 
ATOM     18  H   UNL     1       7.306  -2.241  26.954  0.00  0.00    +0.102 HD
ENDBRANCH  16  17
ENDBRANCH  15  16
ENDBRANCH  14  15
ENDBRANCH  12  14
ENDBRANCH   1  12
BRANCH   1  19
ATOM     19  C   UNL     1       6.436  -5.252  21.580  0.00  0.00    +0.329 C 
ATOM     20  O   UNL     1       5.853  -4.821  20.595  0.00  0.00    -0.249 OA
BRANCH  19  21
ATOM     21  O   UNL     1       6.203  -6.504  22.068  0.00  0.00    -0.479 OA
ATOM     22  H   UNL     1       6.639  -7.131  21.435  0.00  0.00    +0.295 HD
ENDBRANCH  19  21
ENDBRANCH   1  19
TORSDOF 8
ENDMDL
MODEL 2
REMARK VINA RESULT:      -5.5      2.363      2.877
REMARK  Name = 
REMARK  8 active torsions:
REMARK  status: ('A' for Active; 'I' for Inactive)
REMARK    1  A    between atoms: C_2  and  N_3
REMARK    2  A    between atoms: C_2  and  C_8
REMARK    3  A    between atoms: C_2  and  C_11
REMARK    4  A    between atoms: N_3  and  O_4
REMARK    5  A    between atoms: O_4  and  C_5
REMARK    6  A    between atoms: C_5  and  C_6
REMARK    7  A    between atoms: C_6  and  S_7
REMARK    8  A    between atoms: C_8  and  O_9
REMARK                            x       y       z     vdW  Elec       q    Type
REMARK                         _______ _______ _______ _____ _____    ______ ____
ROOT
ATOM      1  C   UNL     1       9.104  -2.616  23.440  0.00  0.00    +0.221 C 
ENDROOT
BRANCH   1   2
ATOM      2  C   UNL     1       9.269  -1.279  24.104  0.00  0.00    +0.007 A 
ATOM      3  C   UNL     1       9.566   0.004  23.526  0.00  0.00    +0.005 A 
ATOM      4  C   UNL     1       9.838   0.471  22.220  0.00  0.00    +0.010 A 
ATOM      5  C   UNL     1      10.064   1.837  22.004  0.00  0.00    +0.001 A 
ATOM      6  C   UNL     1      10.021   2.740  23.056  0.00  0.00    +0.002 A 
ATOM      7  C   UNL     1       9.771   2.309  24.360  0.00  0.00    +0.026 A 
ATOM      8  C   UNL     1       9.562   0.939  24.563  0.00  0.00    +0.047 A 
ATOM      9  N   UNL     1       9.322   0.258  25.730  0.00  0.00    -0.360 N 
ATOM     10  H   UNL     1       9.294   0.686  26.646  0.00  0.00    +0.165 HD
ATOM     11  C   UNL     1       9.144  -1.071  25.472  0.00  0.00    +0.089 A 
ENDBRANCH   1   2
BRANCH   1  12
ATOM     12  N   UNL     1       9.854  -3.617  24.257  0.00  0.00    -0.183 NA
ATOM     13  H   UNL     1      10.737  -3.856  23.798  0.00  0.00    +0.155 HD
BRANCH  12  14
ATOM     14  O   UNL     1       9.099  -4.865  24.343  0.00  0.00    -0.298 OA
BRANCH  14  15
ATOM     15  C   UNL     1       9.200  -5.487  25.634  0.00  0.00    +0.195 C 
BRANCH  15  16
ATOM     16  C   UNL     1       8.170  -4.848  26.555  0.00  0.00    +0.095 C 
BRANCH  16  17
ATOM     17  S   UNL     1       6.506  -5.447  26.144  0.00  0.00    -0.176 S 
ATOM     18  H   UNL     1       6.892  -6.409  25.290  0.00  0.00    +0.102 HD
ENDBRANCH  16  17
ENDBRANCH  15  16
ENDBRANCH  14  15
ENDBRANCH  12  14
ENDBRANCH   1  12
BRANCH   1  19
ATOM     19  C   UNL     1       7.651  -3.074  23.241  0.00  0.00    +0.329 C 
ATOM     20  O   UNL     1       6.684  -2.633  23.843  0.00  0.00    -0.249 OA
BRANCH  19  21
ATOM     21  O   UNL     1       7.528  -4.024  22.269  0.00  0.00    -0.479 OA
ATOM     22  H   UNL     1       6.626  -4.419  22.385  0.00  0.00    +0.295 HD
ENDBRANCH  19  21
ENDBRANCH   1  19
TORSDOF 8
ENDMDL
MODEL 3
REMARK VINA RESULT:      -5.4      2.471      3.663
REMARK  Name = 
REMARK  8 active torsions:
REMARK  status: ('A' for Active; 'I' for Inactive)
REMARK    1  A    between atoms: C_2  and  N_3
REMARK    2  A    between atoms: C_2  and  C_8
REMARK    3  A    between atoms: C_2  and  C_11
REMARK    4  A    between atoms: N_3  and  O_4
REMARK    5  A    between atoms: O_4  and  C_5
REMARK    6  A    between atoms: C_5  and  C_6
REMARK    7  A    between atoms: C_6  and  S_7
REMARK    8  A    between atoms: C_8  and  O_9
REMARK                            x       y       z     vdW  Elec       q    Type
REMARK                         _______ _______ _______ _____ _____    ______ ____
ROOT
ATOM      1  C   UNL     1       8.290  -3.303  25.297  0.00  0.00    +0.221 C 
ENDROOT
BRANCH   1   2
ATOM      2  C   UNL     1       8.578  -2.418  24.118  0.00  0.00    +0.007 A 
ATOM      3  C   UNL     1       9.242  -1.144  24.065  0.00  0.00    +0.005 A 
ATOM      4  C   UNL     1       9.802  -0.271  25.025  0.00  0.00    +0.010 A 
ATOM      5  C   UNL     1      10.416   0.919  24.608  0.00  0.00    +0.001 A 
ATOM      6  C   UNL     1      10.484   1.250  23.262  0.00  0.00    +0.002 A 
ATOM      7  C   UNL     1       9.926   0.417  22.291  0.00  0.00    +0.026 A 
ATOM      8  C   UNL     1       9.303  -0.761  22.723  0.00  0.00    +0.047 A 
ATOM      9  N   UNL     1       8.665  -1.729  21.990  0.00  0.00    -0.360 N 
ATOM     10  H   UNL     1       8.534  -1.693  20.987  0.00  0.00    +0.165 HD
ATOM     11  C   UNL     1       8.226  -2.729  22.810  0.00  0.00    +0.089 A 
ENDBRANCH   1   2
BRANCH   1  12
ATOM     12  N   UNL     1       6.892  -3.808  25.146  0.00  0.00    -0.183 NA
ATOM     13  H   UNL     1       6.405  -3.773  26.045  0.00  0.00    +0.155 HD
BRANCH  12  14
ATOM     14  O   UNL     1       6.904  -5.216  24.755  0.00  0.00    -0.298 OA
BRANCH  14  15
ATOM     15  C   UNL     1       5.607  -5.697  24.371  0.00  0.00    +0.195 C 
BRANCH  15  16
ATOM     16  C   UNL     1       5.403  -5.397  22.892  0.00  0.00    +0.095 C 
BRANCH  16  17
ATOM     17  S   UNL     1       6.774  -6.083  21.919  0.00  0.00    -0.176 S 
ATOM     18  H   UNL     1       7.609  -5.042  22.070  0.00  0.00    +0.102 HD
ENDBRANCH  16  17
ENDBRANCH  15  16
ENDBRANCH  14  15
ENDBRANCH  12  14
ENDBRANCH   1  12
BRANCH   1  19
ATOM     19  C   UNL     1       9.261  -4.477  25.489  0.00  0.00    +0.329 C 
ATOM     20  O   UNL     1      10.189  -4.754  24.744  0.00  0.00    -0.249 OA
BRANCH  19  21
ATOM     21  O   UNL     1       9.012  -5.185  26.629  0.00  0.00    -0.479 OA
ATOM     22  H   UNL     1       9.456  -6.063  26.509  0.00  0.00    +0.295 HD
ENDBRANCH  19  21
ENDBRANCH   1  19
TORSDOF 8
ENDMDL
MODEL 4
REMARK VINA RESULT:      -5.4      2.748      4.046
REMARK  Name = 
REMARK  8 active torsions:
REMARK  status: ('A' for Active; 'I' for Inactive)
REMARK    1  A    between atoms: C_2  and  N_3
REMARK    2  A    between atoms: C_2  and  C_8
REMARK    3  A    between atoms: C_2  and  C_11
REMARK    4  A    between atoms: N_3  and  O_4
REMARK    5  A    between atoms: O_4  and  C_5
REMARK    6  A    between atoms: C_5  and  C_6
REMARK    7  A    between atoms: C_6  and  S_7
REMARK    8  A    between atoms: C_8  and  O_9
REMARK                            x       y       z     vdW  Elec       q    Type
REMARK                         _______ _______ _______ _____ _____    ______ ____
ROOT
ATOM      1  C   UNL     1       7.758  -3.500  26.299  0.00  0.00    +0.221 C 
ENDROOT
BRANCH   1   2
ATOM      2  C   UNL     1       8.477  -2.216  26.001  0.00  0.00    +0.007 A 
ATOM      3  C   UNL     1       9.119  -1.781  24.789  0.00  0.00    +0.005 A 
ATOM      4  C   UNL     1       9.345  -2.358  23.519  0.00  0.00    +0.010 A 
ATOM      5  C   UNL     1      10.004  -1.617  22.528  0.00  0.00    +0.001 A 
ATOM      6  C   UNL     1      10.434  -0.321  22.776  0.00  0.00    +0.002 A 
ATOM      7  C   UNL     1      10.239   0.270  24.025  0.00  0.00    +0.026 A 
ATOM      8  C   UNL     1       9.593  -0.486  25.010  0.00  0.00    +0.047 A 
ATOM      9  N   UNL     1       9.300  -0.158  26.310  0.00  0.00    -0.360 N 
ATOM     10  H   UNL     1       9.557   0.717  26.750  0.00  0.00    +0.165 HD
ATOM     11  C   UNL     1       8.631  -1.182  26.916  0.00  0.00    +0.089 A 
ENDBRANCH   1   2
BRANCH   1  12
ATOM     12  N   UNL     1       6.805  -3.751  25.176  0.00  0.00    -0.183 NA
ATOM     13  H   UNL     1       5.841  -3.629  25.496  0.00  0.00    +0.155 HD
BRANCH  12  14
ATOM     14  O   UNL     1       6.904  -5.139  24.729  0.00  0.00    -0.298 OA
BRANCH  14  15
ATOM     15  C   UNL     1       5.649  -5.666  24.272  0.00  0.00    +0.195 C 
BRANCH  15  16
ATOM     16  C   UNL     1       5.467  -5.270  22.814  0.00  0.00    +0.095 C 
BRANCH  16  17
ATOM     17  S   UNL     1       6.834  -5.920  21.811  0.00  0.00    -0.176 S 
ATOM     18  H   UNL     1       7.768  -5.057  22.243  0.00  0.00    +0.102 HD
ENDBRANCH  16  17
ENDBRANCH  15  16
ENDBRANCH  14  15
ENDBRANCH  12  14
ENDBRANCH   1  12
BRANCH   1  19
ATOM     19  C   UNL     1       8.661  -4.724  26.511  0.00  0.00    +0.329 C 
ATOM     20  O   UNL     1       9.786  -4.858  26.053  0.00  0.00    -0.249 OA
BRANCH  19  21
ATOM     21  O   UNL     1       8.092  -5.664  27.319  0.00  0.00    -0.479 OA
ATOM     22  H   UNL     1       8.228  -5.346  28.248  0.00  0.00    +0.295 HD
ENDBRANCH  19  21
ENDBRANCH   1  19
TORSDOF 8
ENDMDL
MODEL 5
REMARK VINA RESULT:      -5.3      2.748      3.653
REMARK  Name = 
REMARK  8 active torsions:
REMARK  status: ('A' for Active; 'I' for Inactive)
REMARK    1  A    between atoms: C_2  and  N_3
REMARK    2  A    between atoms: C_2  and  C_8
REMARK    3  A    between atoms: C_2  and  C_11
REMARK    4  A    between atoms: N_3  and  O_4
REMARK    5  A    between atoms: O_4  and  C_5
REMARK    6  A    between atoms: C_5  and  C_6
REMARK    7  A    between atoms: C_6  and  S_7
REMARK    8  A    between atoms: C_8  and  O_9
REMARK                            x       y       z     vdW  Elec       q    Type
REMARK                         _______ _______ _______ _____ _____    ______ ____
ROOT
ATOM      1  C   UNL     1       8.042  -4.023  25.307  0.00  0.00    +0.221 C 
ENDROOT
BRANCH   1   2
ATOM      2  C   UNL     1       8.112  -3.261  24.015  0.00  0.00    +0.007 A 
ATOM      3  C   UNL     1       8.867  -2.083  23.682  0.00  0.00    +0.005 A 
ATOM      4  C   UNL     1       9.736  -1.222  24.391  0.00  0.00    +0.010 A 
ATOM      5  C   UNL     1      10.342  -0.147  23.727  0.00  0.00    +0.001 A 
ATOM      6  C   UNL     1      10.103   0.083  22.379  0.00  0.00    +0.002 A 
ATOM      7  C   UNL     1       9.238  -0.739  21.656  0.00  0.00    +0.026 A 
ATOM      8  C   UNL     1       8.628  -1.800  22.336  0.00  0.00    +0.047 A 
ATOM      9  N   UNL     1       7.731  -2.731  21.874  0.00  0.00    -0.360 N 
ATOM     10  H   UNL     1       7.357  -2.746  20.934  0.00  0.00    +0.165 HD
ATOM     11  C   UNL     1       7.413  -3.613  22.867  0.00  0.00    +0.089 A 
ENDBRANCH   1   2
BRANCH   1  12
ATOM     12  N   UNL     1       6.946  -5.029  25.174  0.00  0.00    -0.183 NA
ATOM     13  H   UNL     1       6.041  -4.557  25.096  0.00  0.00    +0.155 HD
BRANCH  12  14
ATOM     14  O   UNL     1       6.864  -5.849  26.380  0.00  0.00    -0.298 OA
BRANCH  14  15
ATOM     15  C   UNL     1       5.526  -6.288  26.664  0.00  0.00    +0.195 C 
BRANCH  15  16
ATOM     16  C   UNL     1       4.607  -5.756  25.574  0.00  0.00    +0.095 C 
BRANCH  16  17
ATOM     17  S   UNL     1       3.690  -7.122  24.805  0.00  0.00    -0.176 S 
ATOM     18  H   UNL     1       4.028  -8.062  25.703  0.00  0.00    +0.102 HD
ENDBRANCH  16  17
ENDBRANCH  15  16
ENDBRANCH  14  15
ENDBRANCH  12  14
ENDBRANCH   1  12
BRANCH   1  19
ATOM     19  C   UNL     1       9.346  -4.712  25.734  0.00  0.00    +0.329 C 
ATOM     20  O   UNL     1      10.230  -5.081  24.975  0.00  0.00    -0.249 OA
BRANCH  19  21
ATOM     21  O   UNL     1       9.452  -4.845  27.088  0.00  0.00    -0.479 OA
ATOM     22  H   UNL     1       8.640  -4.423  27.469  0.00  0.00    +0.295 HD
ENDBRANCH  19  21
ENDBRANCH   1  19
TORSDOF 8
ENDMDL
MODEL 6
REMARK VINA RESULT:      -5.2      2.260      3.735
REMARK  Name = 
REMARK  8 active torsions:
REMARK  status: ('A' for Active; 'I' for Inactive)
REMARK    1  A    between atoms: C_2  and  N_3
REMARK    2  A    between atoms: C_2  and  C_8
REMARK    3  A    between atoms: C_2  and  C_11
REMARK    4  A    between atoms: N_3  and  O_4
REMARK    5  A    between atoms: O_4  and  C_5
REMARK    6  A    between atoms: C_5  and  C_6
REMARK    7  A    between atoms: C_6  and  S_7
REMARK    8  A    between atoms: C_8  and  O_9
REMARK                            x       y       z     vdW  Elec       q    Type
REMARK                         _______ _______ _______ _____ _____    ______ ____
ROOT
ATOM      1  C   UNL     1       8.076  -2.501  23.708  0.00  0.00    +0.221 C 
ENDROOT
BRANCH   1   2
ATOM      2  C   UNL     1       8.726  -1.383  22.944  0.00  0.00    +0.007 A 
ATOM      3  C   UNL     1       9.024  -0.038  23.358  0.00  0.00    +0.005 A 
ATOM      4  C   UNL     1       8.804   0.715  24.533  0.00  0.00    +0.010 A 
ATOM      5  C   UNL     1       9.266   2.037  24.608  0.00  0.00    +0.001 A 
ATOM      6  C   UNL     1       9.941   2.615  23.542  0.00  0.00    +0.002 A 
ATOM      7  C   UNL     1      10.160   1.903  22.362  0.00  0.00    +0.026 A 
ATOM      8  C   UNL     1       9.680   0.589  22.296  0.00  0.00    +0.047 A 
ATOM      9  N   UNL     1       9.740  -0.311  21.262  0.00  0.00    -0.360 N 
ATOM     10  H   UNL     1      10.139  -0.111  20.354  0.00  0.00    +0.165 HD
ATOM     11  C   UNL     1       9.175  -1.496  21.634  0.00  0.00    +0.089 A 
ENDBRANCH   1   2
BRANCH   1  12
ATOM     12  N   UNL     1       7.685  -3.550  22.719  0.00  0.00    -0.183 NA
ATOM     13  H   UNL     1       6.753  -3.355  22.346  0.00  0.00    +0.155 HD
BRANCH  12  14
ATOM     14  O   UNL     1       7.587  -4.852  23.376  0.00  0.00    -0.298 OA
BRANCH  14  15
ATOM     15  C   UNL     1       6.882  -5.822  22.585  0.00  0.00    +0.195 C 
BRANCH  15  16
ATOM     16  C   UNL     1       5.474  -5.963  23.144  0.00  0.00    +0.095 C 
BRANCH  16  17
ATOM     17  S   UNL     1       5.470  -5.623  24.928  0.00  0.00    -0.176 S 
ATOM     18  H   UNL     1       4.641  -4.568  24.884  0.00  0.00    +0.102 HD
ENDBRANCH  16  17
ENDBRANCH  15  16
ENDBRANCH  14  15
ENDBRANCH  12  14
ENDBRANCH   1  12
BRANCH   1  19
ATOM     19  C   UNL     1       8.931  -3.117  24.826  0.00  0.00    +0.329 C 
ATOM     20  O   UNL     1       8.682  -3.053  26.021  0.00  0.00    -0.249 OA
BRANCH  19  21
ATOM     21  O   UNL     1      10.011  -3.799  24.347  0.00  0.00    -0.479 OA
ATOM     22  H   UNL     1      10.284  -3.331  23.517  0.00  0.00    +0.295 HD
ENDBRANCH  19  21
ENDBRANCH   1  19
TORSDOF 8
ENDMDL
MODEL 7
REMARK VINA RESULT:      -5.2      2.944      5.128
REMARK  Name = 
REMARK  8 active torsions:
REMARK  status: ('A' for Active; 'I' for Inactive)
REMARK    1  A    between atoms: C_2  and  N_3
REMARK    2  A    between atoms: C_2  and  C_8
REMARK    3  A    between atoms: C_2  and  C_11
REMARK    4  A    between atoms: N_3  and  O_4
REMARK    5  A    between atoms: O_4  and  C_5
REMARK    6  A    between atoms: C_5  and  C_6
REMARK    7  A    between atoms: C_6  and  S_7
REMARK    8  A    between atoms: C_8  and  O_9
REMARK                            x       y       z     vdW  Elec       q    Type
REMARK                         _______ _______ _______ _____ _____    ______ ____
ROOT
ATOM      1  C   UNL     1       8.367  -1.620  22.206  0.00  0.00    +0.221 C 
ENDROOT
BRANCH   1   2
ATOM      2  C   UNL     1       7.164  -2.268  22.829  0.00  0.00    +0.007 A 
ATOM      3  C   UNL     1       6.673  -3.614  22.698  0.00  0.00    +0.005 A 
ATOM      4  C   UNL     1       7.070  -4.752  21.961  0.00  0.00    +0.010 A 
ATOM      5  C   UNL     1       6.356  -5.951  22.097  0.00  0.00    +0.001 A 
ATOM      6  C   UNL     1       5.264  -6.036  22.949  0.00  0.00    +0.002 A 
ATOM      7  C   UNL     1       4.838  -4.924  23.678  0.00  0.00    +0.026 A 
ATOM      8  C   UNL     1       5.551  -3.730  23.522  0.00  0.00    +0.047 A 
ATOM      9  N   UNL     1       5.333  -2.502  24.094  0.00  0.00    -0.360 N 
ATOM     10  H   UNL     1       4.564  -2.291  24.717  0.00  0.00    +0.165 HD
ATOM     11  C   UNL     1       6.290  -1.617  23.691  0.00  0.00    +0.089 A 
ENDBRANCH   1   2
BRANCH   1  12
ATOM     12  N   UNL     1       8.209  -0.143  22.359  0.00  0.00    -0.183 NA
ATOM     13  H   UNL     1       7.250   0.135  22.135  0.00  0.00    +0.155 HD
BRANCH  12  14
ATOM     14  O   UNL     1       9.061   0.558  21.401  0.00  0.00    -0.298 OA
BRANCH  14  15
ATOM     15  C   UNL     1       9.862   1.581  22.014  0.00  0.00    +0.195 C 
BRANCH  15  16
ATOM     16  C   UNL     1       9.532   1.621  23.499  0.00  0.00    +0.095 C 
BRANCH  16  17
ATOM     17  S   UNL     1      10.910   0.938  24.466  0.00  0.00    -0.176 S 
ATOM     18  H   UNL     1      10.349   1.105  25.675  0.00  0.00    +0.102 HD
ENDBRANCH  16  17
ENDBRANCH  15  16
ENDBRANCH  14  15
ENDBRANCH  12  14
ENDBRANCH   1  12
BRANCH   1  19
ATOM     19  C   UNL     1       9.722  -2.071  22.773  0.00  0.00    +0.329 C 
ATOM     20  O   UNL     1       9.882  -2.669  23.826  0.00  0.00    -0.249 OA
BRANCH  19  21
ATOM     21  O   UNL     1      10.765  -1.768  21.946  0.00  0.00    -0.479 OA
ATOM     22  H   UNL     1      11.573  -2.154  22.372  0.00  0.00    +0.295 HD
ENDBRANCH  19  21
ENDBRANCH   1  19
TORSDOF 8
ENDMDL
MODEL 8
REMARK VINA RESULT:      -5.1      2.738      5.194
REMARK  Name = 
REMARK  8 active torsions:
REMARK  status: ('A' for Active; 'I' for Inactive)
REMARK    1  A    between atoms: C_2  and  N_3
REMARK    2  A    between atoms: C_2  and  C_8
REMARK    3  A    between atoms: C_2  and  C_11
REMARK    4  A    between atoms: N_3  and  O_4
REMARK    5  A    between atoms: O_4  and  C_5
REMARK    6  A    between atoms: C_5  and  C_6
REMARK    7  A    between atoms: C_6  and  S_7
REMARK    8  A    between atoms: C_8  and  O_9
REMARK                            x       y       z     vdW  Elec       q    Type
REMARK                         _______ _______ _______ _____ _____    ______ ____
ROOT
ATOM      1  C   UNL     1       8.346  -4.755  23.961  0.00  0.00    +0.221 C 
ENDROOT
BRANCH   1   2
ATOM      2  C   UNL     1       7.044  -5.264  23.412  0.00  0.00    +0.007 A 
ATOM      3  C   UNL     1       5.702  -5.052  23.883  0.00  0.00    +0.005 A 
ATOM      4  C   UNL     1       5.126  -4.375  24.982  0.00  0.00    +0.010 A 
ATOM      5  C   UNL     1       3.732  -4.346  25.127  0.00  0.00    +0.001 A 
ATOM      6  C   UNL     1       2.908  -4.972  24.203  0.00  0.00    +0.002 A 
ATOM      7  C   UNL     1       3.447  -5.663  23.116  0.00  0.00    +0.026 A 
ATOM      8  C   UNL     1       4.841  -5.696  22.992  0.00  0.00    +0.047 A 
ATOM      9  N   UNL     1       5.618  -6.314  22.044  0.00  0.00    -0.360 N 
ATOM     10  H   UNL     1       5.254  -6.881  21.289  0.00  0.00    +0.165 HD
ATOM     11  C   UNL     1       6.939  -6.064  22.281  0.00  0.00    +0.089 A 
ENDBRANCH   1   2
BRANCH   1  12
ATOM     12  N   UNL     1       8.205  -3.281  24.155  0.00  0.00    -0.183 NA
ATOM     13  H   UNL     1       7.899  -2.838  23.284  0.00  0.00    +0.155 HD
BRANCH  12  14
ATOM     14  O   UNL     1       9.502  -2.686  24.469  0.00  0.00    -0.298 OA
BRANCH  14  15
ATOM     15  C   UNL     1      10.021  -1.885  23.396  0.00  0.00    +0.195 C 
BRANCH  15  16
ATOM     16  C   UNL     1       8.858  -1.155  22.738  0.00  0.00    +0.095 C 
BRANCH  16  17
ATOM     17  S   UNL     1       9.479   0.139  21.626  0.00  0.00    -0.176 S 
ATOM     18  H   UNL     1      10.624  -0.479  21.292  0.00  0.00    +0.102 HD
ENDBRANCH  16  17
ENDBRANCH  15  16
ENDBRANCH  14  15
ENDBRANCH  12  14
ENDBRANCH   1  12
BRANCH   1  19
ATOM     19  C   UNL     1       8.812  -5.420  25.266  0.00  0.00    +0.329 C 
ATOM     20  O   UNL     1       8.079  -5.772  26.178  0.00  0.00    -0.249 OA
BRANCH  19  21
ATOM     21  O   UNL     1      10.160  -5.624  25.300  0.00  0.00    -0.479 OA
ATOM     22  H   UNL     1      10.287  -6.581  25.525  0.00  0.00    +0.295 HD
ENDBRANCH  19  21
ENDBRANCH   1  19
TORSDOF 8
ENDMDL
MODEL 9
REMARK VINA RESULT:      -5.1      3.239      5.248
REMARK  Name = 
REMARK  8 active torsions:
REMARK  status: ('A' for Active; 'I' for Inactive)
REMARK    1  A    between atoms: C_2  and  N_3
REMARK    2  A    between atoms: C_2  and  C_8
REMARK    3  A    between atoms: C_2  and  C_11
REMARK    4  A    between atoms: N_3  and  O_4
REMARK    5  A    between atoms: O_4  and  C_5
REMARK    6  A    between atoms: C_5  and  C_6
REMARK    7  A    between atoms: C_6  and  S_7
REMARK    8  A    between atoms: C_8  and  O_9
REMARK                            x       y       z     vdW  Elec       q    Type
REMARK                         _______ _______ _______ _____ _____    ______ ____
ROOT
ATOM      1  C   UNL     1       9.124  -1.009  23.408  0.00  0.00    +0.221 C 
ENDROOT
BRANCH   1   2
ATOM      2  C   UNL     1       8.726  -2.441  23.619  0.00  0.00    +0.007 A 
ATOM      3  C   UNL     1       7.652  -3.194  23.029  0.00  0.00    +0.005 A 
ATOM      4  C   UNL     1       6.607  -2.898  22.124  0.00  0.00    +0.010 A 
ATOM      5  C   UNL     1       5.724  -3.912  21.727  0.00  0.00    +0.001 A 
ATOM      6  C   UNL     1       5.864  -5.205  22.209  0.00  0.00    +0.002 A 
ATOM      7  C   UNL     1       6.876  -5.526  23.116  0.00  0.00    +0.026 A 
ATOM      8  C   UNL     1       7.741  -4.500  23.515  0.00  0.00    +0.047 A 
ATOM      9  N   UNL     1       8.789  -4.538  24.399  0.00  0.00    -0.360 N 
ATOM     10  H   UNL     1       9.064  -5.358  24.925  0.00  0.00    +0.165 HD
ATOM     11  C   UNL     1       9.390  -3.314  24.472  0.00  0.00    +0.089 A 
ENDBRANCH   1   2
BRANCH   1  12
ATOM     12  N   UNL     1      10.175  -0.683  24.419  0.00  0.00    -0.183 NA
ATOM     13  H   UNL     1       9.987  -1.177  25.295  0.00  0.00    +0.155 HD
BRANCH  12  14
ATOM     14  O   UNL     1      10.136   0.740  24.747  0.00  0.00    -0.298 OA
BRANCH  14  15
ATOM     15  C   UNL     1       8.806   1.215  25.005  0.00  0.00    +0.195 C 
BRANCH  15  16
ATOM     16  C   UNL     1       8.682   2.622  24.437  0.00  0.00    +0.095 C 
BRANCH  16  17
ATOM     17  S   UNL     1      10.207   3.084  23.567  0.00  0.00    -0.176 S 
ATOM     18  H   UNL     1      11.059   2.502  24.426  0.00  0.00    +0.102 HD
ENDBRANCH  16  17
ENDBRANCH  15  16
ENDBRANCH  14  15
ENDBRANCH  12  14
ENDBRANCH   1  12
BRANCH   1  19
ATOM     19  C   UNL     1       9.621  -0.667  21.996  0.00  0.00    +0.329 C 
ATOM     20  O   UNL     1       9.315   0.333  21.363  0.00  0.00    -0.249 OA
BRANCH  19  21
ATOM     21  O   UNL     1      10.498  -1.592  21.509  0.00  0.00    -0.479 OA
ATOM     22  H   UNL     1      11.304  -1.534  22.083  0.00  0.00    +0.295 HD
ENDBRANCH  19  21
ENDBRANCH   1  19
TORSDOF 8
ENDMDL
