MODEL 1
REMARK VINA RESULT:      -7.2      0.000      0.000
REMARK  Name = 
REMARK  6 active torsions:
REMARK  status: ('A' for Active; 'I' for Inactive)
REMARK    1  A    between atoms: C_2  and  C_3
REMARK    2  A    between atoms: C_2  and  C_7
REMARK    3  A    between atoms: C_2  and  C_13
REMARK    4  A    between atoms: C_3  and  C_4
REMARK    5  A    between atoms: C_4  and  C_5
REMARK    6  A    between atoms: C_14  and  O_15
REMARK                            x       y       z     vdW  Elec       q    Type
REMARK                         _______ _______ _______ _____ _____    ______ ____
ROOT
ATOM      1  C   UNL     1       8.094  -2.458  24.211  0.00  0.00    +0.087 A 
ATOM      2  C   UNL     1       9.564  -2.438  23.971  0.00  0.00    +0.345 A 
ATOM      3  O   UNL     1      10.258  -3.431  24.174  0.00  0.00    -0.245 OA
ATOM      4  O   UNL     1      10.142  -1.248  23.558  0.00  0.00    -0.422 OA
ATOM      5  C   UNL     1       9.352  -0.220  23.028  0.00  0.00    +0.143 A 
ATOM      6  C   UNL     1       7.967  -0.282  23.102  0.00  0.00    +0.059 A 
ATOM      7  C   UNL     1       7.227   0.727  22.470  0.00  0.00    +0.015 A 
ATOM      8  C   UNL     1       7.871   1.762  21.785  0.00  0.00    +0.001 A 
ATOM      9  C   UNL     1       9.264   1.815  21.749  0.00  0.00    +0.004 A 
ATOM     10  C   UNL     1      10.012   0.825  22.383  0.00  0.00    +0.047 A 
ATOM     11  C   UNL     1       7.352  -1.410  23.796  0.00  0.00    +0.138 A 
ENDROOT
BRANCH  11  12
ATOM     12  O   UNL     1       5.992  -1.279  23.968  0.00  0.00    -0.506 OA
ATOM     13  H   UNL     1       5.621  -2.090  24.348  0.00  0.00    +0.292 HD
ENDBRANCH  11  12
BRANCH   1  14
ATOM     14  C   UNL     1       7.572  -3.724  24.920  0.00  0.00    +0.067 C 
BRANCH  14  15
ATOM     15  C   UNL     1       6.843  -4.620  23.917  0.00  0.00    -0.039 A 
ATOM     16  C   UNL     1       5.446  -4.688  23.814  0.00  0.00    +0.004 A 
ATOM     17  C   UNL     1       4.839  -5.331  22.733  0.00  0.00    +0.000 A 
ATOM     18  C   UNL     1       5.616  -5.946  21.755  0.00  0.00    +0.000 A 
ATOM     19  C   UNL     1       7.001  -5.966  21.884  0.00  0.00    +0.000 A 
ATOM     20  C   UNL     1       7.609  -5.321  22.962  0.00  0.00    +0.004 A 
ENDBRANCH  14  15
BRANCH  14  21
ATOM     21  C   UNL     1       6.811  -3.273  26.183  0.00  0.00    +0.087 C 
BRANCH  21  22
ATOM     22  C   UNL     1       6.649  -4.326  27.263  0.00  0.00    +0.131 C 
ATOM     23  O   UNL     1       7.574  -5.101  27.520  0.00  0.00    -0.298 OA
ATOM     24  C   UNL     1       5.306  -4.500  27.915  0.00  0.00    +0.086 C 
ENDBRANCH  21  22
ENDBRANCH  14  21
ENDBRANCH   1  14
TORSDOF 5
ENDMDL
MODEL 2
REMARK VINA RESULT:      -6.7      2.045      2.613
REMARK  Name = 
REMARK  6 active torsions:
REMARK  status: ('A' for Active; 'I' for Inactive)
REMARK    1  A    between atoms: C_2  and  C_3
REMARK    2  A    between atoms: C_2  and  C_7
REMARK    3  A    between atoms: C_2  and  C_13
REMARK    4  A    between atoms: C_3  and  C_4
REMARK    5  A    between atoms: C_4  and  C_5
REMARK    6  A    between atoms: C_14  and  O_15
REMARK                            x       y       z     vdW  Elec       q    Type
REMARK                         _______ _______ _______ _____ _____    ______ ____
ROOT
ATOM      1  C   UNL     1       9.013  -1.155  24.286  0.00  0.00    +0.087 A 
ATOM      2  C   UNL     1      10.112  -0.944  23.302  0.00  0.00    +0.345 A 
ATOM      3  O   UNL     1      10.521  -1.862  22.596  0.00  0.00    -0.245 OA
ATOM      4  O   UNL     1      10.699   0.309  23.238  0.00  0.00    -0.422 OA
ATOM      5  C   UNL     1      10.056   1.425  23.789  0.00  0.00    +0.143 A 
ATOM      6  C   UNL     1       8.934   1.271  24.592  0.00  0.00    +0.059 A 
ATOM      7  C   UNL     1       8.277   2.426  25.037  0.00  0.00    +0.015 A 
ATOM      8  C   UNL     1       8.742   3.695  24.677  0.00  0.00    +0.001 A 
ATOM      9  C   UNL     1       9.887   3.822  23.891  0.00  0.00    +0.004 A 
ATOM     10  C   UNL     1      10.557   2.682  23.452  0.00  0.00    +0.047 A 
ATOM     11  C   UNL     1       8.474  -0.081  24.899  0.00  0.00    +0.138 A 
ENDROOT
BRANCH  11  12
ATOM     12  O   UNL     1       7.472  -0.122  25.843  0.00  0.00    -0.506 OA
ATOM     13  H   UNL     1       7.819  -0.446  26.689  0.00  0.00    +0.292 HD
ENDBRANCH  11  12
BRANCH   1  14
ATOM     14  C   UNL     1       8.600  -2.626  24.489  0.00  0.00    +0.067 C 
BRANCH  14  15
ATOM     15  C   UNL     1       7.263  -2.892  23.794  0.00  0.00    -0.039 A 
ATOM     16  C   UNL     1       7.133  -3.067  22.409  0.00  0.00    +0.004 A 
ATOM     17  C   UNL     1       5.941  -3.542  21.857  0.00  0.00    +0.000 A 
ATOM     18  C   UNL     1       4.848  -3.815  22.675  0.00  0.00    +0.000 A 
ATOM     19  C   UNL     1       4.927  -3.565  24.041  0.00  0.00    +0.000 A 
ATOM     20  C   UNL     1       6.119  -3.094  24.594  0.00  0.00    +0.004 A 
ENDBRANCH  14  15
BRANCH  14  21
ATOM     21  C   UNL     1       8.717  -2.944  25.993  0.00  0.00    +0.087 C 
BRANCH  21  22
ATOM     22  C   UNL     1       8.860  -4.412  26.345  0.00  0.00    +0.131 C 
ATOM     23  O   UNL     1       8.191  -4.902  27.258  0.00  0.00    -0.298 OA
ATOM     24  C   UNL     1       9.924  -5.224  25.660  0.00  0.00    +0.086 C 
ENDBRANCH  21  22
ENDBRANCH  14  21
ENDBRANCH   1  14
TORSDOF 5
ENDMDL
MODEL 3
REMARK VINA RESULT:      -6.7      1.791      5.930
REMARK  Name = 
REMARK  6 active torsions:
REMARK  status: ('A' for Active; 'I' for Inactive)
REMARK    1  A    between atoms: C_2  and  C_3
REMARK    2  A    between atoms: C_2  and  C_7
REMARK    3  A    between atoms: C_2  and  C_13
REMARK    4  A    between atoms: C_3  and  C_4
REMARK    5  A    between atoms: C_4  and  C_5
REMARK    6  A    between atoms: C_14  and  O_15
REMARK                            x       y       z     vdW  Elec       q    Type
REMARK                         _______ _______ _______ _____ _____    ______ ____
ROOT
ATOM      1  C   UNL     1       7.421  -3.891  24.396  0.00  0.00    +0.087 A 
ATOM      2  C   UNL     1       8.197  -5.035  24.951  0.00  0.00    +0.345 A 
ATOM      3  O   UNL     1       9.245  -5.409  24.430  0.00  0.00    -0.245 OA
ATOM      4  O   UNL     1       7.679  -5.704  26.048  0.00  0.00    -0.422 OA
ATOM      5  C   UNL     1       6.678  -5.116  26.833  0.00  0.00    +0.143 A 
ATOM      6  C   UNL     1       6.038  -3.959  26.413  0.00  0.00    +0.059 A 
ATOM      7  C   UNL     1       5.114  -3.363  27.282  0.00  0.00    +0.015 A 
ATOM      8  C   UNL     1       4.851  -3.922  28.536  0.00  0.00    +0.001 A 
ATOM      9  C   UNL     1       5.489  -5.101  28.924  0.00  0.00    +0.004 A 
ATOM     10  C   UNL     1       6.400  -5.710  28.064  0.00  0.00    +0.047 A 
ATOM     11  C   UNL     1       6.385  -3.401  25.108  0.00  0.00    +0.138 A 
ENDROOT
BRANCH  11  12
ATOM     12  O   UNL     1       5.567  -2.366  24.715  0.00  0.00    -0.506 OA
ATOM     13  H   UNL     1       5.868  -2.001  23.869  0.00  0.00    +0.292 HD
ENDBRANCH  11  12
BRANCH   1  14
ATOM     14  C   UNL     1       7.916  -3.375  23.030  0.00  0.00    +0.067 C 
BRANCH  14  15
ATOM     15  C   UNL     1       8.664  -2.053  23.213  0.00  0.00    -0.039 A 
ATOM     16  C   UNL     1       9.199  -1.631  24.438  0.00  0.00    +0.004 A 
ATOM     17  C   UNL     1      10.072  -0.541  24.500  0.00  0.00    +0.000 A 
ATOM     18  C   UNL     1      10.397   0.164  23.344  0.00  0.00    +0.000 A 
ATOM     19  C   UNL     1       9.808  -0.184  22.133  0.00  0.00    +0.000 A 
ATOM     20  C   UNL     1       8.939  -1.273  22.070  0.00  0.00    +0.004 A 
ENDBRANCH  14  15
BRANCH  14  21
ATOM     21  C   UNL     1       6.723  -3.411  22.055  0.00  0.00    +0.087 C 
BRANCH  21  22
ATOM     22  C   UNL     1       6.077  -4.768  21.857  0.00  0.00    +0.131 C 
ATOM     23  O   UNL     1       4.893  -4.944  22.154  0.00  0.00    -0.298 OA
ATOM     24  C   UNL     1       6.933  -5.926  21.424  0.00  0.00    +0.086 C 
ENDBRANCH  21  22
ENDBRANCH  14  21
ENDBRANCH   1  14
TORSDOF 5
ENDMDL
MODEL 4
REMARK VINA RESULT:      -6.6      1.841      3.852
REMARK  Name = 
REMARK  6 active torsions:
REMARK  status: ('A' for Active; 'I' for Inactive)
REMARK    1  A    between atoms: C_2  and  C_3
REMARK    2  A    between atoms: C_2  and  C_7
REMARK    3  A    between atoms: C_2  and  C_13
REMARK    4  A    between atoms: C_3  and  C_4
REMARK    5  A    between atoms: C_4  and  C_5
REMARK    6  A    between atoms: C_14  and  O_15
REMARK                            x       y       z     vdW  Elec       q    Type
REMARK                         _______ _______ _______ _____ _____    ______ ____
ROOT
ATOM      1  C   UNL     1       6.869  -1.661  23.387  0.00  0.00    +0.087 A 
ATOM      2  C   UNL     1       6.180  -0.616  24.196  0.00  0.00    +0.345 A 
ATOM      3  O   UNL     1       5.313  -0.911  25.015  0.00  0.00    -0.245 OA
ATOM      4  O   UNL     1       6.507   0.710  23.964  0.00  0.00    -0.422 OA
ATOM      5  C   UNL     1       7.685   1.044  23.283  0.00  0.00    +0.143 A 
ATOM      6  C   UNL     1       8.434   0.066  22.644  0.00  0.00    +0.059 A 
ATOM      7  C   UNL     1       9.652   0.442  22.062  0.00  0.00    +0.015 A 
ATOM      8  C   UNL     1      10.095   1.767  22.128  0.00  0.00    +0.001 A 
ATOM      9  C   UNL     1       9.310   2.736  22.753  0.00  0.00    +0.004 A 
ATOM     10  C   UNL     1       8.092   2.377  23.325  0.00  0.00    +0.047 A 
ATOM     11  C   UNL     1       7.938  -1.308  22.644  0.00  0.00    +0.138 A 
ENDROOT
BRANCH  11  12
ATOM     12  O   UNL     1       8.659  -2.156  21.833  0.00  0.00    -0.506 OA
ATOM     13  H   UNL     1       8.532  -3.076  22.110  0.00  0.00    +0.292 HD
ENDBRANCH  11  12
BRANCH   1  14
ATOM     14  C   UNL     1       6.265  -3.074  23.507  0.00  0.00    +0.067 C 
BRANCH  14  15
ATOM     15  C   UNL     1       7.072  -3.902  24.510  0.00  0.00    -0.039 A 
ATOM     16  C   UNL     1       8.449  -4.136  24.387  0.00  0.00    +0.004 A 
ATOM     17  C   UNL     1       9.178  -4.689  25.443  0.00  0.00    +0.000 A 
ATOM     18  C   UNL     1       8.536  -5.047  26.626  0.00  0.00    +0.000 A 
ATOM     19  C   UNL     1       7.157  -4.904  26.736  0.00  0.00    +0.000 A 
ATOM     20  C   UNL     1       6.429  -4.350  25.683  0.00  0.00    +0.004 A 
ENDBRANCH  14  15
BRANCH  14  21
ATOM     21  C   UNL     1       6.084  -3.630  22.081  0.00  0.00    +0.087 C 
BRANCH  21  22
ATOM     22  C   UNL     1       5.786  -5.114  21.987  0.00  0.00    +0.131 C 
ATOM     23  O   UNL     1       4.686  -5.552  22.333  0.00  0.00    -0.298 OA
ATOM     24  C   UNL     1       6.892  -6.055  21.597  0.00  0.00    +0.086 C 
ENDBRANCH  21  22
ENDBRANCH  14  21
ENDBRANCH   1  14
TORSDOF 5
ENDMDL
MODEL 5
REMARK VINA RESULT:      -6.6      1.316      1.885
REMARK  Name = 
REMARK  6 active torsions:
REMARK  status: ('A' for Active; 'I' for Inactive)
REMARK    1  A    between atoms: C_2  and  C_3
REMARK    2  A    between atoms: C_2  and  C_7
REMARK    3  A    between atoms: C_2  and  C_13
REMARK    4  A    between atoms: C_3  and  C_4
REMARK    5  A    between atoms: C_4  and  C_5
REMARK    6  A    between atoms: C_14  and  O_15
REMARK                            x       y       z     vdW  Elec       q    Type
REMARK                         _______ _______ _______ _____ _____    ______ ____
ROOT
ATOM      1  C   UNL     1       7.612  -3.731  24.797  0.00  0.00    +0.087 A 
ATOM      2  C   UNL     1       8.966  -4.233  24.432  0.00  0.00    +0.345 A 
ATOM      3  O   UNL     1       9.293  -5.399  24.641  0.00  0.00    -0.245 OA
ATOM      4  O   UNL     1       9.872  -3.334  23.892  0.00  0.00    -0.422 OA
ATOM      5  C   UNL     1       9.434  -2.113  23.363  0.00  0.00    +0.143 A 
ATOM      6  C   UNL     1       8.128  -1.685  23.558  0.00  0.00    +0.059 A 
ATOM      7  C   UNL     1       7.719  -0.504  22.926  0.00  0.00    +0.015 A 
ATOM      8  C   UNL     1       8.605   0.218  22.120  0.00  0.00    +0.001 A 
ATOM      9  C   UNL     1       9.921  -0.220  21.962  0.00  0.00    +0.004 A 
ATOM     10  C   UNL     1      10.343  -1.387  22.595  0.00  0.00    +0.047 A 
ATOM     11  C   UNL     1       7.238  -2.504  24.378  0.00  0.00    +0.138 A 
ENDROOT
BRANCH  11  12
ATOM     12  O   UNL     1       6.032  -1.901  24.655  0.00  0.00    -0.506 OA
ATOM     13  H   UNL     1       6.139  -0.939  24.704  0.00  0.00    +0.292 HD
ENDBRANCH  11  12
BRANCH   1  14
ATOM     14  C   UNL     1       6.763  -4.709  25.632  0.00  0.00    +0.067 C 
BRANCH  14  15
ATOM     15  C   UNL     1       5.461  -5.029  24.894  0.00  0.00    -0.039 A 
ATOM     16  C   UNL     1       4.197  -4.623  25.346  0.00  0.00    +0.004 A 
ATOM     17  C   UNL     1       3.074  -4.730  24.522  0.00  0.00    +0.000 A 
ATOM     18  C   UNL     1       3.190  -5.277  23.246  0.00  0.00    +0.000 A 
ATOM     19  C   UNL     1       4.417  -5.766  22.812  0.00  0.00    +0.000 A 
ATOM     20  C   UNL     1       5.540  -5.657  23.634  0.00  0.00    +0.004 A 
ENDBRANCH  14  15
BRANCH  14  21
ATOM     21  C   UNL     1       6.670  -4.146  27.064  0.00  0.00    +0.087 C 
BRANCH  21  22
ATOM     22  C   UNL     1       6.382  -5.163  28.152  0.00  0.00    +0.131 C 
ATOM     23  O   UNL     1       7.097  -6.160  28.279  0.00  0.00    -0.298 OA
ATOM     24  C   UNL     1       5.136  -5.009  28.980  0.00  0.00    +0.086 C 
ENDBRANCH  21  22
ENDBRANCH  14  21
ENDBRANCH   1  14
TORSDOF 5
ENDMDL
MODEL 6
REMARK VINA RESULT:      -6.5      1.510      3.397
REMARK  Name = 
REMARK  6 active torsions:
REMARK  status: ('A' for Active; 'I' for Inactive)
REMARK    1  A    between atoms: C_2  and  C_3
REMARK    2  A    between atoms: C_2  and  C_7
REMARK    3  A    between atoms: C_2  and  C_13
REMARK    4  A    between atoms: C_3  and  C_4
REMARK    5  A    between atoms: C_4  and  C_5
REMARK    6  A    between atoms: C_14  and  O_15
REMARK                            x       y       z     vdW  Elec       q    Type
REMARK                         _______ _______ _______ _____ _____    ______ ____
ROOT
ATOM      1  C   UNL     1       7.865  -1.842  23.704  0.00  0.00    +0.087 A 
ATOM      2  C   UNL     1       9.277  -2.176  24.043  0.00  0.00    +0.345 A 
ATOM      3  O   UNL     1       9.665  -3.341  24.086  0.00  0.00    -0.245 OA
ATOM      4  O   UNL     1      10.135  -1.136  24.359  0.00  0.00    -0.422 OA
ATOM      5  C   UNL     1       9.812   0.183  24.017  0.00  0.00    +0.143 A 
ATOM      6  C   UNL     1       8.544   0.503  23.553  0.00  0.00    +0.059 A 
ATOM      7  C   UNL     1       8.306   1.819  23.135  0.00  0.00    +0.015 A 
ATOM      8  C   UNL     1       9.323   2.778  23.185  0.00  0.00    +0.001 A 
ATOM      9  C   UNL     1      10.581   2.437  23.682  0.00  0.00    +0.004 A 
ATOM     10  C   UNL     1      10.827   1.135  24.111  0.00  0.00    +0.047 A 
ATOM     11  C   UNL     1       7.536  -0.552  23.486  0.00  0.00    +0.138 A 
ENDROOT
BRANCH  11  12
ATOM     12  O   UNL     1       6.273  -0.092  23.187  0.00  0.00    -0.506 OA
ATOM     13  H   UNL     1       6.263   0.320  22.310  0.00  0.00    +0.292 HD
ENDBRANCH  11  12
BRANCH   1  14
ATOM     14  C   UNL     1       6.913  -3.053  23.631  0.00  0.00    +0.067 C 
BRANCH  14  15
ATOM     15  C   UNL     1       6.727  -3.654  25.026  0.00  0.00    -0.039 A 
ATOM     16  C   UNL     1       6.309  -2.909  26.138  0.00  0.00    +0.004 A 
ATOM     17  C   UNL     1       5.925  -3.545  27.322  0.00  0.00    +0.000 A 
ATOM     18  C   UNL     1       5.986  -4.932  27.425  0.00  0.00    +0.000 A 
ATOM     19  C   UNL     1       6.481  -5.683  26.364  0.00  0.00    +0.000 A 
ATOM     20  C   UNL     1       6.861  -5.049  25.180  0.00  0.00    +0.004 A 
ENDBRANCH  14  15
BRANCH  14  21
ATOM     21  C   UNL     1       7.413  -3.975  22.501  0.00  0.00    +0.087 C 
BRANCH  21  22
ATOM     22  C   UNL     1       6.349  -4.471  21.540  0.00  0.00    +0.131 C 
ATOM     23  O   UNL     1       5.560  -3.677  21.021  0.00  0.00    -0.298 OA
ATOM     24  C   UNL     1       6.185  -5.951  21.337  0.00  0.00    +0.086 C 
ENDBRANCH  21  22
ENDBRANCH  14  21
ENDBRANCH   1  14
TORSDOF 5
ENDMDL
MODEL 7
REMARK VINA RESULT:      -6.4      1.595      2.153
REMARK  Name = 
REMARK  6 active torsions:
REMARK  status: ('A' for Active; 'I' for Inactive)
REMARK    1  A    between atoms: C_2  and  C_3
REMARK    2  A    between atoms: C_2  and  C_7
REMARK    3  A    between atoms: C_2  and  C_13
REMARK    4  A    between atoms: C_3  and  C_4
REMARK    5  A    between atoms: C_4  and  C_5
REMARK    6  A    between atoms: C_14  and  O_15
REMARK                            x       y       z     vdW  Elec       q    Type
REMARK                         _______ _______ _______ _____ _____    ______ ____
ROOT
ATOM      1  C   UNL     1       7.157  -2.164  24.716  0.00  0.00    +0.087 A 
ATOM      2  C   UNL     1       8.235  -2.061  25.739  0.00  0.00    +0.345 A 
ATOM      3  O   UNL     1       8.347  -2.894  26.635  0.00  0.00    -0.245 OA
ATOM      4  O   UNL     1       9.084  -0.968  25.685  0.00  0.00    -0.422 OA
ATOM      5  C   UNL     1       9.176  -0.195  24.520  0.00  0.00    +0.143 A 
ATOM      6  C   UNL     1       8.273  -0.372  23.481  0.00  0.00    +0.059 A 
ATOM      7  C   UNL     1       8.471   0.361  22.303  0.00  0.00    +0.015 A 
ATOM      8  C   UNL     1       9.551   1.242  22.183  0.00  0.00    +0.001 A 
ATOM      9  C   UNL     1      10.428   1.422  23.253  0.00  0.00    +0.004 A 
ATOM     10  C   UNL     1      10.235   0.708  24.434  0.00  0.00    +0.047 A 
ATOM     11  C   UNL     1       7.190  -1.337  23.650  0.00  0.00    +0.138 A 
ENDROOT
BRANCH  11  12
ATOM     12  O   UNL     1       6.255  -1.301  22.641  0.00  0.00    -0.506 OA
ATOM     13  H   UNL     1       6.685  -1.409  21.779  0.00  0.00    +0.292 HD
ENDBRANCH  11  12
BRANCH   1  14
ATOM     14  C   UNL     1       6.097  -3.247  24.999  0.00  0.00    +0.067 C 
BRANCH  14  15
ATOM     15  C   UNL     1       6.222  -4.377  23.975  0.00  0.00    -0.039 A 
ATOM     16  C   UNL     1       5.153  -4.826  23.187  0.00  0.00    +0.004 A 
ATOM     17  C   UNL     1       5.371  -5.686  22.107  0.00  0.00    +0.000 A 
ATOM     18  C   UNL     1       6.656  -6.138  21.820  0.00  0.00    +0.000 A 
ATOM     19  C   UNL     1       7.718  -5.775  22.642  0.00  0.00    +0.000 A 
ATOM     20  C   UNL     1       7.501  -4.913  23.718  0.00  0.00    +0.004 A 
ENDBRANCH  14  15
BRANCH  14  21
ATOM     21  C   UNL     1       4.734  -2.544  25.147  0.00  0.00    +0.087 C 
BRANCH  21  22
ATOM     22  C   UNL     1       4.641  -1.520  26.263  0.00  0.00    +0.131 C 
ATOM     23  O   UNL     1       4.495  -0.324  26.000  0.00  0.00    -0.298 OA
ATOM     24  C   UNL     1       4.867  -1.966  27.681  0.00  0.00    +0.086 C 
ENDBRANCH  21  22
ENDBRANCH  14  21
ENDBRANCH   1  14
TORSDOF 5
ENDMDL
MODEL 8
REMARK VINA RESULT:      -6.3      0.680      2.055
REMARK  Name = 
REMARK  6 active torsions:
REMARK  status: ('A' for Active; 'I' for Inactive)
REMARK    1  A    between atoms: C_2  and  C_3
REMARK    2  A    between atoms: C_2  and  C_7
REMARK    3  A    between atoms: C_2  and  C_13
REMARK    4  A    between atoms: C_3  and  C_4
REMARK    5  A    between atoms: C_4  and  C_5
REMARK    6  A    between atoms: C_14  and  O_15
REMARK                            x       y       z     vdW  Elec       q    Type
REMARK                         _______ _______ _______ _____ _____    ______ ____
ROOT
ATOM      1  C   UNL     1       7.784  -2.437  24.126  0.00  0.00    +0.087 A 
ATOM      2  C   UNL     1       6.525  -1.650  24.001  0.00  0.00    +0.345 A 
ATOM      3  O   UNL     1       5.492  -2.003  24.565  0.00  0.00    -0.245 OA
ATOM      4  O   UNL     1       6.534  -0.530  23.186  0.00  0.00    -0.422 OA
ATOM      5  C   UNL     1       7.745   0.057  22.797  0.00  0.00    +0.143 A 
ATOM      6  C   UNL     1       8.952  -0.585  23.036  0.00  0.00    +0.059 A 
ATOM      7  C   UNL     1      10.135   0.093  22.713  0.00  0.00    +0.015 A 
ATOM      8  C   UNL     1      10.094   1.379  22.166  0.00  0.00    +0.001 A 
ATOM      9  C   UNL     1       8.867   1.991  21.910  0.00  0.00    +0.004 A 
ATOM     10  C   UNL     1       7.683   1.324  22.216  0.00  0.00    +0.047 A 
ATOM     11  C   UNL     1       8.930  -1.911  23.647  0.00  0.00    +0.138 A 
ENDROOT
BRANCH  11  12
ATOM     12  O   UNL     1      10.161  -2.528  23.672  0.00  0.00    -0.506 OA
ATOM     13  H   UNL     1      10.748  -2.138  23.007  0.00  0.00    +0.292 HD
ENDBRANCH  11  12
BRANCH   1  14
ATOM     14  C   UNL     1       7.626  -3.803  24.823  0.00  0.00    +0.067 C 
BRANCH  14  15
ATOM     15  C   UNL     1       6.923  -4.787  23.885  0.00  0.00    -0.039 A 
ATOM     16  C   UNL     1       5.637  -5.293  24.119  0.00  0.00    +0.004 A 
ATOM     17  C   UNL     1       4.951  -5.992  23.122  0.00  0.00    +0.000 A 
ATOM     18  C   UNL     1       5.553  -6.227  21.889  0.00  0.00    +0.000 A 
ATOM     19  C   UNL     1       6.861  -5.811  21.667  0.00  0.00    +0.000 A 
ATOM     20  C   UNL     1       7.546  -5.109  22.661  0.00  0.00    +0.004 A 
ENDBRANCH  14  15
BRANCH  14  21
ATOM     21  C   UNL     1       7.008  -3.553  26.213  0.00  0.00    +0.087 C 
BRANCH  21  22
ATOM     22  C   UNL     1       7.037  -4.732  27.166  0.00  0.00    +0.131 C 
ATOM     23  O   UNL     1       8.013  -5.486  27.195  0.00  0.00    -0.298 OA
ATOM     24  C   UNL     1       5.807  -5.047  27.972  0.00  0.00    +0.086 C 
ENDBRANCH  21  22
ENDBRANCH  14  21
ENDBRANCH   1  14
TORSDOF 5
ENDMDL
MODEL 9
REMARK VINA RESULT:      -6.1      1.826      2.545
REMARK  Name = 
REMARK  6 active torsions:
REMARK  status: ('A' for Active; 'I' for Inactive)
REMARK    1  A    between atoms: C_2  and  C_3
REMARK    2  A    between atoms: C_2  and  C_7
REMARK    3  A    between atoms: C_2  and  C_13
REMARK    4  A    between atoms: C_3  and  C_4
REMARK    5  A    between atoms: C_4  and  C_5
REMARK    6  A    between atoms: C_14  and  O_15
REMARK                            x       y       z     vdW  Elec       q    Type
REMARK                         _______ _______ _______ _____ _____    ______ ____
ROOT
ATOM      1  C   UNL     1       7.052  -2.840  24.027  0.00  0.00    +0.087 A 
ATOM      2  C   UNL     1       7.829  -3.336  22.857  0.00  0.00    +0.345 A 
ATOM      3  O   UNL     1       7.788  -4.515  22.516  0.00  0.00    -0.245 OA
ATOM      4  O   UNL     1       8.644  -2.438  22.187  0.00  0.00    -0.422 OA
ATOM      5  C   UNL     1       8.469  -1.057  22.352  0.00  0.00    +0.143 A 
ATOM      6  C   UNL     1       7.631  -0.564  23.342  0.00  0.00    +0.059 A 
ATOM      7  C   UNL     1       7.420   0.820  23.398  0.00  0.00    +0.015 A 
ATOM      8  C   UNL     1       8.038   1.674  22.480  0.00  0.00    +0.001 A 
ATOM      9  C   UNL     1       8.898   1.155  21.512  0.00  0.00    +0.004 A 
ATOM     10  C   UNL     1       9.125  -0.218  21.452  0.00  0.00    +0.047 A 
ATOM     11  C   UNL     1       6.981  -1.510  24.246  0.00  0.00    +0.138 A 
ENDROOT
BRANCH  11  12
ATOM     12  O   UNL     1       6.322  -0.909  25.294  0.00  0.00    -0.506 OA
ATOM     13  H   UNL     1       5.936  -1.579  25.879  0.00  0.00    +0.292 HD
ENDBRANCH  11  12
BRANCH   1  14
ATOM     14  C   UNL     1       6.388  -3.942  24.876  0.00  0.00    +0.067 C 
BRANCH  14  15
ATOM     15  C   UNL     1       4.879  -3.954  24.626  0.00  0.00    -0.039 A 
ATOM     16  C   UNL     1       4.279  -4.633  23.557  0.00  0.00    +0.004 A 
ATOM     17  C   UNL     1       2.894  -4.812  23.509  0.00  0.00    +0.000 A 
ATOM     18  C   UNL     1       2.084  -4.286  24.512  0.00  0.00    +0.000 A 
ATOM     19  C   UNL     1       2.651  -3.534  25.535  0.00  0.00    +0.000 A 
ATOM     20  C   UNL     1       4.034  -3.357  25.585  0.00  0.00    +0.004 A 
ENDBRANCH  14  15
BRANCH  14  21
ATOM     21  C   UNL     1       6.886  -3.781  26.326  0.00  0.00    +0.087 C 
BRANCH  21  22
ATOM     22  C   UNL     1       7.849  -4.848  26.813  0.00  0.00    +0.131 C 
ATOM     23  O   UNL     1       7.488  -5.676  27.653  0.00  0.00    -0.298 OA
ATOM     24  C   UNL     1       9.281  -4.796  26.361  0.00  0.00    +0.086 C 
ENDBRANCH  21  22
ENDBRANCH  14  21
ENDBRANCH   1  14
TORSDOF 5
ENDMDL
