MODEL 1
REMARK VINA RESULT:      -6.0      0.000      0.000
REMARK  Name = 
REMARK  6 active torsions:
REMARK  status: ('A' for Active; 'I' for Inactive)
REMARK    1  A    between atoms: C_2  and  C_7
REMARK    2  A    between atoms: C_7  and  C_9
REMARK    3  A    between atoms: C_12  and  C_14
REMARK    4  A    between atoms: C_14  and  C_15
REMARK    5  A    between atoms: C_14  and  C_16
REMARK    6  A    between atoms: C_14  and  C_17
REMARK                            x       y       z     vdW  Elec       q    Type
REMARK                         _______ _______ _______ _____ _____    ______ ____
ROOT
ATOM      1  C   UNL     1       9.126  -2.741  24.117  0.00  0.00    +0.286 A 
ATOM      2  O   UNL     1       7.916  -2.928  23.498  0.00  0.00    -0.417 OA
ATOM      3  C   UNL     1       7.807  -4.296  23.497  0.00  0.00    +0.223 A 
ATOM      4  N   UNL     1       8.838  -4.883  24.072  0.00  0.00    -0.111 NA
ATOM      5  N   UNL     1       9.692  -3.878  24.474  0.00  0.00    -0.104 NA
ENDROOT
BRANCH   3   6
ATOM      6  C   UNL     1       6.581  -4.900  22.872  0.00  0.00    +0.040 C 
ATOM      7  C   UNL     1       5.747  -3.805  22.188  0.00  0.00    +0.020 C 
ATOM      8  C   UNL     1       5.733  -5.595  23.949  0.00  0.00    +0.020 C 
ATOM      9  C   UNL     1       6.987  -5.943  21.814  0.00  0.00    +0.020 C 
ENDBRANCH   3   6
BRANCH   1  10
ATOM     10  C   UNL     1       9.630  -1.404  24.350  0.00  0.00    +0.236 C 
ATOM     11  O   UNL     1       9.402  -0.770  25.383  0.00  0.00    -0.285 OA
BRANCH  10  12
ATOM     12  C   UNL     1      10.492  -0.815  23.211  0.00  0.00    +0.130 C 
ATOM     13  N   UNL     1      10.199  -1.520  21.942  0.00  0.00    -0.307 NA
ATOM     14  H   UNL     1      11.076  -1.709  21.455  0.00  0.00    +0.123 HD
ATOM     15  C   UNL     1       9.375  -0.638  21.104  0.00  0.00    +0.081 C 
ATOM     16  C   UNL     1       9.076   0.609  21.912  0.00  0.00    +0.017 C 
ATOM     17  C   UNL     1      10.187   0.653  22.940  0.00  0.00    +0.028 C 
ENDBRANCH  10  12
ENDBRANCH   1  10
TORSDOF 3
ENDMDL
MODEL 2
REMARK VINA RESULT:      -5.6      1.694      5.319
REMARK  Name = 
REMARK  6 active torsions:
REMARK  status: ('A' for Active; 'I' for Inactive)
REMARK    1  A    between atoms: C_2  and  C_7
REMARK    2  A    between atoms: C_7  and  C_9
REMARK    3  A    between atoms: C_12  and  C_14
REMARK    4  A    between atoms: C_14  and  C_15
REMARK    5  A    between atoms: C_14  and  C_16
REMARK    6  A    between atoms: C_14  and  C_17
REMARK                            x       y       z     vdW  Elec       q    Type
REMARK                         _______ _______ _______ _____ _____    ______ ____
ROOT
ATOM      1  C   UNL     1       9.302  -1.908  23.110  0.00  0.00    +0.286 A 
ATOM      2  O   UNL     1       9.003  -0.695  23.679  0.00  0.00    -0.417 OA
ATOM      3  C   UNL     1       9.309   0.176  22.663  0.00  0.00    +0.223 A 
ATOM      4  N   UNL     1       9.735  -0.443  21.580  0.00  0.00    -0.111 NA
ATOM      5  N   UNL     1       9.731  -1.791  21.868  0.00  0.00    -0.104 NA
ENDROOT
BRANCH   3   6
ATOM      6  C   UNL     1       9.119   1.644  22.920  0.00  0.00    +0.040 C 
ATOM      7  C   UNL     1      10.442   2.393  22.692  0.00  0.00    +0.020 C 
ATOM      8  C   UNL     1       8.645   1.866  24.365  0.00  0.00    +0.020 C 
ATOM      9  C   UNL     1       8.058   2.216  21.960  0.00  0.00    +0.020 C 
ENDBRANCH   3   6
BRANCH   1  10
ATOM     10  C   UNL     1       9.098  -3.133  23.852  0.00  0.00    +0.236 C 
ATOM     11  O   UNL     1      10.021  -3.771  24.365  0.00  0.00    -0.285 OA
BRANCH  10  12
ATOM     12  C   UNL     1       7.628  -3.595  23.974  0.00  0.00    +0.130 C 
ATOM     13  N   UNL     1       6.798  -2.904  22.960  0.00  0.00    -0.307 NA
ATOM     14  H   UNL     1       5.923  -2.605  23.393  0.00  0.00    +0.123 HD
ATOM     15  C   UNL     1       6.490  -3.859  21.887  0.00  0.00    +0.081 C 
ATOM     16  C   UNL     1       7.223  -5.148  22.199  0.00  0.00    +0.017 C 
ATOM     17  C   UNL     1       7.453  -5.083  23.695  0.00  0.00    +0.028 C 
ENDBRANCH  10  12
ENDBRANCH   1  10
TORSDOF 3
ENDMDL
MODEL 3
REMARK VINA RESULT:      -5.6      2.286      5.522
REMARK  Name = 
REMARK  6 active torsions:
REMARK  status: ('A' for Active; 'I' for Inactive)
REMARK    1  A    between atoms: C_2  and  C_7
REMARK    2  A    between atoms: C_7  and  C_9
REMARK    3  A    between atoms: C_12  and  C_14
REMARK    4  A    between atoms: C_14  and  C_15
REMARK    5  A    between atoms: C_14  and  C_16
REMARK    6  A    between atoms: C_14  and  C_17
REMARK                            x       y       z     vdW  Elec       q    Type
REMARK                         _______ _______ _______ _____ _____    ______ ____
ROOT
ATOM      1  C   UNL     1       9.170  -2.799  24.182  0.00  0.00    +0.286 A 
ATOM      2  O   UNL     1       9.683  -1.575  24.534  0.00  0.00    -0.417 OA
ATOM      3  C   UNL     1       9.286  -0.789  23.481  0.00  0.00    +0.223 A 
ATOM      4  N   UNL     1       8.589  -1.460  22.587  0.00  0.00    -0.111 NA
ATOM      5  N   UNL     1       8.513  -2.760  23.039  0.00  0.00    -0.104 NA
ENDROOT
BRANCH   3   6
ATOM      6  C   UNL     1       9.684   0.660  23.502  0.00  0.00    +0.040 C 
ATOM      7  C   UNL     1       8.563   1.503  24.130  0.00  0.00    +0.020 C 
ATOM      8  C   UNL     1       9.953   1.148  22.069  0.00  0.00    +0.020 C 
ATOM      9  C   UNL     1      10.966   0.844  24.335  0.00  0.00    +0.020 C 
ENDBRANCH   3   6
BRANCH   1  10
ATOM     10  C   UNL     1       9.344  -3.942  25.052  0.00  0.00    +0.236 C 
ATOM     11  O   UNL     1      10.086  -4.889  24.778  0.00  0.00    -0.285 OA
BRANCH  10  12
ATOM     12  C   UNL     1       8.538  -3.899  26.370  0.00  0.00    +0.130 C 
ATOM     13  N   UNL     1       7.398  -2.963  26.231  0.00  0.00    -0.307 NA
ATOM     14  H   UNL     1       7.325  -2.398  27.080  0.00  0.00    +0.123 HD
ATOM     15  C   UNL     1       6.168  -3.753  26.085  0.00  0.00    +0.081 C 
ATOM     16  C   UNL     1       6.567  -5.214  26.040  0.00  0.00    +0.017 C 
ATOM     17  C   UNL     1       7.917  -5.244  26.726  0.00  0.00    +0.028 C 
ENDBRANCH  10  12
ENDBRANCH   1  10
TORSDOF 3
ENDMDL
MODEL 4
REMARK VINA RESULT:      -5.6      1.544      2.025
REMARK  Name = 
REMARK  6 active torsions:
REMARK  status: ('A' for Active; 'I' for Inactive)
REMARK    1  A    between atoms: C_2  and  C_7
REMARK    2  A    between atoms: C_7  and  C_9
REMARK    3  A    between atoms: C_12  and  C_14
REMARK    4  A    between atoms: C_14  and  C_15
REMARK    5  A    between atoms: C_14  and  C_16
REMARK    6  A    between atoms: C_14  and  C_17
REMARK                            x       y       z     vdW  Elec       q    Type
REMARK                         _______ _______ _______ _____ _____    ______ ____
ROOT
ATOM      1  C   UNL     1       9.152  -2.854  23.248  0.00  0.00    +0.286 A 
ATOM      2  O   UNL     1       7.909  -3.186  22.768  0.00  0.00    -0.417 OA
ATOM      3  C   UNL     1       7.634  -4.334  23.467  0.00  0.00    +0.223 A 
ATOM      4  N   UNL     1       8.602  -4.662  24.299  0.00  0.00    -0.111 NA
ATOM      5  N   UNL     1       9.584  -3.705  24.159  0.00  0.00    -0.104 NA
ENDROOT
BRANCH   3   6
ATOM      6  C   UNL     1       6.325  -5.021  23.196  0.00  0.00    +0.040 C 
ATOM      7  C   UNL     1       5.306  -4.011  22.645  0.00  0.00    +0.020 C 
ATOM      8  C   UNL     1       5.783  -5.643  24.492  0.00  0.00    +0.020 C 
ATOM      9  C   UNL     1       6.521  -6.140  22.155  0.00  0.00    +0.020 C 
ENDBRANCH   3   6
BRANCH   1  10
ATOM     10  C   UNL     1       9.822  -1.660  22.779  0.00  0.00    +0.236 C 
ATOM     11  O   UNL     1      10.816  -1.690  22.049  0.00  0.00    -0.285 OA
BRANCH  10  12
ATOM     12  C   UNL     1       9.201  -0.326  23.249  0.00  0.00    +0.130 C 
ATOM     13  N   UNL     1       8.399  -0.548  24.475  0.00  0.00    -0.307 NA
ATOM     14  H   UNL     1       7.522  -0.030  24.398  0.00  0.00    +0.123 HD
ATOM     15  C   UNL     1       9.155  -0.027  25.621  0.00  0.00    +0.081 C 
ATOM     16  C   UNL     1      10.498   0.448  25.104  0.00  0.00    +0.017 C 
ATOM     17  C   UNL     1      10.250   0.710  23.634  0.00  0.00    +0.028 C 
ENDBRANCH  10  12
ENDBRANCH   1  10
TORSDOF 3
ENDMDL
MODEL 5
REMARK VINA RESULT:      -5.3      1.503      5.567
REMARK  Name = 
REMARK  6 active torsions:
REMARK  status: ('A' for Active; 'I' for Inactive)
REMARK    1  A    between atoms: C_2  and  C_7
REMARK    2  A    between atoms: C_7  and  C_9
REMARK    3  A    between atoms: C_12  and  C_14
REMARK    4  A    between atoms: C_14  and  C_15
REMARK    5  A    between atoms: C_14  and  C_16
REMARK    6  A    between atoms: C_14  and  C_17
REMARK                            x       y       z     vdW  Elec       q    Type
REMARK                         _______ _______ _______ _____ _____    ______ ____
ROOT
ATOM      1  C   UNL     1       8.243  -2.099  22.673  0.00  0.00    +0.286 A 
ATOM      2  O   UNL     1       8.227  -0.903  23.346  0.00  0.00    -0.417 OA
ATOM      3  C   UNL     1       9.445  -0.371  23.005  0.00  0.00    +0.223 A 
ATOM      4  N   UNL     1      10.128  -1.155  22.195  0.00  0.00    -0.111 NA
ATOM      5  N   UNL     1       9.352  -2.273  21.979  0.00  0.00    -0.104 NA
ENDROOT
BRANCH   3   6
ATOM      6  C   UNL     1       9.807   0.971  23.577  0.00  0.00    +0.040 C 
ATOM      7  C   UNL     1      11.043   0.840  24.480  0.00  0.00    +0.020 C 
ATOM      8  C   UNL     1       8.629   1.526  24.394  0.00  0.00    +0.020 C 
ATOM      9  C   UNL     1      10.129   1.960  22.441  0.00  0.00    +0.020 C 
ENDBRANCH   3   6
BRANCH   1  10
ATOM     10  C   UNL     1       7.106  -2.992  22.742  0.00  0.00    +0.236 C 
ATOM     11  O   UNL     1       5.942  -2.611  22.600  0.00  0.00    -0.285 OA
BRANCH  10  12
ATOM     12  C   UNL     1       7.447  -4.478  22.998  0.00  0.00    +0.130 C 
ATOM     13  N   UNL     1       8.597  -4.577  23.926  0.00  0.00    -0.307 NA
ATOM     14  H   UNL     1       9.238  -5.297  23.587  0.00  0.00    +0.123 HD
ATOM     15  C   UNL     1       8.091  -4.980  25.245  0.00  0.00    +0.081 C 
ATOM     16  C   UNL     1       6.579  -5.044  25.154  0.00  0.00    +0.017 C 
ATOM     17  C   UNL     1       6.312  -5.235  23.676  0.00  0.00    +0.028 C 
ENDBRANCH  10  12
ENDBRANCH   1  10
TORSDOF 3
ENDMDL
MODEL 6
REMARK VINA RESULT:      -5.2      1.944      5.219
REMARK  Name = 
REMARK  6 active torsions:
REMARK  status: ('A' for Active; 'I' for Inactive)
REMARK    1  A    between atoms: C_2  and  C_7
REMARK    2  A    between atoms: C_7  and  C_9
REMARK    3  A    between atoms: C_12  and  C_14
REMARK    4  A    between atoms: C_14  and  C_15
REMARK    5  A    between atoms: C_14  and  C_16
REMARK    6  A    between atoms: C_14  and  C_17
REMARK                            x       y       z     vdW  Elec       q    Type
REMARK                         _______ _______ _______ _____ _____    ______ ____
ROOT
ATOM      1  C   UNL     1       9.029  -1.975  24.660  0.00  0.00    +0.286 A 
ATOM      2  O   UNL     1       9.211  -1.181  23.555  0.00  0.00    -0.417 OA
ATOM      3  C   UNL     1       9.200   0.076  24.105  0.00  0.00    +0.223 A 
ATOM      4  N   UNL     1       9.043   0.051  25.414  0.00  0.00    -0.111 NA
ATOM      5  N   UNL     1       8.932  -1.275  25.774  0.00  0.00    -0.104 NA
ENDROOT
BRANCH   3   6
ATOM      6  C   UNL     1       9.364   1.247  23.178  0.00  0.00    +0.040 C 
ATOM      7  C   UNL     1       8.051   2.041  23.098  0.00  0.00    +0.020 C 
ATOM      8  C   UNL     1       9.752   0.753  21.775  0.00  0.00    +0.020 C 
ATOM      9  C   UNL     1      10.474   2.181  23.697  0.00  0.00    +0.020 C 
ENDBRANCH   3   6
BRANCH   1  10
ATOM     10  C   UNL     1       9.000  -3.416  24.528  0.00  0.00    +0.236 C 
ATOM     11  O   UNL     1      10.020  -4.109  24.498  0.00  0.00    -0.285 OA
BRANCH  10  12
ATOM     12  C   UNL     1       7.591  -4.043  24.436  0.00  0.00    +0.130 C 
ATOM     13  N   UNL     1       6.603  -3.008  24.053  0.00  0.00    -0.307 NA
ATOM     14  H   UNL     1       5.764  -3.120  24.624  0.00  0.00    +0.123 HD
ATOM     15  C   UNL     1       6.244  -3.211  22.643  0.00  0.00    +0.081 C 
ATOM     16  C   UNL     1       7.099  -4.346  22.115  0.00  0.00    +0.017 C 
ATOM     17  C   UNL     1       7.492  -5.116  23.358  0.00  0.00    +0.028 C 
ENDBRANCH  10  12
ENDBRANCH   1  10
TORSDOF 3
ENDMDL
MODEL 7
REMARK VINA RESULT:      -5.2      1.796      2.813
REMARK  Name = 
REMARK  6 active torsions:
REMARK  status: ('A' for Active; 'I' for Inactive)
REMARK    1  A    between atoms: C_2  and  C_7
REMARK    2  A    between atoms: C_7  and  C_9
REMARK    3  A    between atoms: C_12  and  C_14
REMARK    4  A    between atoms: C_14  and  C_15
REMARK    5  A    between atoms: C_14  and  C_16
REMARK    6  A    between atoms: C_14  and  C_17
REMARK                            x       y       z     vdW  Elec       q    Type
REMARK                         _______ _______ _______ _____ _____    ______ ____
ROOT
ATOM      1  C   UNL     1      10.107  -0.951  23.570  0.00  0.00    +0.286 A 
ATOM      2  O   UNL     1       9.512  -1.587  24.630  0.00  0.00    -0.417 OA
ATOM      3  C   UNL     1       9.349  -2.859  24.140  0.00  0.00    +0.223 A 
ATOM      4  N   UNL     1       9.812  -2.989  22.913  0.00  0.00    -0.111 NA
ATOM      5  N   UNL     1      10.303  -1.755  22.543  0.00  0.00    -0.104 NA
ENDROOT
BRANCH   3   6
ATOM      6  C   UNL     1       8.698  -3.875  25.035  0.00  0.00    +0.040 C 
ATOM      7  C   UNL     1       7.510  -4.528  24.311  0.00  0.00    +0.020 C 
ATOM      8  C   UNL     1       8.205  -3.198  26.324  0.00  0.00    +0.020 C 
ATOM      9  C   UNL     1       9.710  -4.974  25.411  0.00  0.00    +0.020 C 
ENDBRANCH   3   6
BRANCH   1  10
ATOM     10  C   UNL     1      10.483   0.443  23.672  0.00  0.00    +0.236 C 
ATOM     11  O   UNL     1      10.977   0.934  24.690  0.00  0.00    -0.285 OA
BRANCH  10  12
ATOM     12  C   UNL     1      10.232   1.290  22.404  0.00  0.00    +0.130 C 
ATOM     13  N   UNL     1       9.082   0.738  21.650  0.00  0.00    -0.307 NA
ATOM     14  H   UNL     1       9.308   0.732  20.654  0.00  0.00    +0.123 HD
ATOM     15  C   UNL     1       7.925   1.619  21.864  0.00  0.00    +0.081 C 
ATOM     16  C   UNL     1       8.345   2.693  22.848  0.00  0.00    +0.017 C 
ATOM     17  C   UNL     1       9.854   2.731  22.722  0.00  0.00    +0.028 C 
ENDBRANCH  10  12
ENDBRANCH   1  10
TORSDOF 3
ENDMDL
MODEL 8
REMARK VINA RESULT:      -5.2      2.140      5.627
REMARK  Name = 
REMARK  6 active torsions:
REMARK  status: ('A' for Active; 'I' for Inactive)
REMARK    1  A    between atoms: C_2  and  C_7
REMARK    2  A    between atoms: C_7  and  C_9
REMARK    3  A    between atoms: C_12  and  C_14
REMARK    4  A    between atoms: C_14  and  C_15
REMARK    5  A    between atoms: C_14  and  C_16
REMARK    6  A    between atoms: C_14  and  C_17
REMARK                            x       y       z     vdW  Elec       q    Type
REMARK                         _______ _______ _______ _____ _____    ______ ____
ROOT
ATOM      1  C   UNL     1       6.910  -1.815  22.980  0.00  0.00    +0.286 A 
ATOM      2  O   UNL     1       8.075  -1.208  22.579  0.00  0.00    -0.417 OA
ATOM      3  C   UNL     1       8.138  -0.132  23.428  0.00  0.00    +0.223 A 
ATOM      4  N   UNL     1       7.125  -0.094  24.271  0.00  0.00    -0.111 NA
ATOM      5  N   UNL     1       6.331  -1.183  23.982  0.00  0.00    -0.104 NA
ENDROOT
BRANCH   3   6
ATOM      6  C   UNL     1       9.303   0.806  23.283  0.00  0.00    +0.040 C 
ATOM      7  C   UNL     1       8.956   2.174  23.890  0.00  0.00    +0.020 C 
ATOM      8  C   UNL     1       9.654   0.978  21.796  0.00  0.00    +0.020 C 
ATOM      9  C   UNL     1      10.533   0.239  24.018  0.00  0.00    +0.020 C 
ENDBRANCH   3   6
BRANCH   1  10
ATOM     10  C   UNL     1       6.466  -3.036  22.343  0.00  0.00    +0.236 C 
ATOM     11  O   UNL     1       5.497  -3.082  21.581  0.00  0.00    -0.285 OA
BRANCH  10  12
ATOM     12  C   UNL     1       7.299  -4.295  22.673  0.00  0.00    +0.130 C 
ATOM     13  N   UNL     1       8.164  -4.032  23.846  0.00  0.00    -0.307 NA
ATOM     14  H   UNL     1       9.093  -4.418  23.668  0.00  0.00    +0.123 HD
ATOM     15  C   UNL     1       7.584  -4.718  25.009  0.00  0.00    +0.081 C 
ATOM     16  C   UNL     1       6.279  -5.346  24.564  0.00  0.00    +0.017 C 
ATOM     17  C   UNL     1       6.435  -5.487  23.064  0.00  0.00    +0.028 C 
ENDBRANCH  10  12
ENDBRANCH   1  10
TORSDOF 3
ENDMDL
MODEL 9
REMARK VINA RESULT:      -5.1      2.234      5.415
REMARK  Name = 
REMARK  6 active torsions:
REMARK  status: ('A' for Active; 'I' for Inactive)
REMARK    1  A    between atoms: C_2  and  C_7
REMARK    2  A    between atoms: C_7  and  C_9
REMARK    3  A    between atoms: C_12  and  C_14
REMARK    4  A    between atoms: C_14  and  C_15
REMARK    5  A    between atoms: C_14  and  C_16
REMARK    6  A    between atoms: C_14  and  C_17
REMARK                            x       y       z     vdW  Elec       q    Type
REMARK                         _______ _______ _______ _____ _____    ______ ____
ROOT
ATOM      1  C   UNL     1       6.692  -2.462  23.842  0.00  0.00    +0.286 A 
ATOM      2  O   UNL     1       7.999  -2.338  23.441  0.00  0.00    -0.417 OA
ATOM      3  C   UNL     1       8.102  -0.986  23.231  0.00  0.00    +0.223 A 
ATOM      4  N   UNL     1       6.978  -0.348  23.493  0.00  0.00    -0.111 NA
ATOM      5  N   UNL     1       6.065  -1.302  23.889  0.00  0.00    -0.104 NA
ENDROOT
BRANCH   3   6
ATOM      6  C   UNL     1       9.423  -0.450  22.757  0.00  0.00    +0.040 C 
ATOM      7  C   UNL     1       9.230   0.355  21.462  0.00  0.00    +0.020 C 
ATOM      8  C   UNL     1      10.397  -1.612  22.500  0.00  0.00    +0.020 C 
ATOM      9  C   UNL     1      10.032   0.476  23.827  0.00  0.00    +0.020 C 
ENDBRANCH   3   6
BRANCH   1  10
ATOM     10  C   UNL     1       6.156  -3.759  24.196  0.00  0.00    +0.236 C 
ATOM     11  O   UNL     1       6.410  -4.323  25.264  0.00  0.00    -0.285 OA
BRANCH  10  12
ATOM     12  C   UNL     1       5.225  -4.400  23.143  0.00  0.00    +0.130 C 
ATOM     13  N   UNL     1       5.603  -3.934  21.788  0.00  0.00    -0.307 NA
ATOM     14  H   UNL     1       4.755  -3.713  21.263  0.00  0.00    +0.123 HD
ATOM     15  C   UNL     1       6.308  -5.026  21.104  0.00  0.00    +0.081 C 
ATOM     16  C   UNL     1       6.451  -6.167  22.093  0.00  0.00    +0.017 C 
ATOM     17  C   UNL     1       5.344  -5.919  23.097  0.00  0.00    +0.028 C 
ENDBRANCH  10  12
ENDBRANCH   1  10
TORSDOF 3
ENDMDL
