MODEL 1
REMARK VINA RESULT:      -5.4      0.000      0.000
REMARK  Name = 
REMARK  0 active torsions:
REMARK  status: ('A' for Active; 'I' for Inactive)
REMARK                            x       y       z     vdW  Elec       q    Type
REMARK                         _______ _______ _______ _____ _____    ______ ____
ROOT
ATOM      1  N   UNL     1      10.417  -5.513  25.652  0.00  0.00    -0.329 N 
ATOM      2  H   UNL     1      10.665  -5.433  26.630  0.00  0.00    +0.145 HD
ATOM      3  H   UNL     1      11.031  -4.982  25.041  0.00  0.00    +0.145 HD
ATOM      4  C   UNL     1       9.112  -5.345  25.333  0.00  0.00    +0.194 A 
ATOM      5  N   UNL     1       8.200  -5.757  26.257  0.00  0.00    -0.295 N 
ATOM      6  H   UNL     1       8.504  -6.207  27.104  0.00  0.00    +0.172 HD
ATOM      7  C   UNL     1       6.842  -5.668  26.078  0.00  0.00    +0.260 A 
ATOM      8  O   UNL     1       6.045  -6.070  26.918  0.00  0.00    -0.267 OA
ATOM      9  C   UNL     1       6.408  -5.058  24.812  0.00  0.00    +0.065 A 
ATOM     10  C   UNL     1       7.408  -4.654  23.923  0.00  0.00    +0.080 A 
ATOM     11  C   UNL     1       7.024  -4.076  22.711  0.00  0.00    +0.028 A 
ATOM     12  C   UNL     1       5.672  -3.903  22.400  0.00  0.00    +0.002 A 
ATOM     13  C   UNL     1       4.686  -4.310  23.301  0.00  0.00    +0.001 A 
ATOM     14  C   UNL     1       5.052  -4.893  24.513  0.00  0.00    +0.015 A 
ATOM     15  N   UNL     1       8.777  -4.808  24.205  0.00  0.00    -0.216 NA
ENDROOT
TORSDOF 0
ENDMDL
MODEL 2
REMARK VINA RESULT:      -5.1      3.423      3.961
REMARK  Name = 
REMARK  0 active torsions:
REMARK  status: ('A' for Active; 'I' for Inactive)
REMARK                            x       y       z     vdW  Elec       q    Type
REMARK                         _______ _______ _______ _____ _____    ______ ____
ROOT
ATOM      1  N   UNL     1       9.745  -5.676  25.597  0.00  0.00    -0.329 N 
ATOM      2  H   UNL     1       9.791  -5.931  26.574  0.00  0.00    +0.145 HD
ATOM      3  H   UNL     1      10.522  -6.040  25.053  0.00  0.00    +0.145 HD
ATOM      4  C   UNL     1       9.487  -4.377  25.311  0.00  0.00    +0.194 A 
ATOM      5  N   UNL     1       8.681  -3.709  26.182  0.00  0.00    -0.295 N 
ATOM      6  H   UNL     1       8.268  -4.192  26.963  0.00  0.00    +0.172 HD
ATOM      7  C   UNL     1       8.316  -2.396  26.027  0.00  0.00    +0.260 A 
ATOM      8  O   UNL     1       7.567  -1.829  26.814  0.00  0.00    -0.267 OA
ATOM      9  C   UNL     1       8.881  -1.716  24.852  0.00  0.00    +0.065 A 
ATOM     10  C   UNL     1       9.706  -2.471  24.013  0.00  0.00    +0.080 A 
ATOM     11  C   UNL     1      10.253  -1.851  22.887  0.00  0.00    +0.028 A 
ATOM     12  C   UNL     1       9.983  -0.507  22.612  0.00  0.00    +0.002 A 
ATOM     13  C   UNL     1       9.159   0.233  23.461  0.00  0.00    +0.001 A 
ATOM     14  C   UNL     1       8.601  -0.372  24.586  0.00  0.00    +0.015 A 
ATOM     15  N   UNL     1      10.003  -3.822  24.263  0.00  0.00    -0.216 NA
ENDROOT
TORSDOF 0
ENDMDL
MODEL 3
REMARK VINA RESULT:      -5.1      6.426      7.353
REMARK  Name = 
REMARK  0 active torsions:
REMARK  status: ('A' for Active; 'I' for Inactive)
REMARK                            x       y       z     vdW  Elec       q    Type
REMARK                         _______ _______ _______ _____ _____    ______ ____
ROOT
ATOM      1  N   UNL     1      11.289   3.822  23.023  0.00  0.00    -0.329 N 
ATOM      2  H   UNL     1      11.757   4.061  22.159  0.00  0.00    +0.145 HD
ATOM      3  H   UNL     1      11.876   3.948  23.842  0.00  0.00    +0.145 HD
ATOM      4  C   UNL     1      10.616   2.647  23.054  0.00  0.00    +0.194 A 
ATOM      5  N   UNL     1      10.045   2.240  21.886  0.00  0.00    -0.295 N 
ATOM      6  H   UNL     1      10.090   2.825  21.068  0.00  0.00    +0.172 HD
ATOM      7  C   UNL     1       9.320   1.082  21.756  0.00  0.00    +0.260 A 
ATOM      8  O   UNL     1       8.796   0.755  20.698  0.00  0.00    -0.267 OA
ATOM      9  C   UNL     1       9.214   0.262  22.972  0.00  0.00    +0.065 A 
ATOM     10  C   UNL     1       9.836   0.747  24.126  0.00  0.00    +0.080 A 
ATOM     11  C   UNL     1       9.747  -0.010  25.297  0.00  0.00    +0.028 A 
ATOM     12  C   UNL     1       9.055  -1.225  25.309  0.00  0.00    +0.002 A 
ATOM     13  C   UNL     1       8.441  -1.696  24.147  0.00  0.00    +0.001 A 
ATOM     14  C   UNL     1       8.516  -0.950  22.972  0.00  0.00    +0.015 A 
ATOM     15  N   UNL     1      10.545   1.961  24.148  0.00  0.00    -0.216 NA
ENDROOT
TORSDOF 0
ENDMDL
MODEL 4
REMARK VINA RESULT:      -5.1      2.217      3.110
REMARK  Name = 
REMARK  0 active torsions:
REMARK  status: ('A' for Active; 'I' for Inactive)
REMARK                            x       y       z     vdW  Elec       q    Type
REMARK                         _______ _______ _______ _____ _____    ______ ____
ROOT
ATOM      1  N   UNL     1       7.951  -5.863  27.072  0.00  0.00    -0.329 N 
ATOM      2  H   UNL     1       7.066  -6.059  27.521  0.00  0.00    +0.145 HD
ATOM      3  H   UNL     1       8.664  -5.540  27.720  0.00  0.00    +0.145 HD
ATOM      4  C   UNL     1       7.917  -5.119  25.940  0.00  0.00    +0.194 A 
ATOM      5  N   UNL     1       6.819  -5.266  25.148  0.00  0.00    -0.295 N 
ATOM      6  H   UNL     1       6.108  -5.937  25.385  0.00  0.00    +0.172 HD
ATOM      7  C   UNL     1       6.640  -4.595  23.964  0.00  0.00    +0.260 A 
ATOM      8  O   UNL     1       5.652  -4.766  23.259  0.00  0.00    -0.267 OA
ATOM      9  C   UNL     1       7.713  -3.656  23.600  0.00  0.00    +0.065 A 
ATOM     10  C   UNL     1       8.799  -3.559  24.473  0.00  0.00    +0.080 A 
ATOM     11  C   UNL     1       9.835  -2.679  24.149  0.00  0.00    +0.028 A 
ATOM     12  C   UNL     1       9.779  -1.912  22.981  0.00  0.00    +0.002 A 
ATOM     13  C   UNL     1       8.684  -2.020  22.121  0.00  0.00    +0.001 A 
ATOM     14  C   UNL     1       7.646  -2.897  22.427  0.00  0.00    +0.015 A 
ATOM     15  N   UNL     1       8.886  -4.310  25.658  0.00  0.00    -0.216 NA
ENDROOT
TORSDOF 0
ENDMDL
MODEL 5
REMARK VINA RESULT:      -5.0      4.894      5.792
REMARK  Name = 
REMARK  0 active torsions:
REMARK  status: ('A' for Active; 'I' for Inactive)
REMARK                            x       y       z     vdW  Elec       q    Type
REMARK                         _______ _______ _______ _____ _____    ______ ____
ROOT
ATOM      1  N   UNL     1       7.683  -3.578  22.587  0.00  0.00    -0.329 N 
ATOM      2  H   UNL     1       7.883  -4.399  23.143  0.00  0.00    +0.145 HD
ATOM      3  H   UNL     1       7.801  -3.733  21.590  0.00  0.00    +0.145 HD
ATOM      4  C   UNL     1       8.239  -2.410  22.990  0.00  0.00    +0.194 A 
ATOM      5  N   UNL     1       8.407  -2.246  24.332  0.00  0.00    -0.295 N 
ATOM      6  H   UNL     1       8.078  -2.948  24.974  0.00  0.00    +0.172 HD
ATOM      7  C   UNL     1       8.942  -1.117  24.899  0.00  0.00    +0.260 A 
ATOM      8  O   UNL     1       9.057  -0.987  26.112  0.00  0.00    -0.267 OA
ATOM      9  C   UNL     1       9.368  -0.074  23.953  0.00  0.00    +0.065 A 
ATOM     10  C   UNL     1       9.169  -0.326  22.593  0.00  0.00    +0.080 A 
ATOM     11  C   UNL     1       9.559   0.650  21.673  0.00  0.00    +0.028 A 
ATOM     12  C   UNL     1      10.140   1.846  22.107  0.00  0.00    +0.002 A 
ATOM     13  C   UNL     1      10.333   2.080  23.469  0.00  0.00    +0.001 A 
ATOM     14  C   UNL     1       9.944   1.119  24.400  0.00  0.00    +0.015 A 
ATOM     15  N   UNL     1       8.594  -1.519  22.123  0.00  0.00    -0.216 NA
ENDROOT
TORSDOF 0
ENDMDL
MODEL 6
REMARK VINA RESULT:      -5.0      1.685      2.697
REMARK  Name = 
REMARK  0 active torsions:
REMARK  status: ('A' for Active; 'I' for Inactive)
REMARK                            x       y       z     vdW  Elec       q    Type
REMARK                         _______ _______ _______ _____ _____    ______ ____
ROOT
ATOM      1  N   UNL     1       6.826  -6.107  28.183  0.00  0.00    -0.329 N 
ATOM      2  H   UNL     1       7.441  -6.843  28.504  0.00  0.00    +0.145 HD
ATOM      3  H   UNL     1       5.846  -6.298  28.368  0.00  0.00    +0.145 HD
ATOM      4  C   UNL     1       7.026  -5.642  26.927  0.00  0.00    +0.194 A 
ATOM      5  N   UNL     1       8.310  -5.642  26.473  0.00  0.00    -0.295 N 
ATOM      6  H   UNL     1       9.062  -5.928  27.078  0.00  0.00    +0.172 HD
ATOM      7  C   UNL     1       8.679  -5.192  25.231  0.00  0.00    +0.260 A 
ATOM      8  O   UNL     1       9.847  -5.180  24.860  0.00  0.00    -0.267 OA
ATOM      9  C   UNL     1       7.578  -4.724  24.374  0.00  0.00    +0.065 A 
ATOM     10  C   UNL     1       6.289  -4.766  24.912  0.00  0.00    +0.080 A 
ATOM     11  C   UNL     1       5.225  -4.322  24.123  0.00  0.00    +0.028 A 
ATOM     12  C   UNL     1       5.449  -3.854  22.825  0.00  0.00    +0.002 A 
ATOM     13  C   UNL     1       6.743  -3.821  22.302  0.00  0.00    +0.001 A 
ATOM     14  C   UNL     1       7.816  -4.254  23.079  0.00  0.00    +0.015 A 
ATOM     15  N   UNL     1       6.028  -5.236  26.211  0.00  0.00    -0.216 NA
ENDROOT
TORSDOF 0
ENDMDL
MODEL 7
REMARK VINA RESULT:      -4.9      4.971      5.896
REMARK  Name = 
REMARK  0 active torsions:
REMARK  status: ('A' for Active; 'I' for Inactive)
REMARK                            x       y       z     vdW  Elec       q    Type
REMARK                         _______ _______ _______ _____ _____    ______ ____
ROOT
ATOM      1  N   UNL     1       9.850   2.165  21.465  0.00  0.00    -0.329 N 
ATOM      2  H   UNL     1       9.856   3.062  21.932  0.00  0.00    +0.145 HD
ATOM      3  H   UNL     1       9.263   2.152  20.636  0.00  0.00    +0.145 HD
ATOM      4  C   UNL     1       9.664   1.070  22.239  0.00  0.00    +0.194 A 
ATOM      5  N   UNL     1      10.163   1.125  23.505  0.00  0.00    -0.295 N 
ATOM      6  H   UNL     1      10.685   1.930  23.810  0.00  0.00    +0.172 HD
ATOM      7  C   UNL     1      10.069   0.095  24.407  0.00  0.00    +0.260 A 
ATOM      8  O   UNL     1      10.550   0.165  25.532  0.00  0.00    -0.267 OA
ATOM      9  C   UNL     1       9.351  -1.098  23.932  0.00  0.00    +0.065 A 
ATOM     10  C   UNL     1       8.863  -1.070  22.623  0.00  0.00    +0.080 A 
ATOM     11  C   UNL     1       8.182  -2.192  22.145  0.00  0.00    +0.028 A 
ATOM     12  C   UNL     1       7.991  -3.312  22.961  0.00  0.00    +0.002 A 
ATOM     13  C   UNL     1       8.484  -3.321  24.267  0.00  0.00    +0.001 A 
ATOM     14  C   UNL     1       9.170  -2.212  24.757  0.00  0.00    +0.015 A 
ATOM     15  N   UNL     1       9.031   0.040  21.778  0.00  0.00    -0.216 NA
ENDROOT
TORSDOF 0
ENDMDL
MODEL 8
REMARK VINA RESULT:      -4.9      5.186      6.036
REMARK  Name = 
REMARK  0 active torsions:
REMARK  status: ('A' for Active; 'I' for Inactive)
REMARK                            x       y       z     vdW  Elec       q    Type
REMARK                         _______ _______ _______ _____ _____    ______ ____
ROOT
ATOM      1  N   UNL     1       8.545  -2.595  26.276  0.00  0.00    -0.329 N 
ATOM      2  H   UNL     1       7.759  -3.222  26.176  0.00  0.00    +0.145 HD
ATOM      3  H   UNL     1       8.540  -2.086  27.155  0.00  0.00    +0.145 HD
ATOM      4  C   UNL     1       8.828  -1.790  25.223  0.00  0.00    +0.194 A 
ATOM      5  N   UNL     1       8.566  -2.291  23.984  0.00  0.00    -0.295 N 
ATOM      6  H   UNL     1       8.229  -3.234  23.879  0.00  0.00    +0.172 HD
ATOM      7  C   UNL     1       8.808  -1.607  22.820  0.00  0.00    +0.260 A 
ATOM      8  O   UNL     1       8.585  -2.095  21.717  0.00  0.00    -0.267 OA
ATOM      9  C   UNL     1       9.352  -0.250  22.983  0.00  0.00    +0.065 A 
ATOM     10  C   UNL     1       9.583   0.191  24.289  0.00  0.00    +0.080 A 
ATOM     11  C   UNL     1      10.104   1.474  24.474  0.00  0.00    +0.028 A 
ATOM     12  C   UNL     1      10.382   2.295  23.376  0.00  0.00    +0.002 A 
ATOM     13  C   UNL     1      10.143   1.838  22.079  0.00  0.00    +0.001 A 
ATOM     14  C   UNL     1       9.628   0.559  21.877  0.00  0.00    +0.015 A 
ATOM     15  N   UNL     1       9.310  -0.605  25.415  0.00  0.00    -0.216 NA
ENDROOT
TORSDOF 0
ENDMDL
MODEL 9
REMARK VINA RESULT:      -4.9      4.823      5.867
REMARK  Name = 
REMARK  0 active torsions:
REMARK  status: ('A' for Active; 'I' for Inactive)
REMARK                            x       y       z     vdW  Elec       q    Type
REMARK                         _______ _______ _______ _____ _____    ______ ____
ROOT
ATOM      1  N   UNL     1       5.790  -2.481  22.524  0.00  0.00    -0.329 N 
ATOM      2  H   UNL     1       5.896  -3.291  21.929  0.00  0.00    +0.145 HD
ATOM      3  H   UNL     1       5.121  -1.807  22.164  0.00  0.00    +0.145 HD
ATOM      4  C   UNL     1       6.926  -1.886  22.961  0.00  0.00    +0.194 A 
ATOM      5  N   UNL     1       7.997  -2.699  23.178  0.00  0.00    -0.295 N 
ATOM      6  H   UNL     1       7.909  -3.695  23.061  0.00  0.00    +0.172 HD
ATOM      7  C   UNL     1       9.212  -2.253  23.632  0.00  0.00    +0.260 A 
ATOM      8  O   UNL     1      10.150  -3.013  23.842  0.00  0.00    -0.267 OA
ATOM      9  C   UNL     1       9.313  -0.802  23.851  0.00  0.00    +0.065 A 
ATOM     10  C   UNL     1       8.171  -0.038  23.597  0.00  0.00    +0.080 A 
ATOM     11  C   UNL     1       8.236   1.343  23.802  0.00  0.00    +0.028 A 
ATOM     12  C   UNL     1       9.419   1.942  24.246  0.00  0.00    +0.002 A 
ATOM     13  C   UNL     1      10.551   1.163  24.493  0.00  0.00    +0.001 A 
ATOM     14  C   UNL     1      10.501  -0.216  24.299  0.00  0.00    +0.015 A 
ATOM     15  N   UNL     1       6.967  -0.606  23.145  0.00  0.00    -0.216 NA
ENDROOT
TORSDOF 0
ENDMDL
