MODEL 1
REMARK VINA RESULT:      -7.1      0.000      0.000
REMARK  Name = 
REMARK  25 active torsions:
REMARK  status: ('A' for Active; 'I' for Inactive)
REMARK    1  A    between atoms: O_1  and  C_2
REMARK    2  A    between atoms: C_2  and  C_3
REMARK    3  A    between atoms: C_6  and  O_8
REMARK    4  A    between atoms: O_8  and  C_9
REMARK    5  A    between atoms: C_11  and  O_13
REMARK    6  A    between atoms: C_14  and  O_16
REMARK    7  A    between atoms: C_17  and  O_19
REMARK    8  A    between atoms: O_19  and  C_20
REMARK    9  A    between atoms: C_22  and  O_24
REMARK   10  A    between atoms: C_25  and  O_27
REMARK   11  A    between atoms: C_28  and  O_30
REMARK   12  A    between atoms: O_30  and  C_31
REMARK   13  A    between atoms: C_33  and  O_35
REMARK   14  A    between atoms: C_36  and  O_38
REMARK   15  A    between atoms: C_39  and  O_40
REMARK   16  A    between atoms: C_39  and  O_41
REMARK   17  A    between atoms: C_43  and  C_45
REMARK   18  A    between atoms: C_45  and  O_46
REMARK   19  A    between atoms: C_48  and  C_50
REMARK   20  A    between atoms: C_50  and  O_51
REMARK   21  A    between atoms: C_53  and  C_55
REMARK   22  A    between atoms: C_55  and  O_56
REMARK   23  A    between atoms: C_57  and  O_59
REMARK   24  A    between atoms: C_60  and  O_62
REMARK   25  A    between atoms: C_63  and  O_65
REMARK                            x       y       z     vdW  Elec       q    Type
REMARK                         _______ _______ _______ _____ _____    ______ ____
ROOT
ATOM      1  C   UNL     1       7.607  -4.526  23.846  0.00  0.00    +0.183 C 
ATOM      2  C   UNL     1       6.696  -5.490  23.058  0.00  0.00    +0.178 C 
ATOM      3  O   UNL     1       5.352  -5.005  23.091  0.00  0.00    -0.341 OA
ATOM      4  C   UNL     1       4.809  -4.700  24.373  0.00  0.00    +0.282 C 
ATOM      5  C   UNL     1       5.710  -3.910  25.335  0.00  0.00    +0.201 C 
ATOM      6  C   UNL     1       7.144  -4.445  25.304  0.00  0.00    +0.179 C 
ENDROOT
BRANCH   6   7
ATOM      7  O   UNL     1       7.283  -5.682  26.007  0.00  0.00    -0.386 OA
ATOM      8  H   UNL     1       8.165  -5.768  26.408  0.00  0.00    +0.210 HD
ENDBRANCH   6   7
BRANCH   5   9
ATOM      9  O   UNL     1       5.637  -2.521  24.977  0.00  0.00    -0.384 OA
ATOM     10  H   UNL     1       5.024  -2.092  25.611  0.00  0.00    +0.210 HD
ENDBRANCH   5   9
BRANCH   4  11
ATOM     11  O   UNL     1       4.275  -5.866  24.984  0.00  0.00    -0.340 OA
BRANCH  11  12
ATOM     12  C   UNL     1       2.984  -5.675  25.608  0.00  0.00    +0.184 C 
ATOM     13  C   UNL     1       2.908  -6.603  26.833  0.00  0.00    +0.183 C 
ATOM     14  O   UNL     1       2.984  -7.980  26.424  0.00  0.00    -0.297 OA
ATOM     15  C   UNL     1       1.914  -8.379  25.558  0.00  0.00    +0.391 C 
ATOM     16  C   UNL     1       1.885  -7.498  24.276  0.00  0.00    +0.262 C 
ATOM     17  C   UNL     1       1.803  -6.015  24.673  0.00  0.00    +0.185 C 
BRANCH  17  18
ATOM     18  O   UNL     1       0.551  -5.750  25.318  0.00  0.00    -0.386 OA
ATOM     19  H   UNL     1       0.705  -5.749  26.283  0.00  0.00    +0.210 HD
ENDBRANCH  17  18
BRANCH  16  20
ATOM     20  O   UNL     1       3.047  -7.800  23.475  0.00  0.00    -0.379 OA
ATOM     21  H   UNL     1       2.998  -7.227  22.671  0.00  0.00    +0.210 HD
ENDBRANCH  16  20
BRANCH  15  22
ATOM     22  O   UNL     1       2.171  -9.715  25.141  0.00  0.00    -0.482 OA
ATOM     23  H   UNL     1       2.018  -9.732  24.179  0.00  0.00    +0.290 HD
ENDBRANCH  15  22
BRANCH  15  24
ATOM     24  O   UNL     1       0.674  -8.349  26.233  0.00  0.00    -0.482 OA
ATOM     25  H   UNL     1       0.603  -7.476  26.668  0.00  0.00    +0.290 HD
ENDBRANCH  15  24
BRANCH  13  26
ATOM     26  C   UNL     1       4.071  -6.336  27.795  0.00  0.00    +0.190 C 
BRANCH  26  27
ATOM     27  O   UNL     1       5.140  -7.237  27.520  0.00  0.00    -0.392 OA
ATOM     28  H   UNL     1       5.933  -6.676  27.407  0.00  0.00    +0.210 HD
ENDBRANCH  26  27
ENDBRANCH  13  26
ENDBRANCH  11  12
ENDBRANCH   4  11
BRANCH   2  29
ATOM     29  C   UNL     1       7.081  -5.597  21.575  0.00  0.00    +0.190 C 
BRANCH  29  30
ATOM     30  O   UNL     1       5.953  -5.311  20.750  0.00  0.00    -0.392 OA
ATOM     31  H   UNL     1       5.169  -5.573  21.271  0.00  0.00    +0.210 HD
ENDBRANCH  29  30
ENDBRANCH   2  29
BRANCH   1  32
ATOM     32  O   UNL     1       7.521  -3.216  23.210  0.00  0.00    -0.340 OA
BRANCH  32  36
ATOM     33  C   UNL     1       8.122   0.182  23.930  0.00  0.00    +0.183 C 
ATOM     34  C   UNL     1       8.483  -1.022  24.875  0.00  0.00    +0.178 C 
ATOM     35  O   UNL     1       9.297  -2.046  24.263  0.00  0.00    -0.341 OA
ATOM     36  C   UNL     1       8.779  -2.558  23.023  0.00  0.00    +0.282 C 
ATOM     37  C   UNL     1       8.706  -1.405  22.047  0.00  0.00    +0.201 C 
ATOM     38  C   UNL     1       7.660  -0.405  22.588  0.00  0.00    +0.179 C 
BRANCH  38  39
ATOM     39  O   UNL     1       6.349  -0.959  22.771  0.00  0.00    -0.386 OA
ATOM     40  H   UNL     1       6.366  -1.869  22.428  0.00  0.00    +0.210 HD
ENDBRANCH  38  39
BRANCH  37  41
ATOM     41  O   UNL     1      10.047  -0.903  21.937  0.00  0.00    -0.384 OA
ATOM     42  H   UNL     1      10.090  -0.373  21.118  0.00  0.00    +0.210 HD
ENDBRANCH  37  41
BRANCH  34  43
ATOM     43  C   UNL     1       9.193  -0.652  26.175  0.00  0.00    +0.190 C 
BRANCH  43  44
ATOM     44  O   UNL     1       8.273   0.059  27.019  0.00  0.00    -0.392 OA
ATOM     45  H   UNL     1       8.407   1.009  26.823  0.00  0.00    +0.210 HD
ENDBRANCH  43  44
ENDBRANCH  34  43
BRANCH  33  46
ATOM     46  O   UNL     1       9.173   1.155  23.713  0.00  0.00    -0.340 OA
BRANCH  46  51
ATOM     47  C   UNL     1       6.595   2.564  24.175  0.00  0.00    +0.178 C 
ATOM     48  C   UNL     1       6.715   3.848  23.360  0.00  0.00    +0.177 C 
ATOM     49  C   UNL     1       8.126   3.960  22.756  0.00  0.00    +0.179 C 
ATOM     50  C   UNL     1       9.242   3.632  23.753  0.00  0.00    +0.201 C 
ATOM     51  C   UNL     1       8.960   2.347  24.538  0.00  0.00    +0.282 C 
ATOM     52  O   UNL     1       7.662   2.458  25.123  0.00  0.00    -0.341 OA
BRANCH  50  53
ATOM     53  O   UNL     1      10.493   3.557  23.054  0.00  0.00    -0.384 OA
ATOM     54  H   UNL     1      10.903   4.440  23.129  0.00  0.00    +0.210 HD
ENDBRANCH  50  53
BRANCH  49  55
ATOM     55  O   UNL     1       8.326   5.298  22.269  0.00  0.00    -0.386 OA
ATOM     56  H   UNL     1       7.462   5.601  21.929  0.00  0.00    +0.210 HD
ENDBRANCH  49  55
BRANCH  48  57
ATOM     57  O   UNL     1       5.729   3.835  22.304  0.00  0.00    -0.386 OA
ATOM     58  H   UNL     1       5.233   3.005  22.367  0.00  0.00    +0.210 HD
ENDBRANCH  48  57
BRANCH  47  59
ATOM     59  C   UNL     1       5.227   2.429  24.871  0.00  0.00    +0.190 C 
BRANCH  59  60
ATOM     60  O   UNL     1       4.189   2.211  23.905  0.00  0.00    -0.392 OA
ATOM     61  H   UNL     1       4.615   1.845  23.108  0.00  0.00    +0.210 HD
ENDBRANCH  59  60
ENDBRANCH  47  59
ENDBRANCH  46  51
ENDBRANCH  33  46
ENDBRANCH  32  36
ENDBRANCH   1  32
TORSDOF 25
ENDMDL
MODEL 2
REMARK VINA RESULT:      -6.8      1.744      3.203
REMARK  Name = 
REMARK  25 active torsions:
REMARK  status: ('A' for Active; 'I' for Inactive)
REMARK    1  A    between atoms: O_1  and  C_2
REMARK    2  A    between atoms: C_2  and  C_3
REMARK    3  A    between atoms: C_6  and  O_8
REMARK    4  A    between atoms: O_8  and  C_9
REMARK    5  A    between atoms: C_11  and  O_13
REMARK    6  A    between atoms: C_14  and  O_16
REMARK    7  A    between atoms: C_17  and  O_19
REMARK    8  A    between atoms: O_19  and  C_20
REMARK    9  A    between atoms: C_22  and  O_24
REMARK   10  A    between atoms: C_25  and  O_27
REMARK   11  A    between atoms: C_28  and  O_30
REMARK   12  A    between atoms: O_30  and  C_31
REMARK   13  A    between atoms: C_33  and  O_35
REMARK   14  A    between atoms: C_36  and  O_38
REMARK   15  A    between atoms: C_39  and  O_40
REMARK   16  A    between atoms: C_39  and  O_41
REMARK   17  A    between atoms: C_43  and  C_45
REMARK   18  A    between atoms: C_45  and  O_46
REMARK   19  A    between atoms: C_48  and  C_50
REMARK   20  A    between atoms: C_50  and  O_51
REMARK   21  A    between atoms: C_53  and  C_55
REMARK   22  A    between atoms: C_55  and  O_56
REMARK   23  A    between atoms: C_57  and  O_59
REMARK   24  A    between atoms: C_60  and  O_62
REMARK   25  A    between atoms: C_63  and  O_65
REMARK                            x       y       z     vdW  Elec       q    Type
REMARK                         _______ _______ _______ _____ _____    ______ ____
ROOT
ATOM      1  C   UNL     1       7.793  -2.994  26.271  0.00  0.00    +0.183 C 
ATOM      2  C   UNL     1       7.975  -4.400  25.663  0.00  0.00    +0.178 C 
ATOM      3  O   UNL     1       7.137  -4.530  24.512  0.00  0.00    -0.341 OA
ATOM      4  C   UNL     1       5.759  -4.204  24.679  0.00  0.00    +0.282 C 
ATOM      5  C   UNL     1       5.443  -2.916  25.456  0.00  0.00    +0.201 C 
ATOM      6  C   UNL     1       6.335  -2.792  26.694  0.00  0.00    +0.179 C 
ENDROOT
BRANCH   6   7
ATOM      7  O   UNL     1       5.931  -3.665  27.751  0.00  0.00    -0.386 OA
ATOM      8  H   UNL     1       6.542  -3.619  28.507  0.00  0.00    +0.210 HD
ENDBRANCH   6   7
BRANCH   5   9
ATOM      9  O   UNL     1       5.594  -1.804  24.560  0.00  0.00    -0.384 OA
ATOM     10  H   UNL     1       4.697  -1.560  24.249  0.00  0.00    +0.210 HD
ENDBRANCH   5   9
BRANCH   4  11
ATOM     11  O   UNL     1       5.036  -5.318  25.183  0.00  0.00    -0.340 OA
BRANCH  11  12
ATOM     12  C   UNL     1       3.655  -5.034  25.508  0.00  0.00    +0.184 C 
ATOM     13  C   UNL     1       3.104  -6.226  26.313  0.00  0.00    +0.183 C 
ATOM     14  O   UNL     1       3.117  -7.421  25.512  0.00  0.00    -0.297 OA
ATOM     15  C   UNL     1       2.305  -7.328  24.335  0.00  0.00    +0.391 C 
ATOM     16  C   UNL     1       2.766  -6.143  23.439  0.00  0.00    +0.262 C 
ATOM     17  C   UNL     1       2.764  -4.845  24.261  0.00  0.00    +0.185 C 
BRANCH  17  18
ATOM     18  O   UNL     1       1.424  -4.507  24.640  0.00  0.00    -0.386 OA
ATOM     19  H   UNL     1       1.143  -5.132  25.336  0.00  0.00    +0.210 HD
ENDBRANCH  17  18
BRANCH  16  20
ATOM     20  O   UNL     1       4.062  -6.454  22.884  0.00  0.00    -0.379 OA
ATOM     21  H   UNL     1       4.735  -6.155  23.542  0.00  0.00    +0.210 HD
ENDBRANCH  16  20
BRANCH  15  22
ATOM     22  O   UNL     1       2.496  -8.521  23.583  0.00  0.00    -0.482 OA
ATOM     23  H   UNL     1       1.972  -9.210  24.031  0.00  0.00    +0.290 HD
ENDBRANCH  15  22
BRANCH  15  24
ATOM     24  O   UNL     1       0.936  -7.221  24.668  0.00  0.00    -0.482 OA
ATOM     25  H   UNL     1       0.876  -6.657  25.465  0.00  0.00    +0.290 HD
ENDBRANCH  15  24
BRANCH  13  26
ATOM     26  C   UNL     1       3.960  -6.488  27.557  0.00  0.00    +0.190 C 
BRANCH  26  27
ATOM     27  O   UNL     1       5.092  -7.280  27.206  0.00  0.00    -0.392 OA
ATOM     28  H   UNL     1       5.365  -7.727  28.031  0.00  0.00    +0.210 HD
ENDBRANCH  26  27
ENDBRANCH  13  26
ENDBRANCH  11  12
ENDBRANCH   4  11
BRANCH   2  29
ATOM     29  C   UNL     1       9.411  -4.663  25.185  0.00  0.00    +0.190 C 
BRANCH  29  30
ATOM     30  O   UNL     1       9.783  -6.012  25.462  0.00  0.00    -0.392 OA
ATOM     31  H   UNL     1       9.382  -6.227  26.326  0.00  0.00    +0.210 HD
ENDBRANCH  29  30
ENDBRANCH   2  29
BRANCH   1  32
ATOM     32  O   UNL     1       8.169  -2.019  25.254  0.00  0.00    -0.340 OA
BRANCH  32  36
ATOM     33  C   UNL     1       7.792   1.410  24.526  0.00  0.00    +0.183 C 
ATOM     34  C   UNL     1       7.339   0.712  25.859  0.00  0.00    +0.178 C 
ATOM     35  O   UNL     1       8.376  -0.032  26.535  0.00  0.00    -0.341 OA
ATOM     36  C   UNL     1       9.057  -0.992  25.707  0.00  0.00    +0.282 C 
ATOM     37  C   UNL     1       9.716  -0.234  24.577  0.00  0.00    +0.201 C 
ATOM     38  C   UNL     1       8.591   0.380  23.713  0.00  0.00    +0.179 C 
BRANCH  38  39
ATOM     39  O   UNL     1       7.668  -0.577  23.173  0.00  0.00    -0.386 OA
ATOM     40  H   UNL     1       7.667  -0.469  22.207  0.00  0.00    +0.210 HD
ENDBRANCH  38  39
BRANCH  37  41
ATOM     41  O   UNL     1      10.603   0.705  25.202  0.00  0.00    -0.384 OA
ATOM     42  H   UNL     1      10.550   0.554  26.166  0.00  0.00    +0.210 HD
ENDBRANCH  37  41
BRANCH  34  43
ATOM     43  C   UNL     1       6.737   1.634  26.917  0.00  0.00    +0.190 C 
BRANCH  43  44
ATOM     44  O   UNL     1       6.110   2.746  26.258  0.00  0.00    -0.392 OA
ATOM     45  H   UNL     1       6.838   3.333  25.969  0.00  0.00    +0.210 HD
ENDBRANCH  43  44
ENDBRANCH  34  43
BRANCH  33  46
ATOM     46  O   UNL     1       8.559   2.629  24.678  0.00  0.00    -0.340 OA
BRANCH  46  51
ATOM     47  C   UNL     1      10.750   4.420  23.760  0.00  0.00    +0.178 C 
ATOM     48  C   UNL     1      10.173   5.825  23.900  0.00  0.00    +0.177 C 
ATOM     49  C   UNL     1       8.693   5.749  24.315  0.00  0.00    +0.179 C 
ATOM     50  C   UNL     1       7.889   4.716  23.519  0.00  0.00    +0.201 C 
ATOM     51  C   UNL     1       8.616   3.371  23.416  0.00  0.00    +0.282 C 
ATOM     52  O   UNL     1       9.930   3.612  22.910  0.00  0.00    -0.341 OA
BRANCH  50  53
ATOM     53  O   UNL     1       6.592   4.567  24.113  0.00  0.00    -0.384 OA
ATOM     54  H   UNL     1       5.948   4.609  23.380  0.00  0.00    +0.210 HD
ENDBRANCH  50  53
BRANCH  49  55
ATOM     55  O   UNL     1       8.085   7.039  24.135  0.00  0.00    -0.386 OA
ATOM     56  H   UNL     1       7.464   7.160  24.879  0.00  0.00    +0.210 HD
ENDBRANCH  49  55
BRANCH  48  57
ATOM     57  O   UNL     1      10.925   6.552  24.896  0.00  0.00    -0.386 OA
ATOM     58  H   UNL     1      10.751   6.145  25.759  0.00  0.00    +0.210 HD
ENDBRANCH  48  57
BRANCH  47  59
ATOM     59  C   UNL     1      12.211   4.424  23.271  0.00  0.00    +0.190 C 
BRANCH  59  60
ATOM     60  O   UNL     1      12.408   5.444  22.281  0.00  0.00    -0.392 OA
ATOM     61  H   UNL     1      13.368   5.594  22.215  0.00  0.00    +0.210 HD
ENDBRANCH  59  60
ENDBRANCH  47  59
ENDBRANCH  46  51
ENDBRANCH  33  46
ENDBRANCH  32  36
ENDBRANCH   1  32
TORSDOF 25
ENDMDL
MODEL 3
REMARK VINA RESULT:      -6.5      1.847      2.792
REMARK  Name = 
REMARK  25 active torsions:
REMARK  status: ('A' for Active; 'I' for Inactive)
REMARK    1  A    between atoms: O_1  and  C_2
REMARK    2  A    between atoms: C_2  and  C_3
REMARK    3  A    between atoms: C_6  and  O_8
REMARK    4  A    between atoms: O_8  and  C_9
REMARK    5  A    between atoms: C_11  and  O_13
REMARK    6  A    between atoms: C_14  and  O_16
REMARK    7  A    between atoms: C_17  and  O_19
REMARK    8  A    between atoms: O_19  and  C_20
REMARK    9  A    between atoms: C_22  and  O_24
REMARK   10  A    between atoms: C_25  and  O_27
REMARK   11  A    between atoms: C_28  and  O_30
REMARK   12  A    between atoms: O_30  and  C_31
REMARK   13  A    between atoms: C_33  and  O_35
REMARK   14  A    between atoms: C_36  and  O_38
REMARK   15  A    between atoms: C_39  and  O_40
REMARK   16  A    between atoms: C_39  and  O_41
REMARK   17  A    between atoms: C_43  and  C_45
REMARK   18  A    between atoms: C_45  and  O_46
REMARK   19  A    between atoms: C_48  and  C_50
REMARK   20  A    between atoms: C_50  and  O_51
REMARK   21  A    between atoms: C_53  and  C_55
REMARK   22  A    between atoms: C_55  and  O_56
REMARK   23  A    between atoms: C_57  and  O_59
REMARK   24  A    between atoms: C_60  and  O_62
REMARK   25  A    between atoms: C_63  and  O_65
REMARK                            x       y       z     vdW  Elec       q    Type
REMARK                         _______ _______ _______ _____ _____    ______ ____
ROOT
ATOM      1  C   UNL     1       7.164  -3.114  25.943  0.00  0.00    +0.183 C 
ATOM      2  C   UNL     1       7.077  -4.317  24.981  0.00  0.00    +0.178 C 
ATOM      3  O   UNL     1       5.952  -4.151  24.115  0.00  0.00    -0.341 OA
ATOM      4  C   UNL     1       4.696  -3.883  24.736  0.00  0.00    +0.282 C 
ATOM      5  C   UNL     1       4.692  -2.838  25.863  0.00  0.00    +0.201 C 
ATOM      6  C   UNL     1       5.892  -3.031  26.793  0.00  0.00    +0.179 C 
ENDROOT
BRANCH   6   7
ATOM      7  O   UNL     1       5.731  -4.147  27.671  0.00  0.00    -0.386 OA
ATOM      8  H   UNL     1       4.819  -4.213  28.002  0.00  0.00    +0.210 HD
ENDBRANCH   6   7
BRANCH   5   9
ATOM      9  O   UNL     1       4.670  -1.533  25.263  0.00  0.00    -0.384 OA
ATOM     10  H   UNL     1       5.427  -1.490  24.640  0.00  0.00    +0.210 HD
ENDBRANCH   5   9
BRANCH   4  11
ATOM     11  O   UNL     1       4.062  -5.091  25.130  0.00  0.00    -0.340 OA
BRANCH  11  12
ATOM     12  C   UNL     1       2.642  -5.134  24.861  0.00  0.00    +0.184 C 
ATOM     13  C   UNL     1       1.953  -5.815  26.058  0.00  0.00    +0.183 C 
ATOM     14  O   UNL     1       2.404  -7.175  26.188  0.00  0.00    -0.297 OA
ATOM     15  C   UNL     1       2.107  -7.988  25.045  0.00  0.00    +0.391 C 
ATOM     16  C   UNL     1       2.750  -7.388  23.761  0.00  0.00    +0.262 C 
ATOM     17  C   UNL     1       2.290  -5.933  23.586  0.00  0.00    +0.185 C 
BRANCH  17  18
ATOM     18  O   UNL     1       0.880  -5.891  23.333  0.00  0.00    -0.386 OA
ATOM     19  H   UNL     1       0.696  -5.103  22.785  0.00  0.00    +0.210 HD
ENDBRANCH  17  18
BRANCH  16  20
ATOM     20  O   UNL     1       4.185  -7.516  23.853  0.00  0.00    -0.379 OA
ATOM     21  H   UNL     1       4.368  -8.347  24.354  0.00  0.00    +0.210 HD
ENDBRANCH  16  20
BRANCH  15  22
ATOM     22  O   UNL     1       2.702  -9.263  25.255  0.00  0.00    -0.482 OA
ATOM     23  H   UNL     1       2.193  -9.684  25.971  0.00  0.00    +0.290 HD
ENDBRANCH  15  22
BRANCH  15  24
ATOM     24  O   UNL     1       0.714  -8.161  24.891  0.00  0.00    -0.482 OA
ATOM     25  H   UNL     1       0.415  -8.750  25.612  0.00  0.00    +0.290 HD
ENDBRANCH  15  24
BRANCH  13  26
ATOM     26  C   UNL     1       2.282  -5.086  27.365  0.00  0.00    +0.190 C 
BRANCH  26  27
ATOM     27  O   UNL     1       3.433  -5.672  27.967  0.00  0.00    -0.392 OA
ATOM     28  H   UNL     1       3.523  -5.238  28.839  0.00  0.00    +0.210 HD
ENDBRANCH  26  27
ENDBRANCH  13  26
ENDBRANCH  11  12
ENDBRANCH   4  11
BRANCH   2  29
ATOM     29  C   UNL     1       8.308  -4.444  24.071  0.00  0.00    +0.190 C 
BRANCH  29  30
ATOM     30  O   UNL     1       9.195  -5.440  24.578  0.00  0.00    -0.392 OA
ATOM     31  H   UNL     1       9.657  -5.026  25.332  0.00  0.00    +0.210 HD
ENDBRANCH  29  30
ENDBRANCH   2  29
BRANCH   1  32
ATOM     32  O   UNL     1       7.315  -1.910  25.134  0.00  0.00    -0.340 OA
BRANCH  32  36
ATOM     33  C   UNL     1       6.823   1.571  25.405  0.00  0.00    +0.183 C 
ATOM     34  C   UNL     1       6.691   0.542  26.587  0.00  0.00    +0.178 C 
ATOM     35  O   UNL     1       7.849  -0.296  26.790  0.00  0.00    -0.341 OA
ATOM     36  C   UNL     1       8.300  -0.987  25.612  0.00  0.00    +0.282 C 
ATOM     37  C   UNL     1       8.682   0.058  24.588  0.00  0.00    +0.201 C 
ATOM     38  C   UNL     1       7.392   0.814  24.195  0.00  0.00    +0.179 C 
BRANCH  38  39
ATOM     39  O   UNL     1       6.354  -0.020  23.662  0.00  0.00    -0.386 OA
ATOM     40  H   UNL     1       6.524  -0.126  22.711  0.00  0.00    +0.210 HD
ENDBRANCH  38  39
BRANCH  37  41
ATOM     41  O   UNL     1       9.705   0.854  25.206  0.00  0.00    -0.384 OA
ATOM     42  H   UNL     1      10.047   0.344  25.966  0.00  0.00    +0.210 HD
ENDBRANCH  37  41
BRANCH  34  43
ATOM     43  C   UNL     1       6.371   1.143  27.954  0.00  0.00    +0.190 C 
BRANCH  43  44
ATOM     44  O   UNL     1       7.521   1.864  28.423  0.00  0.00    -0.392 OA
ATOM     45  H   UNL     1       7.524   1.762  29.397  0.00  0.00    +0.210 HD
ENDBRANCH  43  44
ENDBRANCH  34  43
BRANCH  33  46
ATOM     46  O   UNL     1       7.622   2.749  25.677  0.00  0.00    -0.340 OA
BRANCH  46  51
ATOM     47  C   UNL     1       7.729   4.625  23.372  0.00  0.00    +0.178 C 
ATOM     48  C   UNL     1       8.448   5.855  23.918  0.00  0.00    +0.177 C 
ATOM     49  C   UNL     1       8.699   5.691  25.428  0.00  0.00    +0.179 C 
ATOM     50  C   UNL     1       7.480   5.169  26.195  0.00  0.00    +0.201 C 
ATOM     51  C   UNL     1       6.829   3.968  25.500  0.00  0.00    +0.282 C 
ATOM     52  O   UNL     1       6.561   4.329  24.144  0.00  0.00    -0.341 OA
BRANCH  50  53
ATOM     53  O   UNL     1       7.869   4.851  27.539  0.00  0.00    -0.384 OA
ATOM     54  H   UNL     1       7.070   4.502  27.980  0.00  0.00    +0.210 HD
ENDBRANCH  50  53
BRANCH  49  55
ATOM     55  O   UNL     1       9.078   6.962  25.983  0.00  0.00    -0.386 OA
ATOM     56  H   UNL     1      10.052   6.951  26.061  0.00  0.00    +0.210 HD
ENDBRANCH  49  55
BRANCH  48  57
ATOM     57  O   UNL     1       9.706   6.017  23.227  0.00  0.00    -0.386 OA
ATOM     58  H   UNL     1       9.733   6.914  22.862  0.00  0.00    +0.210 HD
ENDBRANCH  48  57
BRANCH  47  59
ATOM     59  C   UNL     1       7.379   4.758  21.877  0.00  0.00    +0.190 C 
BRANCH  59  60
ATOM     60  O   UNL     1       7.503   6.121  21.449  0.00  0.00    -0.392 OA
ATOM     61  H   UNL     1       7.101   6.180  20.564  0.00  0.00    +0.210 HD
ENDBRANCH  59  60
ENDBRANCH  47  59
ENDBRANCH  46  51
ENDBRANCH  33  46
ENDBRANCH  32  36
ENDBRANCH   1  32
TORSDOF 25
ENDMDL
MODEL 4
REMARK VINA RESULT:      -6.3      1.713     10.288
REMARK  Name = 
REMARK  25 active torsions:
REMARK  status: ('A' for Active; 'I' for Inactive)
REMARK    1  A    between atoms: O_1  and  C_2
REMARK    2  A    between atoms: C_2  and  C_3
REMARK    3  A    between atoms: C_6  and  O_8
REMARK    4  A    between atoms: O_8  and  C_9
REMARK    5  A    between atoms: C_11  and  O_13
REMARK    6  A    between atoms: C_14  and  O_16
REMARK    7  A    between atoms: C_17  and  O_19
REMARK    8  A    between atoms: O_19  and  C_20
REMARK    9  A    between atoms: C_22  and  O_24
REMARK   10  A    between atoms: C_25  and  O_27
REMARK   11  A    between atoms: C_28  and  O_30
REMARK   12  A    between atoms: O_30  and  C_31
REMARK   13  A    between atoms: C_33  and  O_35
REMARK   14  A    between atoms: C_36  and  O_38
REMARK   15  A    between atoms: C_39  and  O_40
REMARK   16  A    between atoms: C_39  and  O_41
REMARK   17  A    between atoms: C_43  and  C_45
REMARK   18  A    between atoms: C_45  and  O_46
REMARK   19  A    between atoms: C_48  and  C_50
REMARK   20  A    between atoms: C_50  and  O_51
REMARK   21  A    between atoms: C_53  and  C_55
REMARK   22  A    between atoms: C_55  and  O_56
REMARK   23  A    between atoms: C_57  and  O_59
REMARK   24  A    between atoms: C_60  and  O_62
REMARK   25  A    between atoms: C_63  and  O_65
REMARK                            x       y       z     vdW  Elec       q    Type
REMARK                         _______ _______ _______ _____ _____    ______ ____
ROOT
ATOM      1  C   UNL     1       7.532  -1.504  25.822  0.00  0.00    +0.183 C 
ATOM      2  C   UNL     1       7.169  -0.142  26.449  0.00  0.00    +0.178 C 
ATOM      3  O   UNL     1       6.413   0.625  25.509  0.00  0.00    -0.341 OA
ATOM      4  C   UNL     1       6.971   0.778  24.206  0.00  0.00    +0.282 C 
ATOM      5  C   UNL     1       7.556  -0.483  23.552  0.00  0.00    +0.201 C 
ATOM      6  C   UNL     1       8.376  -1.292  24.562  0.00  0.00    +0.179 C 
ENDROOT
BRANCH   6   7
ATOM      7  O   UNL     1       9.649  -0.701  24.832  0.00  0.00    -0.386 OA
ATOM      8  H   UNL     1      10.013  -1.007  25.681  0.00  0.00    +0.210 HD
ENDBRANCH   6   7
BRANCH   5   9
ATOM      9  O   UNL     1       6.472  -1.243  22.996  0.00  0.00    -0.384 OA
ATOM     10  H   UNL     1       5.856  -1.447  23.731  0.00  0.00    +0.210 HD
ENDBRANCH   5   9
BRANCH   4  11
ATOM     11  O   UNL     1       7.885   1.865  24.175  0.00  0.00    -0.340 OA
BRANCH  11  12
ATOM     12  C   UNL     1       7.833   2.653  22.963  0.00  0.00    +0.184 C 
ATOM     13  C   UNL     1       9.269   3.089  22.619  0.00  0.00    +0.183 C 
ATOM     14  O   UNL     1       9.798   3.935  23.656  0.00  0.00    -0.297 OA
ATOM     15  C   UNL     1       9.050   5.144  23.844  0.00  0.00    +0.391 C 
ATOM     16  C   UNL     1       7.567   4.827  24.191  0.00  0.00    +0.262 C 
ATOM     17  C   UNL     1       6.966   3.924  23.103  0.00  0.00    +0.185 C 
BRANCH  17  18
ATOM     18  O   UNL     1       6.898   4.633  21.860  0.00  0.00    -0.386 OA
ATOM     19  H   UNL     1       7.778   4.583  21.438  0.00  0.00    +0.210 HD
ENDBRANCH  17  18
BRANCH  16  20
ATOM     20  O   UNL     1       7.512   4.234  25.506  0.00  0.00    -0.379 OA
ATOM     21  H   UNL     1       7.926   3.340  25.435  0.00  0.00    +0.210 HD
ENDBRANCH  16  20
BRANCH  15  22
ATOM     22  O   UNL     1       9.606   5.825  24.962  0.00  0.00    -0.482 OA
ATOM     23  H   UNL     1      10.009   5.139  25.524  0.00  0.00    +0.290 HD
ENDBRANCH  15  22
BRANCH  15  24
ATOM     24  O   UNL     1       9.147   5.983  22.712  0.00  0.00    -0.482 OA
ATOM     25  H   UNL     1      10.010   5.801  22.290  0.00  0.00    +0.290 HD
ENDBRANCH  15  24
BRANCH  13  26
ATOM     26  C   UNL     1      10.193   1.873  22.490  0.00  0.00    +0.190 C 
BRANCH  26  27
ATOM     27  O   UNL     1      10.791   1.587  23.751  0.00  0.00    -0.392 OA
ATOM     28  H   UNL     1      11.750   1.724  23.624  0.00  0.00    +0.210 HD
ENDBRANCH  26  27
ENDBRANCH  13  26
ENDBRANCH  11  12
ENDBRANCH   4  11
BRANCH   2  29
ATOM     29  C   UNL     1       6.293  -0.276  27.703  0.00  0.00    +0.190 C 
BRANCH  29  30
ATOM     30  O   UNL     1       4.917  -0.361  27.336  0.00  0.00    -0.392 OA
ATOM     31  H   UNL     1       4.426   0.113  28.035  0.00  0.00    +0.210 HD
ENDBRANCH  29  30
ENDBRANCH   2  29
BRANCH   1  32
ATOM     32  O   UNL     1       6.286  -2.186  25.492  0.00  0.00    -0.340 OA
BRANCH  32  36
ATOM     33  C   UNL     1       3.716  -4.392  24.512  0.00  0.00    +0.183 C 
ATOM     34  C   UNL     1       5.057  -4.156  23.725  0.00  0.00    +0.178 C 
ATOM     35  O   UNL     1       6.257  -4.345  24.507  0.00  0.00    -0.341 OA
ATOM     36  C   UNL     1       6.292  -3.597  25.735  0.00  0.00    +0.282 C 
ATOM     37  C   UNL     1       5.130  -4.059  26.585  0.00  0.00    +0.201 C 
ATOM     38  C   UNL     1       3.831  -3.653  25.853  0.00  0.00    +0.179 C 
BRANCH  38  39
ATOM     39  O   UNL     1       3.708  -2.246  25.600  0.00  0.00    -0.386 OA
ATOM     40  H   UNL     1       4.156  -1.778  26.325  0.00  0.00    +0.210 HD
ENDBRANCH  38  39
BRANCH  37  41
ATOM     41  O   UNL     1       5.322  -5.469  26.774  0.00  0.00    -0.384 OA
ATOM     42  H   UNL     1       6.071  -5.578  27.392  0.00  0.00    +0.210 HD
ENDBRANCH  37  41
BRANCH  34  43
ATOM     43  C   UNL     1       5.245  -5.004  22.469  0.00  0.00    +0.190 C 
BRANCH  43  44
ATOM     44  O   UNL     1       5.165  -6.392  22.832  0.00  0.00    -0.392 OA
ATOM     45  H   UNL     1       4.249  -6.535  23.151  0.00  0.00    +0.210 HD
ENDBRANCH  43  44
ENDBRANCH  34  43
BRANCH  33  46
ATOM     46  O   UNL     1       3.347  -5.775  24.734  0.00  0.00    -0.340 OA
BRANCH  46  51
ATOM     47  C   UNL     1       1.711  -7.854  26.096  0.00  0.00    +0.178 C 
ATOM     48  C   UNL     1       1.324  -8.820  24.981  0.00  0.00    +0.177 C 
ATOM     49  C   UNL     1       1.802  -8.277  23.623  0.00  0.00    +0.179 C 
ATOM     50  C   UNL     1       1.504  -6.788  23.422  0.00  0.00    +0.201 C 
ATOM     51  C   UNL     1       1.895  -5.949  24.643  0.00  0.00    +0.282 C 
ATOM     52  O   UNL     1       1.277  -6.523  25.795  0.00  0.00    -0.341 OA
BRANCH  50  53
ATOM     53  O   UNL     1       2.167  -6.329  22.235  0.00  0.00    -0.384 OA
ATOM     54  H   UNL     1       3.077  -6.682  22.275  0.00  0.00    +0.210 HD
ENDBRANCH  50  53
BRANCH  49  55
ATOM     55  O   UNL     1       1.165  -9.017  22.567  0.00  0.00    -0.386 OA
ATOM     56  H   UNL     1       0.288  -9.284  22.907  0.00  0.00    +0.210 HD
ENDBRANCH  49  55
BRANCH  48  57
ATOM     57  O   UNL     1       1.927 -10.107  25.235  0.00  0.00    -0.386 OA
ATOM     58  H   UNL     1       1.830 -10.647  24.436  0.00  0.00    +0.210 HD
ENDBRANCH  48  57
BRANCH  47  59
ATOM     59  C   UNL     1       1.193  -8.302  27.476  0.00  0.00    +0.190 C 
BRANCH  59  60
ATOM     60  O   UNL     1       2.106  -7.906  28.510  0.00  0.00    -0.392 OA
ATOM     61  H   UNL     1       1.952  -6.959  28.678  0.00  0.00    +0.210 HD
ENDBRANCH  59  60
ENDBRANCH  47  59
ENDBRANCH  46  51
ENDBRANCH  33  46
ENDBRANCH  32  36
ENDBRANCH   1  32
TORSDOF 25
ENDMDL
MODEL 5
REMARK VINA RESULT:      -6.2      1.881      9.687
REMARK  Name = 
REMARK  25 active torsions:
REMARK  status: ('A' for Active; 'I' for Inactive)
REMARK    1  A    between atoms: O_1  and  C_2
REMARK    2  A    between atoms: C_2  and  C_3
REMARK    3  A    between atoms: C_6  and  O_8
REMARK    4  A    between atoms: O_8  and  C_9
REMARK    5  A    between atoms: C_11  and  O_13
REMARK    6  A    between atoms: C_14  and  O_16
REMARK    7  A    between atoms: C_17  and  O_19
REMARK    8  A    between atoms: O_19  and  C_20
REMARK    9  A    between atoms: C_22  and  O_24
REMARK   10  A    between atoms: C_25  and  O_27
REMARK   11  A    between atoms: C_28  and  O_30
REMARK   12  A    between atoms: O_30  and  C_31
REMARK   13  A    between atoms: C_33  and  O_35
REMARK   14  A    between atoms: C_36  and  O_38
REMARK   15  A    between atoms: C_39  and  O_40
REMARK   16  A    between atoms: C_39  and  O_41
REMARK   17  A    between atoms: C_43  and  C_45
REMARK   18  A    between atoms: C_45  and  O_46
REMARK   19  A    between atoms: C_48  and  C_50
REMARK   20  A    between atoms: C_50  and  O_51
REMARK   21  A    between atoms: C_53  and  C_55
REMARK   22  A    between atoms: C_55  and  O_56
REMARK   23  A    between atoms: C_57  and  O_59
REMARK   24  A    between atoms: C_60  and  O_62
REMARK   25  A    between atoms: C_63  and  O_65
REMARK                            x       y       z     vdW  Elec       q    Type
REMARK                         _______ _______ _______ _____ _____    ______ ____
ROOT
ATOM      1  C   UNL     1       9.046  -1.125  24.308  0.00  0.00    +0.183 C 
ATOM      2  C   UNL     1       8.924   0.010  25.346  0.00  0.00    +0.178 C 
ATOM      3  O   UNL     1       7.627   0.603  25.249  0.00  0.00    -0.341 OA
ATOM      4  C   UNL     1       7.210   1.028  23.953  0.00  0.00    +0.282 C 
ATOM      5  C   UNL     1       7.467   0.057  22.791  0.00  0.00    +0.201 C 
ATOM      6  C   UNL     1       8.863  -0.563  22.895  0.00  0.00    +0.179 C 
ENDROOT
BRANCH   6   7
ATOM      7  O   UNL     1       9.897   0.348  22.514  0.00  0.00    -0.386 OA
ATOM      8  H   UNL     1       9.940   0.455  21.549  0.00  0.00    +0.210 HD
ENDBRANCH   6   7
BRANCH   5   9
ATOM      9  O   UNL     1       6.427  -0.934  22.798  0.00  0.00    -0.384 OA
ATOM     10  H   UNL     1       6.677  -1.609  23.464  0.00  0.00    +0.210 HD
ENDBRANCH   5   9
BRANCH   4  11
ATOM     11  O   UNL     1       7.695   2.333  23.672  0.00  0.00    -0.340 OA
BRANCH  11  12
ATOM     12  C   UNL     1       7.205   3.358  24.568  0.00  0.00    +0.184 C 
ATOM     13  C   UNL     1       6.621   4.496  23.711  0.00  0.00    +0.183 C 
ATOM     14  O   UNL     1       7.649   5.093  22.902  0.00  0.00    -0.297 OA
ATOM     15  C   UNL     1       8.711   5.678  23.667  0.00  0.00    +0.391 C 
ATOM     16  C   UNL     1       9.378   4.615  24.586  0.00  0.00    +0.262 C 
ATOM     17  C   UNL     1       8.308   3.953  25.469  0.00  0.00    +0.185 C 
BRANCH  17  18
ATOM     18  O   UNL     1       7.758   4.917  26.377  0.00  0.00    -0.386 OA
ATOM     19  H   UNL     1       7.663   5.762  25.895  0.00  0.00    +0.210 HD
ENDBRANCH  17  18
BRANCH  16  20
ATOM     20  O   UNL     1      10.090   3.667  23.763  0.00  0.00    -0.379 OA
ATOM     21  H   UNL     1       9.925   2.772  24.148  0.00  0.00    +0.210 HD
ENDBRANCH  16  20
BRANCH  15  22
ATOM     22  O   UNL     1       9.706   6.126  22.754  0.00  0.00    -0.482 OA
ATOM     23  H   UNL     1      10.232   6.792  23.233  0.00  0.00    +0.290 HD
ENDBRANCH  15  22
BRANCH  15  24
ATOM     24  O   UNL     1       8.251   6.787  24.411  0.00  0.00    -0.482 OA
ATOM     25  H   UNL     1       8.788   7.558  24.142  0.00  0.00    +0.290 HD
ENDBRANCH  15  24
BRANCH  13  26
ATOM     26  C   UNL     1       5.532   3.968  22.769  0.00  0.00    +0.190 C 
BRANCH  26  27
ATOM     27  O   UNL     1       6.127   3.484  21.569  0.00  0.00    -0.392 OA
ATOM     28  H   UNL     1       5.532   2.779  21.247  0.00  0.00    +0.210 HD
ENDBRANCH  26  27
ENDBRANCH  13  26
ENDBRANCH  11  12
ENDBRANCH   4  11
BRANCH   2  29
ATOM     29  C   UNL     1       9.066  -0.486  26.793  0.00  0.00    +0.190 C 
BRANCH  29  30
ATOM     30  O   UNL     1       7.796  -0.477  27.444  0.00  0.00    -0.392 OA
ATOM     31  H   UNL     1       7.131  -0.503  26.729  0.00  0.00    +0.210 HD
ENDBRANCH  29  30
ENDBRANCH   2  29
BRANCH   1  32
ATOM     32  O   UNL     1       8.012  -2.109  24.604  0.00  0.00    -0.340 OA
BRANCH  32  36
ATOM     33  C   UNL     1       5.991  -4.794  25.671  0.00  0.00    +0.183 C 
ATOM     34  C   UNL     1       6.493  -4.567  24.199  0.00  0.00    +0.178 C 
ATOM     35  O   UNL     1       7.923  -4.418  24.064  0.00  0.00    -0.341 OA
ATOM     36  C   UNL     1       8.502  -3.417  24.919  0.00  0.00    +0.282 C 
ATOM     37  C   UNL     1       8.229  -3.825  26.350  0.00  0.00    +0.201 C 
ATOM     38  C   UNL     1       6.700  -3.765  26.565  0.00  0.00    +0.179 C 
BRANCH  38  39
ATOM     39  O   UNL     1       6.116  -2.479  26.315  0.00  0.00    -0.386 OA
ATOM     40  H   UNL     1       6.111  -2.342  25.353  0.00  0.00    +0.210 HD
ENDBRANCH  38  39
BRANCH  37  41
ATOM     41  O   UNL     1       8.829  -5.120  26.506  0.00  0.00    -0.384 OA
ATOM     42  H   UNL     1       8.443  -5.701  25.822  0.00  0.00    +0.210 HD
ENDBRANCH  37  41
BRANCH  34  43
ATOM     43  C   UNL     1       6.093  -5.642  23.191  0.00  0.00    +0.190 C 
BRANCH  43  44
ATOM     44  O   UNL     1       4.668  -5.603  23.014  0.00  0.00    -0.392 OA
ATOM     45  H   UNL     1       4.479  -4.769  22.536  0.00  0.00    +0.210 HD
ENDBRANCH  43  44
ENDBRANCH  34  43
BRANCH  33  46
ATOM     46  O   UNL     1       6.175  -6.128  26.204  0.00  0.00    -0.340 OA
BRANCH  46  51
ATOM     47  C   UNL     1       3.503  -4.829  26.361  0.00  0.00    +0.178 C 
ATOM     48  C   UNL     1       3.127  -4.917  27.837  0.00  0.00    +0.177 C 
ATOM     49  C   UNL     1       4.181  -5.736  28.603  0.00  0.00    +0.179 C 
ATOM     50  C   UNL     1       4.589  -7.026  27.885  0.00  0.00    +0.201 C 
ATOM     51  C   UNL     1       4.884  -6.794  26.400  0.00  0.00    +0.282 C 
ATOM     52  O   UNL     1       3.761  -6.129  25.820  0.00  0.00    -0.341 OA
BRANCH  50  53
ATOM     53  O   UNL     1       5.715  -7.606  28.560  0.00  0.00    -0.384 OA
ATOM     54  H   UNL     1       5.732  -7.211  29.453  0.00  0.00    +0.210 HD
ENDBRANCH  50  53
BRANCH  49  55
ATOM     55  O   UNL     1       3.663  -6.078  29.899  0.00  0.00    -0.386 OA
ATOM     56  H   UNL     1       3.089  -6.858  29.771  0.00  0.00    +0.210 HD
ENDBRANCH  49  55
BRANCH  48  57
ATOM     57  O   UNL     1       3.046  -3.584  28.388  0.00  0.00    -0.386 OA
ATOM     58  H   UNL     1       2.114  -3.320  28.397  0.00  0.00    +0.210 HD
ENDBRANCH  48  57
BRANCH  47  59
ATOM     59  C   UNL     1       2.446  -4.085  25.522  0.00  0.00    +0.190 C 
BRANCH  59  60
ATOM     60  O   UNL     1       2.657  -2.668  25.588  0.00  0.00    -0.392 OA
ATOM     61  H   UNL     1       3.002  -2.391  24.720  0.00  0.00    +0.210 HD
ENDBRANCH  59  60
ENDBRANCH  47  59
ENDBRANCH  46  51
ENDBRANCH  33  46
ENDBRANCH  32  36
ENDBRANCH   1  32
TORSDOF 25
ENDMDL
MODEL 6
REMARK VINA RESULT:      -6.2      1.817      9.841
REMARK  Name = 
REMARK  25 active torsions:
REMARK  status: ('A' for Active; 'I' for Inactive)
REMARK    1  A    between atoms: O_1  and  C_2
REMARK    2  A    between atoms: C_2  and  C_3
REMARK    3  A    between atoms: C_6  and  O_8
REMARK    4  A    between atoms: O_8  and  C_9
REMARK    5  A    between atoms: C_11  and  O_13
REMARK    6  A    between atoms: C_14  and  O_16
REMARK    7  A    between atoms: C_17  and  O_19
REMARK    8  A    between atoms: O_19  and  C_20
REMARK    9  A    between atoms: C_22  and  O_24
REMARK   10  A    between atoms: C_25  and  O_27
REMARK   11  A    between atoms: C_28  and  O_30
REMARK   12  A    between atoms: O_30  and  C_31
REMARK   13  A    between atoms: C_33  and  O_35
REMARK   14  A    between atoms: C_36  and  O_38
REMARK   15  A    between atoms: C_39  and  O_40
REMARK   16  A    between atoms: C_39  and  O_41
REMARK   17  A    between atoms: C_43  and  C_45
REMARK   18  A    between atoms: C_45  and  O_46
REMARK   19  A    between atoms: C_48  and  C_50
REMARK   20  A    between atoms: C_50  and  O_51
REMARK   21  A    between atoms: C_53  and  C_55
REMARK   22  A    between atoms: C_55  and  O_56
REMARK   23  A    between atoms: C_57  and  O_59
REMARK   24  A    between atoms: C_60  and  O_62
REMARK   25  A    between atoms: C_63  and  O_65
REMARK                            x       y       z     vdW  Elec       q    Type
REMARK                         _______ _______ _______ _____ _____    ______ ____
ROOT
ATOM      1  C   UNL     1       9.206  -1.071  24.626  0.00  0.00    +0.183 C 
ATOM      2  C   UNL     1       9.084  -0.100  25.819  0.00  0.00    +0.178 C 
ATOM      3  O   UNL     1       8.066   0.865  25.542  0.00  0.00    -0.341 OA
ATOM      4  C   UNL     1       8.161   1.564  24.303  0.00  0.00    +0.282 C 
ATOM      5  C   UNL     1       8.485   0.723  23.058  0.00  0.00    +0.201 C 
ATOM      6  C   UNL     1       9.586  -0.298  23.359  0.00  0.00    +0.179 C 
ENDROOT
BRANCH   6   7
ATOM      7  O   UNL     1      10.882   0.300  23.434  0.00  0.00    -0.386 OA
ATOM      8  H   UNL     1      10.846   1.256  23.255  0.00  0.00    +0.210 HD
ENDBRANCH   6   7
BRANCH   5   9
ATOM      9  O   UNL     1       7.271   0.101  22.611  0.00  0.00    -0.384 OA
ATOM     10  H   UNL     1       7.399  -0.137  21.668  0.00  0.00    +0.210 HD
ENDBRANCH   5   9
BRANCH   4  11
ATOM     11  O   UNL     1       9.023   2.686  24.424  0.00  0.00    -0.340 OA
BRANCH  11  12
ATOM     12  C   UNL     1       8.616   3.836  23.646  0.00  0.00    +0.184 C 
ATOM     13  C   UNL     1       9.665   4.944  23.855  0.00  0.00    +0.183 C 
ATOM     14  O   UNL     1       9.697   5.351  25.234  0.00  0.00    -0.297 OA
ATOM     15  C   UNL     1       8.453   5.891  25.699  0.00  0.00    +0.391 C 
ATOM     16  C   UNL     1       7.305   4.854  25.530  0.00  0.00    +0.262 C 
ATOM     17  C   UNL     1       7.238   4.395  24.065  0.00  0.00    +0.185 C 
BRANCH  17  18
ATOM     18  O   UNL     1       6.858   5.492  23.225  0.00  0.00    -0.386 OA
ATOM     19  H   UNL     1       7.471   5.514  22.464  0.00  0.00    +0.210 HD
ENDBRANCH  17  18
BRANCH  16  20
ATOM     20  O   UNL     1       7.520   3.763  26.450  0.00  0.00    -0.379 OA
ATOM     21  H   UNL     1       8.129   3.127  26.003  0.00  0.00    +0.210 HD
ENDBRANCH  16  20
BRANCH  15  22
ATOM     22  O   UNL     1       8.586   6.143  27.093  0.00  0.00    -0.482 OA
ATOM     23  H   UNL     1       7.919   5.587  27.534  0.00  0.00    +0.290 HD
ENDBRANCH  15  22
BRANCH  15  24
ATOM     24  O   UNL     1       8.150   7.107  25.048  0.00  0.00    -0.482 OA
ATOM     25  H   UNL     1       8.497   7.829  25.609  0.00  0.00    +0.290 HD
ENDBRANCH  15  24
BRANCH  13  26
ATOM     26  C   UNL     1      11.066   4.447  23.481  0.00  0.00    +0.190 C 
BRANCH  26  27
ATOM     27  O   UNL     1      10.963   3.315  22.622  0.00  0.00    -0.392 OA
ATOM     28  H   UNL     1      10.144   2.855  22.892  0.00  0.00    +0.210 HD
ENDBRANCH  26  27
ENDBRANCH  13  26
ENDBRANCH  11  12
ENDBRANCH   4  11
BRANCH   2  29
ATOM     29  C   UNL     1       8.673  -0.803  27.121  0.00  0.00    +0.190 C 
BRANCH  29  30
ATOM     30  O   UNL     1       7.255  -0.760  27.278  0.00  0.00    -0.392 OA
ATOM     31  H   UNL     1       6.891  -0.666  26.377  0.00  0.00    +0.210 HD
ENDBRANCH  29  30
ENDBRANCH   2  29
BRANCH   1  32
ATOM     32  O   UNL     1       7.914  -1.727  24.455  0.00  0.00    -0.340 OA
BRANCH  32  36
ATOM     33  C   UNL     1       5.117  -3.817  23.968  0.00  0.00    +0.183 C 
ATOM     34  C   UNL     1       6.108  -3.352  22.840  0.00  0.00    +0.178 C 
ATOM     35  O   UNL     1       7.500  -3.633  23.104  0.00  0.00    -0.341 OA
ATOM     36  C   UNL     1       7.974  -3.155  24.374  0.00  0.00    +0.282 C 
ATOM     37  C   UNL     1       7.168  -3.845  25.452  0.00  0.00    +0.201 C 
ATOM     38  C   UNL     1       5.705  -3.366  25.314  0.00  0.00    +0.179 C 
BRANCH  38  39
ATOM     39  O   UNL     1       5.533  -1.946  25.424  0.00  0.00    -0.386 OA
ATOM     40  H   UNL     1       4.583  -1.759  25.331  0.00  0.00    +0.210 HD
ENDBRANCH  38  39
BRANCH  37  41
ATOM     41  O   UNL     1       7.383  -5.251  25.259  0.00  0.00    -0.384 OA
ATOM     42  H   UNL     1       7.535  -5.391  24.305  0.00  0.00    +0.210 HD
ENDBRANCH  37  41
BRANCH  34  43
ATOM     43  C   UNL     1       5.831  -3.910  21.445  0.00  0.00    +0.190 C 
BRANCH  43  44
ATOM     44  O   UNL     1       6.233  -5.289  21.411  0.00  0.00    -0.392 OA
ATOM     45  H   UNL     1       6.112  -5.581  20.485  0.00  0.00    +0.210 HD
ENDBRANCH  43  44
ENDBRANCH  34  43
BRANCH  33  46
ATOM     46  O   UNL     1       4.818  -5.234  24.004  0.00  0.00    -0.340 OA
BRANCH  46  51
ATOM     47  C   UNL     1       2.505  -4.282  25.614  0.00  0.00    +0.178 C 
ATOM     48  C   UNL     1       1.995  -5.535  26.320  0.00  0.00    +0.177 C 
ATOM     49  C   UNL     1       2.769  -6.770  25.827  0.00  0.00    +0.179 C 
ATOM     50  C   UNL     1       2.935  -6.817  24.304  0.00  0.00    +0.201 C 
ATOM     51  C   UNL     1       3.399  -5.475  23.730  0.00  0.00    +0.282 C 
ATOM     52  O   UNL     1       2.508  -4.459  24.194  0.00  0.00    -0.341 OA
BRANCH  50  53
ATOM     53  O   UNL     1       3.839  -7.877  23.961  0.00  0.00    -0.384 OA
ATOM     54  H   UNL     1       3.583  -8.645  24.508  0.00  0.00    +0.210 HD
ENDBRANCH  50  53
BRANCH  49  55
ATOM     55  O   UNL     1       2.079  -7.959  26.248  0.00  0.00    -0.386 OA
ATOM     56  H   UNL     1       2.764  -8.582  26.559  0.00  0.00    +0.210 HD
ENDBRANCH  49  55
BRANCH  48  57
ATOM     57  O   UNL     1       2.170  -5.382  27.745  0.00  0.00    -0.386 OA
ATOM     58  H   UNL     1       1.573  -6.004  28.189  0.00  0.00    +0.210 HD
ENDBRANCH  48  57
BRANCH  47  59
ATOM     59  C   UNL     1       1.718  -3.017  26.007  0.00  0.00    +0.190 C 
BRANCH  59  60
ATOM     60  O   UNL     1       2.612  -1.920  26.243  0.00  0.00    -0.392 OA
ATOM     61  H   UNL     1       2.134  -1.106  26.003  0.00  0.00    +0.210 HD
ENDBRANCH  59  60
ENDBRANCH  47  59
ENDBRANCH  46  51
ENDBRANCH  33  46
ENDBRANCH  32  36
ENDBRANCH   1  32
TORSDOF 25
ENDMDL
MODEL 7
REMARK VINA RESULT:      -6.1      1.954     10.247
REMARK  Name = 
REMARK  25 active torsions:
REMARK  status: ('A' for Active; 'I' for Inactive)
REMARK    1  A    between atoms: O_1  and  C_2
REMARK    2  A    between atoms: C_2  and  C_3
REMARK    3  A    between atoms: C_6  and  O_8
REMARK    4  A    between atoms: O_8  and  C_9
REMARK    5  A    between atoms: C_11  and  O_13
REMARK    6  A    between atoms: C_14  and  O_16
REMARK    7  A    between atoms: C_17  and  O_19
REMARK    8  A    between atoms: O_19  and  C_20
REMARK    9  A    between atoms: C_22  and  O_24
REMARK   10  A    between atoms: C_25  and  O_27
REMARK   11  A    between atoms: C_28  and  O_30
REMARK   12  A    between atoms: O_30  and  C_31
REMARK   13  A    between atoms: C_33  and  O_35
REMARK   14  A    between atoms: C_36  and  O_38
REMARK   15  A    between atoms: C_39  and  O_40
REMARK   16  A    between atoms: C_39  and  O_41
REMARK   17  A    between atoms: C_43  and  C_45
REMARK   18  A    between atoms: C_45  and  O_46
REMARK   19  A    between atoms: C_48  and  C_50
REMARK   20  A    between atoms: C_50  and  O_51
REMARK   21  A    between atoms: C_53  and  C_55
REMARK   22  A    between atoms: C_55  and  O_56
REMARK   23  A    between atoms: C_57  and  O_59
REMARK   24  A    between atoms: C_60  and  O_62
REMARK   25  A    between atoms: C_63  and  O_65
REMARK                            x       y       z     vdW  Elec       q    Type
REMARK                         _______ _______ _______ _____ _____    ______ ____
ROOT
ATOM      1  C   UNL     1       6.619  -3.296  24.611  0.00  0.00    +0.183 C 
ATOM      2  C   UNL     1       8.038  -2.746  24.866  0.00  0.00    +0.178 C 
ATOM      3  O   UNL     1       7.978  -1.729  25.869  0.00  0.00    -0.341 OA
ATOM      4  C   UNL     1       7.036  -0.679  25.664  0.00  0.00    +0.282 C 
ATOM      5  C   UNL     1       5.629  -1.092  25.205  0.00  0.00    +0.201 C 
ATOM      6  C   UNL     1       5.702  -2.171  24.122  0.00  0.00    +0.179 C 
ENDROOT
BRANCH   6   7
ATOM      7  O   UNL     1       6.087  -1.646  22.850  0.00  0.00    -0.386 OA
ATOM      8  H   UNL     1       5.676  -2.139  22.119  0.00  0.00    +0.210 HD
ENDBRANCH   6   7
BRANCH   5   9
ATOM      9  O   UNL     1       4.891  -1.525  26.359  0.00  0.00    -0.384 OA
ATOM     10  H   UNL     1       4.109  -0.940  26.438  0.00  0.00    +0.210 HD
ENDBRANCH   5   9
BRANCH   4  11
ATOM     11  O   UNL     1       7.586   0.337  24.838  0.00  0.00    -0.340 OA
BRANCH  11  12
ATOM     12  C   UNL     1       8.851   0.863  25.302  0.00  0.00    +0.184 C 
ATOM     13  C   UNL     1       8.858   2.380  25.041  0.00  0.00    +0.183 C 
ATOM     14  O   UNL     1       8.778   2.646  23.629  0.00  0.00    -0.297 OA
ATOM     15  C   UNL     1       9.879   2.110  22.883  0.00  0.00    +0.391 C 
ATOM     16  C   UNL     1       9.979   0.570  23.078  0.00  0.00    +0.262 C 
ATOM     17  C   UNL     1      10.067   0.245  24.578  0.00  0.00    +0.185 C 
BRANCH  17  18
ATOM     18  O   UNL     1      11.293   0.755  25.117  0.00  0.00    -0.386 OA
ATOM     19  H   UNL     1      11.080   1.247  25.934  0.00  0.00    +0.210 HD
ENDBRANCH  17  18
BRANCH  16  20
ATOM     20  O   UNL     1       8.849  -0.057  22.435  0.00  0.00    -0.379 OA
ATOM     21  H   UNL     1       8.164  -0.198  23.132  0.00  0.00    +0.210 HD
ENDBRANCH  16  20
BRANCH  15  22
ATOM     22  O   UNL     1       9.620   2.342  21.504  0.00  0.00    -0.482 OA
ATOM     23  H   UNL     1       9.145   1.554  21.182  0.00  0.00    +0.290 HD
ENDBRANCH  15  22
BRANCH  15  24
ATOM     24  O   UNL     1      11.088   2.753  23.228  0.00  0.00    -0.482 OA
ATOM     25  H   UNL     1      11.082   3.631  22.796  0.00  0.00    +0.290 HD
ENDBRANCH  15  24
BRANCH  13  26
ATOM     26  C   UNL     1       7.658   3.056  25.713  0.00  0.00    +0.190 C 
BRANCH  26  27
ATOM     27  O   UNL     1       7.456   2.502  27.010  0.00  0.00    -0.392 OA
ATOM     28  H   UNL     1       7.273   3.263  27.595  0.00  0.00    +0.210 HD
ENDBRANCH  26  27
ENDBRANCH  13  26
ENDBRANCH  11  12
ENDBRANCH   4  11
BRANCH   2  29
ATOM     29  C   UNL     1       9.008  -3.815  25.391  0.00  0.00    +0.190 C 
BRANCH  29  30
ATOM     30  O   UNL     1       8.777  -4.051  26.779  0.00  0.00    -0.392 OA
ATOM     31  H   UNL     1       9.131  -4.943  26.959  0.00  0.00    +0.210 HD
ENDBRANCH  29  30
ENDBRANCH   2  29
BRANCH   1  32
ATOM     32  O   UNL     1       6.125  -3.847  25.868  0.00  0.00    -0.340 OA
BRANCH  32  36
ATOM     33  C   UNL     1       3.255  -5.765  25.150  0.00  0.00    +0.183 C 
ATOM     34  C   UNL     1       4.430  -5.482  24.145  0.00  0.00    +0.178 C 
ATOM     35  O   UNL     1       5.742  -5.837  24.633  0.00  0.00    -0.341 OA
ATOM     36  C   UNL     1       6.073  -5.277  25.916  0.00  0.00    +0.282 C 
ATOM     37  C   UNL     1       5.069  -5.802  26.916  0.00  0.00    +0.201 C 
ATOM     38  C   UNL     1       3.686  -5.234  26.526  0.00  0.00    +0.179 C 
BRANCH  38  39
ATOM     39  O   UNL     1       3.622  -3.801  26.491  0.00  0.00    -0.386 OA
ATOM     40  H   UNL     1       2.993  -3.553  25.792  0.00  0.00    +0.210 HD
ENDBRANCH  38  39
BRANCH  37  41
ATOM     41  O   UNL     1       5.188  -7.232  26.875  0.00  0.00    -0.384 OA
ATOM     42  H   UNL     1       5.428  -7.528  27.774  0.00  0.00    +0.210 HD
ENDBRANCH  37  41
BRANCH  34  43
ATOM     43  C   UNL     1       4.304  -6.147  22.776  0.00  0.00    +0.190 C 
BRANCH  43  44
ATOM     44  O   UNL     1       5.341  -5.643  21.920  0.00  0.00    -0.392 OA
ATOM     45  H   UNL     1       6.187  -5.898  22.343  0.00  0.00    +0.210 HD
ENDBRANCH  43  44
ENDBRANCH  34  43
BRANCH  33  46
ATOM     46  O   UNL     1       2.834  -7.147  25.259  0.00  0.00    -0.340 OA
BRANCH  46  51
ATOM     47  C   UNL     1       1.023  -8.448  27.228  0.00  0.00    +0.178 C 
ATOM     48  C   UNL     1       0.590  -9.742  26.546  0.00  0.00    +0.177 C 
ATOM     49  C   UNL     1       1.136  -9.788  25.108  0.00  0.00    +0.179 C 
ATOM     50  C   UNL     1       0.951  -8.473  24.343  0.00  0.00    +0.201 C 
ATOM     51  C   UNL     1       1.376  -7.257  25.172  0.00  0.00    +0.282 C 
ATOM     52  O   UNL     1       0.693  -7.310  26.425  0.00  0.00    -0.341 OA
BRANCH  50  53
ATOM     53  O   UNL     1       1.671  -8.542  23.104  0.00  0.00    -0.384 OA
ATOM     54  H   UNL     1       1.137  -8.052  22.449  0.00  0.00    +0.210 HD
ENDBRANCH  50  53
BRANCH  49  55
ATOM     55  O   UNL     1       0.469 -10.836  24.383  0.00  0.00    -0.386 OA
ATOM     56  H   UNL     1       0.602 -11.656  24.897  0.00  0.00    +0.210 HD
ENDBRANCH  49  55
BRANCH  48  57
ATOM     57  O   UNL     1       1.093 -10.868  27.298  0.00  0.00    -0.386 OA
ATOM     58  H   UNL     1       0.925 -10.699  28.238  0.00  0.00    +0.210 HD
ENDBRANCH  48  57
BRANCH  47  59
ATOM     59  C   UNL     1       0.444  -8.303  28.649  0.00  0.00    +0.190 C 
BRANCH  59  60
ATOM     60  O   UNL     1       1.027  -9.272  29.531  0.00  0.00    -0.392 OA
ATOM     61  H   UNL     1       0.418 -10.031  29.563  0.00  0.00    +0.210 HD
ENDBRANCH  59  60
ENDBRANCH  47  59
ENDBRANCH  46  51
ENDBRANCH  33  46
ENDBRANCH  32  36
ENDBRANCH   1  32
TORSDOF 25
ENDMDL
MODEL 8
REMARK VINA RESULT:      -6.0      1.581      9.801
REMARK  Name = 
REMARK  25 active torsions:
REMARK  status: ('A' for Active; 'I' for Inactive)
REMARK    1  A    between atoms: O_1  and  C_2
REMARK    2  A    between atoms: C_2  and  C_3
REMARK    3  A    between atoms: C_6  and  O_8
REMARK    4  A    between atoms: O_8  and  C_9
REMARK    5  A    between atoms: C_11  and  O_13
REMARK    6  A    between atoms: C_14  and  O_16
REMARK    7  A    between atoms: C_17  and  O_19
REMARK    8  A    between atoms: O_19  and  C_20
REMARK    9  A    between atoms: C_22  and  O_24
REMARK   10  A    between atoms: C_25  and  O_27
REMARK   11  A    between atoms: C_28  and  O_30
REMARK   12  A    between atoms: O_30  and  C_31
REMARK   13  A    between atoms: C_33  and  O_35
REMARK   14  A    between atoms: C_36  and  O_38
REMARK   15  A    between atoms: C_39  and  O_40
REMARK   16  A    between atoms: C_39  and  O_41
REMARK   17  A    between atoms: C_43  and  C_45
REMARK   18  A    between atoms: C_45  and  O_46
REMARK   19  A    between atoms: C_48  and  C_50
REMARK   20  A    between atoms: C_50  and  O_51
REMARK   21  A    between atoms: C_53  and  C_55
REMARK   22  A    between atoms: C_55  and  O_56
REMARK   23  A    between atoms: C_57  and  O_59
REMARK   24  A    between atoms: C_60  and  O_62
REMARK   25  A    between atoms: C_63  and  O_65
REMARK                            x       y       z     vdW  Elec       q    Type
REMARK                         _______ _______ _______ _____ _____    ______ ____
ROOT
ATOM      1  C   UNL     1       7.836  -2.262  25.187  0.00  0.00    +0.183 C 
ATOM      2  C   UNL     1       7.287  -0.992  25.870  0.00  0.00    +0.178 C 
ATOM      3  O   UNL     1       6.497  -0.255  24.933  0.00  0.00    -0.341 OA
ATOM      4  C   UNL     1       7.101   0.043  23.676  0.00  0.00    +0.282 C 
ATOM      5  C   UNL     1       7.861  -1.100  22.986  0.00  0.00    +0.201 C 
ATOM      6  C   UNL     1       8.714  -1.876  23.993  0.00  0.00    +0.179 C 
ENDROOT
BRANCH   6   7
ATOM      7  O   UNL     1       9.896  -1.166  24.372  0.00  0.00    -0.386 OA
ATOM      8  H   UNL     1      10.343  -1.591  25.124  0.00  0.00    +0.210 HD
ENDBRANCH   6   7
BRANCH   5   9
ATOM      9  O   UNL     1       6.901  -1.939  22.324  0.00  0.00    -0.384 OA
ATOM     10  H   UNL     1       6.212  -2.166  22.984  0.00  0.00    +0.210 HD
ENDBRANCH   5   9
BRANCH   4  11
ATOM     11  O   UNL     1       7.885   1.225  23.762  0.00  0.00    -0.340 OA
BRANCH  11  12
ATOM     12  C   UNL     1       7.747   2.115  22.630  0.00  0.00    +0.184 C 
ATOM     13  C   UNL     1       9.125   2.742  22.351  0.00  0.00    +0.183 C 
ATOM     14  O   UNL     1       9.549   3.539  23.471  0.00  0.00    -0.297 OA
ATOM     15  C   UNL     1       8.668   4.632  23.762  0.00  0.00    +0.391 C 
ATOM     16  C   UNL     1       7.230   4.116  24.055  0.00  0.00    +0.262 C 
ATOM     17  C   UNL     1       6.740   3.259  22.878  0.00  0.00    +0.185 C 
BRANCH  17  18
ATOM     18  O   UNL     1       6.596   4.073  21.707  0.00  0.00    -0.386 OA
ATOM     19  H   UNL     1       6.299   4.959  21.991  0.00  0.00    +0.210 HD
ENDBRANCH  17  18
BRANCH  16  20
ATOM     20  O   UNL     1       7.237   3.397  25.307  0.00  0.00    -0.379 OA
ATOM     21  H   UNL     1       6.522   3.786  25.866  0.00  0.00    +0.210 HD
ENDBRANCH  16  20
BRANCH  15  22
ATOM     22  O   UNL     1       9.138   5.261  24.948  0.00  0.00    -0.482 OA
ATOM     23  H   UNL     1       9.523   6.111  24.668  0.00  0.00    +0.290 HD
ENDBRANCH  15  22
BRANCH  15  24
ATOM     24  O   UNL     1       8.672   5.581  22.716  0.00  0.00    -0.482 OA
ATOM     25  H   UNL     1       9.328   6.267  22.951  0.00  0.00    +0.290 HD
ENDBRANCH  15  24
BRANCH  13  26
ATOM     26  C   UNL     1      10.183   1.657  22.121  0.00  0.00    +0.190 C 
BRANCH  26  27
ATOM     27  O   UNL     1      10.715   1.230  23.372  0.00  0.00    -0.392 OA
ATOM     28  H   UNL     1      11.394   0.562  23.153  0.00  0.00    +0.210 HD
ENDBRANCH  26  27
ENDBRANCH  13  26
ENDBRANCH  11  12
ENDBRANCH   4  11
BRANCH   2  29
ATOM     29  C   UNL     1       6.368  -1.303  27.060  0.00  0.00    +0.190 C 
BRANCH  29  30
ATOM     30  O   UNL     1       5.043  -0.846  26.793  0.00  0.00    -0.392 OA
ATOM     31  H   UNL     1       4.560  -1.620  26.446  0.00  0.00    +0.210 HD
ENDBRANCH  29  30
ENDBRANCH   2  29
BRANCH   1  32
ATOM     32  O   UNL     1       6.695  -3.056  24.745  0.00  0.00    -0.340 OA
BRANCH  32  36
ATOM     33  C   UNL     1       4.143  -5.403  24.107  0.00  0.00    +0.183 C 
ATOM     34  C   UNL     1       5.392  -5.150  23.187  0.00  0.00    +0.178 C 
ATOM     35  O   UNL     1       6.667  -5.256  23.856  0.00  0.00    -0.341 OA
ATOM     36  C   UNL     1       6.786  -4.453  25.044  0.00  0.00    +0.282 C 
ATOM     37  C   UNL     1       5.731  -4.922  26.020  0.00  0.00    +0.201 C 
ATOM     38  C   UNL     1       4.351  -4.600  25.400  0.00  0.00    +0.179 C 
BRANCH  38  39
ATOM     39  O   UNL     1       4.144  -3.212  25.103  0.00  0.00    -0.386 OA
ATOM     40  H   UNL     1       3.218  -3.004  25.312  0.00  0.00    +0.210 HD
ENDBRANCH  38  39
BRANCH  37  41
ATOM     41  O   UNL     1       6.001  -6.314  26.247  0.00  0.00    -0.384 OA
ATOM     42  H   UNL     1       5.153  -6.736  26.485  0.00  0.00    +0.210 HD
ENDBRANCH  37  41
BRANCH  34  43
ATOM     43  C   UNL     1       5.497  -6.045  21.954  0.00  0.00    +0.190 C 
BRANCH  43  44
ATOM     44  O   UNL     1       6.831  -6.574  21.879  0.00  0.00    -0.392 OA
ATOM     45  H   UNL     1       7.430  -5.818  22.053  0.00  0.00    +0.210 HD
ENDBRANCH  43  44
ENDBRANCH  34  43
BRANCH  33  46
ATOM     46  O   UNL     1       3.857  -6.788  24.421  0.00  0.00    -0.340 OA
BRANCH  46  51
ATOM     47  C   UNL     1       1.324  -5.301  24.888  0.00  0.00    +0.178 C 
ATOM     48  C   UNL     1       0.577  -6.142  25.920  0.00  0.00    +0.177 C 
ATOM     49  C   UNL     1       1.346  -7.447  26.193  0.00  0.00    +0.179 C 
ATOM     50  C   UNL     1       1.841  -8.140  24.919  0.00  0.00    +0.201 C 
ATOM     51  C   UNL     1       2.520  -7.164  23.955  0.00  0.00    +0.282 C 
ATOM     52  O   UNL     1       1.628  -6.073  23.722  0.00  0.00    -0.341 OA
BRANCH  50  53
ATOM     53  O   UNL     1       2.716  -9.219  25.279  0.00  0.00    -0.384 OA
ATOM     54  H   UNL     1       3.113  -9.539  24.446  0.00  0.00    +0.210 HD
ENDBRANCH  50  53
BRANCH  49  55
ATOM     55  O   UNL     1       0.492  -8.357  26.907  0.00  0.00    -0.386 OA
ATOM     56  H   UNL     1       0.956  -9.216  26.925  0.00  0.00    +0.210 HD
ENDBRANCH  49  55
BRANCH  48  57
ATOM     57  O   UNL     1       0.444  -5.385  27.143  0.00  0.00    -0.386 OA
ATOM     58  H   UNL     1       0.688  -5.964  27.881  0.00  0.00    +0.210 HD
ENDBRANCH  48  57
BRANCH  47  59
ATOM     59  C   UNL     1       0.566  -4.013  24.512  0.00  0.00    +0.190 C 
BRANCH  59  60
ATOM     60  O   UNL     1       1.105  -2.887  25.219  0.00  0.00    -0.392 OA
ATOM     61  H   UNL     1       0.348  -2.361  25.534  0.00  0.00    +0.210 HD
ENDBRANCH  59  60
ENDBRANCH  47  59
ENDBRANCH  46  51
ENDBRANCH  33  46
ENDBRANCH  32  36
ENDBRANCH   1  32
TORSDOF 25
ENDMDL
MODEL 9
REMARK VINA RESULT:      -5.9      1.924      9.871
REMARK  Name = 
REMARK  25 active torsions:
REMARK  status: ('A' for Active; 'I' for Inactive)
REMARK    1  A    between atoms: O_1  and  C_2
REMARK    2  A    between atoms: C_2  and  C_3
REMARK    3  A    between atoms: C_6  and  O_8
REMARK    4  A    between atoms: O_8  and  C_9
REMARK    5  A    between atoms: C_11  and  O_13
REMARK    6  A    between atoms: C_14  and  O_16
REMARK    7  A    between atoms: C_17  and  O_19
REMARK    8  A    between atoms: O_19  and  C_20
REMARK    9  A    between atoms: C_22  and  O_24
REMARK   10  A    between atoms: C_25  and  O_27
REMARK   11  A    between atoms: C_28  and  O_30
REMARK   12  A    between atoms: O_30  and  C_31
REMARK   13  A    between atoms: C_33  and  O_35
REMARK   14  A    between atoms: C_36  and  O_38
REMARK   15  A    between atoms: C_39  and  O_40
REMARK   16  A    between atoms: C_39  and  O_41
REMARK   17  A    between atoms: C_43  and  C_45
REMARK   18  A    between atoms: C_45  and  O_46
REMARK   19  A    between atoms: C_48  and  C_50
REMARK   20  A    between atoms: C_50  and  O_51
REMARK   21  A    between atoms: C_53  and  C_55
REMARK   22  A    between atoms: C_55  and  O_56
REMARK   23  A    between atoms: C_57  and  O_59
REMARK   24  A    between atoms: C_60  and  O_62
REMARK   25  A    between atoms: C_63  and  O_65
REMARK                            x       y       z     vdW  Elec       q    Type
REMARK                         _______ _______ _______ _____ _____    ______ ____
ROOT
ATOM      1  C   UNL     1       7.124  -0.714  26.938  0.00  0.00    +0.183 C 
ATOM      2  C   UNL     1       6.592   0.734  26.979  0.00  0.00    +0.178 C 
ATOM      3  O   UNL     1       6.132   1.106  25.678  0.00  0.00    -0.341 OA
ATOM      4  C   UNL     1       7.038   0.910  24.595  0.00  0.00    +0.282 C 
ATOM      5  C   UNL     1       7.791  -0.430  24.557  0.00  0.00    +0.201 C 
ATOM      6  C   UNL     1       8.291  -0.814  25.952  0.00  0.00    +0.179 C 
ENDROOT
BRANCH   6   7
ATOM      7  O   UNL     1       9.433  -0.054  26.354  0.00  0.00    -0.386 OA
ATOM      8  H   UNL     1      10.015   0.143  25.600  0.00  0.00    +0.210 HD
ENDBRANCH   6   7
BRANCH   5   9
ATOM      9  O   UNL     1       6.913  -1.420  23.999  0.00  0.00    -0.384 OA
ATOM     10  H   UNL     1       6.045  -0.987  23.853  0.00  0.00    +0.210 HD
ENDBRANCH   5   9
BRANCH   4  11
ATOM     11  O   UNL     1       7.920   2.017  24.468  0.00  0.00    -0.340 OA
BRANCH  11  12
ATOM     12  C   UNL     1       7.859   2.684  23.186  0.00  0.00    +0.184 C 
ATOM     13  C   UNL     1       9.291   3.095  22.799  0.00  0.00    +0.183 C 
ATOM     14  O   UNL     1       9.815   4.041  23.747  0.00  0.00    -0.297 OA
ATOM     15  C   UNL     1       9.059   5.257  23.818  0.00  0.00    +0.391 C 
ATOM     16  C   UNL     1       7.579   4.964  24.198  0.00  0.00    +0.262 C 
ATOM     17  C   UNL     1       6.983   3.955  23.204  0.00  0.00    +0.185 C 
BRANCH  17  18
ATOM     18  O   UNL     1       6.908   4.540  21.898  0.00  0.00    -0.386 OA
ATOM     19  H   UNL     1       6.149   4.138  21.432  0.00  0.00    +0.210 HD
ENDBRANCH  17  18
BRANCH  16  20
ATOM     20  O   UNL     1       7.530   4.501  25.564  0.00  0.00    -0.379 OA
ATOM     21  H   UNL     1       6.700   4.861  25.960  0.00  0.00    +0.210 HD
ENDBRANCH  16  20
BRANCH  15  22
ATOM     22  O   UNL     1       9.611   6.048  24.864  0.00  0.00    -0.482 OA
ATOM     23  H   UNL     1       9.251   5.688  25.695  0.00  0.00    +0.290 HD
ENDBRANCH  15  22
BRANCH  15  24
ATOM     24  O   UNL     1       9.148   5.983  22.610  0.00  0.00    -0.482 OA
ATOM     25  H   UNL     1       9.199   5.330  21.884  0.00  0.00    +0.290 HD
ENDBRANCH  15  24
BRANCH  13  26
ATOM     26  C   UNL     1      10.225   1.879  22.786  0.00  0.00    +0.190 C 
BRANCH  26  27
ATOM     27  O   UNL     1      10.675   1.604  24.110  0.00  0.00    -0.392 OA
ATOM     28  H   UNL     1      11.489   2.134  24.225  0.00  0.00    +0.210 HD
ENDBRANCH  26  27
ENDBRANCH  13  26
ENDBRANCH  11  12
ENDBRANCH   4  11
BRANCH   2  29
ATOM     29  C   UNL     1       5.395   0.904  27.926  0.00  0.00    +0.190 C 
BRANCH  29  30
ATOM     30  O   UNL     1       4.175   0.655  27.229  0.00  0.00    -0.392 OA
ATOM     31  H   UNL     1       3.986  -0.294  27.354  0.00  0.00    +0.210 HD
ENDBRANCH  29  30
ENDBRANCH   2  29
BRANCH   1  32
ATOM     32  O   UNL     1       6.026  -1.577  26.518  0.00  0.00    -0.340 OA
BRANCH  32  36
ATOM     33  C   UNL     1       5.133  -4.901  25.752  0.00  0.00    +0.183 C 
ATOM     34  C   UNL     1       6.544  -4.438  26.269  0.00  0.00    +0.178 C 
ATOM     35  O   UNL     1       6.518  -3.681  27.499  0.00  0.00    -0.341 OA
ATOM     36  C   UNL     1       5.626  -2.553  27.487  0.00  0.00    +0.282 C 
ATOM     37  C   UNL     1       4.227  -3.079  27.258  0.00  0.00    +0.201 C 
ATOM     38  C   UNL     1       4.189  -3.693  25.840  0.00  0.00    +0.179 C 
BRANCH  38  39
ATOM     39  O   UNL     1       4.534  -2.779  24.789  0.00  0.00    -0.386 OA
ATOM     40  H   UNL     1       5.164  -2.137  25.156  0.00  0.00    +0.210 HD
ENDBRANCH  38  39
BRANCH  37  41
ATOM     41  O   UNL     1       3.972  -3.991  28.338  0.00  0.00    -0.384 OA
ATOM     42  H   UNL     1       4.407  -3.625  29.132  0.00  0.00    +0.210 HD
ENDBRANCH  37  41
BRANCH  34  43
ATOM     43  C   UNL     1       7.565  -5.551  26.491  0.00  0.00    +0.190 C 
BRANCH  43  44
ATOM     44  O   UNL     1       7.455  -6.017  27.845  0.00  0.00    -0.392 OA
ATOM     45  H   UNL     1       7.481  -5.216  28.408  0.00  0.00    +0.210 HD
ENDBRANCH  43  44
ENDBRANCH  34  43
BRANCH  33  46
ATOM     46  O   UNL     1       4.551  -6.039  26.434  0.00  0.00    -0.340 OA
BRANCH  46  51
ATOM     47  C   UNL     1       4.290  -5.977  23.472  0.00  0.00    +0.178 C 
ATOM     48  C   UNL     1       2.841  -6.378  23.212  0.00  0.00    +0.177 C 
ATOM     49  C   UNL     1       2.158  -6.773  24.533  0.00  0.00    +0.179 C 
ATOM     50  C   UNL     1       3.014  -7.693  25.410  0.00  0.00    +0.201 C 
ATOM     51  C   UNL     1       4.457  -7.193  25.536  0.00  0.00    +0.282 C 
ATOM     52  O   UNL     1       4.975  -6.986  24.221  0.00  0.00    -0.341 OA
BRANCH  50  53
ATOM     53  O   UNL     1       2.392  -7.832  26.695  0.00  0.00    -0.384 OA
ATOM     54  H   UNL     1       1.944  -6.983  26.877  0.00  0.00    +0.210 HD
ENDBRANCH  50  53
BRANCH  49  55
ATOM     55  O   UNL     1       0.920  -7.443  24.241  0.00  0.00    -0.386 OA
ATOM     56  H   UNL     1       0.215  -6.773  24.334  0.00  0.00    +0.210 HD
ENDBRANCH  49  55
BRANCH  48  57
ATOM     57  O   UNL     1       2.141  -5.267  22.610  0.00  0.00    -0.386 OA
ATOM     58  H   UNL     1       2.727  -4.864  21.952  0.00  0.00    +0.210 HD
ENDBRANCH  48  57
BRANCH  47  59
ATOM     59  C   UNL     1       5.055  -5.642  22.177  0.00  0.00    +0.190 C 
BRANCH  59  60
ATOM     60  O   UNL     1       5.054  -4.227  21.943  0.00  0.00    -0.392 OA
ATOM     61  H   UNL     1       4.122  -3.948  21.886  0.00  0.00    +0.210 HD
ENDBRANCH  59  60
ENDBRANCH  47  59
ENDBRANCH  46  51
ENDBRANCH  33  46
ENDBRANCH  32  36
ENDBRANCH   1  32
TORSDOF 25
ENDMDL
