MODEL 1
REMARK VINA RESULT:      -7.2      0.000      0.000
REMARK  Name = 
REMARK  7 active torsions:
REMARK  status: ('A' for Active; 'I' for Inactive)
REMARK    1  A    between atoms: C_2  and  C_3
REMARK    2  A    between atoms: C_3  and  C_4
REMARK    3  A    between atoms: C_3  and  N_6
REMARK    4  A    between atoms: C_9  and  N_11
REMARK    5  A    between atoms: N_11  and  S_12
REMARK    6  A    between atoms: S_12  and  C_15
REMARK    7  A    between atoms: C_16  and  C_17
REMARK                            x       y       z     vdW  Elec       q    Type
REMARK                         _______ _______ _______ _____ _____    ______ ____
ROOT
ATOM      1  N   UNL     1       9.054  -2.935  25.069  0.00  0.00    -0.289 N 
ATOM      2  C   UNL     1       9.620  -1.955  24.269  0.00  0.00    +0.235 C 
ATOM      3  O   UNL     1      10.337  -2.172  23.311  0.00  0.00    -0.274 OA
ATOM      4  C   UNL     1       9.181  -0.597  24.800  0.00  0.00    +0.164 C 
ATOM      5  C   UNL     1       8.086  -0.981  25.818  0.00  0.00    +0.049 C 
ATOM      6  C   UNL     1       8.419  -2.398  26.233  0.00  0.00    +0.110 C 
ENDROOT
BRANCH   1   7
ATOM      7  C   UNL     1       9.031  -4.353  24.718  0.00  0.00    +0.159 C 
ATOM      8  C   UNL     1       9.954  -5.135  25.658  0.00  0.00    +0.038 C 
BRANCH   7  10
ATOM      9  O   UNL     1       6.961  -5.280  25.644  0.00  0.00    -0.274 OA
ATOM     10  C   UNL     1       7.598  -4.952  24.642  0.00  0.00    +0.236 C 
ATOM     11  N   UNL     1       7.042  -5.067  23.367  0.00  0.00    -0.296 N 
ATOM     12  C   UNL     1       7.274  -4.084  22.305  0.00  0.00    +0.136 C 
ATOM     13  C   UNL     1       6.095  -3.104  22.245  0.00  0.00    +0.179 C 
ATOM     14  O   UNL     1       4.860  -3.807  22.035  0.00  0.00    -0.377 OA
ATOM     15  C   UNL     1       4.614  -4.739  23.107  0.00  0.00    +0.179 C 
ATOM     16  C   UNL     1       5.757  -5.756  23.225  0.00  0.00    +0.136 C 
ENDBRANCH   7  10
ENDBRANCH   1   7
BRANCH   4  17
ATOM     17  N   UNL     1       8.559   0.317  23.803  0.00  0.00    -0.179 NA
ATOM     18  H   UNL     1       7.751   0.793  24.207  0.00  0.00    +0.149 HD
BRANCH  17  19
ATOM     19  S   UNL     1       9.581   1.495  23.116  0.00  0.00    +0.052 S 
ATOM     20  O   UNL     1       9.705   1.280  21.695  0.00  0.00    -0.154 OA
ATOM     21  O   UNL     1      10.732   1.549  23.988  0.00  0.00    -0.154 OA
BRANCH  19  22
ATOM     22  C   UNL     1       8.686   2.963  23.321  0.00  0.00    +0.154 C 
ATOM     23  C   UNL     1       7.858   3.325  22.330  0.00  0.00    +0.035 C 
BRANCH  23  24
ATOM     24  C   UNL     1       7.086   4.516  22.375  0.00  0.00    +0.015 A 
ATOM     25  S   UNL     1       5.461   4.429  22.964  0.00  0.00    -0.077 S 
ATOM     26  C   UNL     1       5.227   6.086  22.753  0.00  0.00    +0.079 A 
ATOM     27 CL   UNL     1       3.723   6.794  23.179  0.00  0.00    -0.076 Cl
ATOM     28  C   UNL     1       6.318   6.732  22.241  0.00  0.00    +0.028 A 
ATOM     29  C   UNL     1       7.395   5.821  22.017  0.00  0.00    +0.017 A 
ENDBRANCH  23  24
ENDBRANCH  19  22
ENDBRANCH  17  19
ENDBRANCH   4  17
TORSDOF 6
ENDMDL
MODEL 2
REMARK VINA RESULT:      -6.9      2.649      3.152
REMARK  Name = 
REMARK  7 active torsions:
REMARK  status: ('A' for Active; 'I' for Inactive)
REMARK    1  A    between atoms: C_2  and  C_3
REMARK    2  A    between atoms: C_3  and  C_4
REMARK    3  A    between atoms: C_3  and  N_6
REMARK    4  A    between atoms: C_9  and  N_11
REMARK    5  A    between atoms: N_11  and  S_12
REMARK    6  A    between atoms: S_12  and  C_15
REMARK    7  A    between atoms: C_16  and  C_17
REMARK                            x       y       z     vdW  Elec       q    Type
REMARK                         _______ _______ _______ _____ _____    ______ ____
ROOT
ATOM      1  N   UNL     1       7.863  -4.007  25.672  0.00  0.00    -0.289 N 
ATOM      2  C   UNL     1       8.347  -3.807  24.389  0.00  0.00    +0.235 C 
ATOM      3  O   UNL     1       8.225  -4.598  23.472  0.00  0.00    -0.274 OA
ATOM      4  C   UNL     1       9.033  -2.449  24.346  0.00  0.00    +0.164 C 
ATOM      5  C   UNL     1       8.616  -1.827  25.695  0.00  0.00    +0.049 C 
ATOM      6  C   UNL     1       8.314  -3.009  26.593  0.00  0.00    +0.110 C 
ENDROOT
BRANCH   1   7
ATOM      7  C   UNL     1       6.925  -5.068  26.028  0.00  0.00    +0.159 C 
ATOM      8  C   UNL     1       7.244  -5.594  27.431  0.00  0.00    +0.038 C 
BRANCH   7  10
ATOM      9  O   UNL     1       4.992  -3.579  26.246  0.00  0.00    -0.274 OA
ATOM     10  C   UNL     1       5.433  -4.662  25.860  0.00  0.00    +0.236 C 
ATOM     11  N   UNL     1       4.611  -5.581  25.205  0.00  0.00    -0.296 N 
ATOM     12  C   UNL     1       5.075  -6.410  24.088  0.00  0.00    +0.136 C 
ATOM     13  C   UNL     1       4.658  -5.765  22.761  0.00  0.00    +0.179 C 
ATOM     14  O   UNL     1       3.235  -5.581  22.710  0.00  0.00    -0.377 OA
ATOM     15  C   UNL     1       2.790  -4.727  23.782  0.00  0.00    +0.179 C 
ATOM     16  C   UNL     1       3.172  -5.313  25.147  0.00  0.00    +0.136 C 
ENDBRANCH   7  10
ENDBRANCH   1   7
BRANCH   4  17
ATOM     17  N   UNL     1       8.575  -1.526  23.271  0.00  0.00    -0.179 NA
ATOM     18  H   UNL     1       8.070  -0.733  23.669  0.00  0.00    +0.149 HD
BRANCH  17  19
ATOM     19  S   UNL     1       9.780  -0.919  22.230  0.00  0.00    +0.052 S 
ATOM     20  O   UNL     1       9.206  -0.571  20.953  0.00  0.00    -0.154 OA
ATOM     21  O   UNL     1      10.882  -1.846  22.349  0.00  0.00    -0.154 OA
BRANCH  19  22
ATOM     22  C   UNL     1      10.246   0.566  22.989  0.00  0.00    +0.154 C 
ATOM     23  C   UNL     1       9.691   1.696  22.526  0.00  0.00    +0.035 C 
BRANCH  23  24
ATOM     24  C   UNL     1      10.008   2.976  23.055  0.00  0.00    +0.015 A 
ATOM     25  S   UNL     1       8.715   3.996  23.587  0.00  0.00    -0.077 S 
ATOM     26  C   UNL     1       9.783   5.213  24.058  0.00  0.00    +0.079 A 
ATOM     27 CL   UNL     1       9.173   6.658  24.755  0.00  0.00    -0.076 Cl
ATOM     28  C   UNL     1      11.096   4.908  23.828  0.00  0.00    +0.028 A 
ATOM     29  C   UNL     1      11.227   3.612  23.242  0.00  0.00    +0.017 A 
ENDBRANCH  23  24
ENDBRANCH  19  22
ENDBRANCH  17  19
ENDBRANCH   4  17
TORSDOF 6
ENDMDL
MODEL 3
REMARK VINA RESULT:      -6.9      4.010      7.993
REMARK  Name = 
REMARK  7 active torsions:
REMARK  status: ('A' for Active; 'I' for Inactive)
REMARK    1  A    between atoms: C_2  and  C_3
REMARK    2  A    between atoms: C_3  and  C_4
REMARK    3  A    between atoms: C_3  and  N_6
REMARK    4  A    between atoms: C_9  and  N_11
REMARK    5  A    between atoms: N_11  and  S_12
REMARK    6  A    between atoms: S_12  and  C_15
REMARK    7  A    between atoms: C_16  and  C_17
REMARK                            x       y       z     vdW  Elec       q    Type
REMARK                         _______ _______ _______ _____ _____    ______ ____
ROOT
ATOM      1  N   UNL     1       9.799   0.517  23.558  0.00  0.00    -0.289 N 
ATOM      2  C   UNL     1       9.703  -0.514  24.479  0.00  0.00    +0.235 C 
ATOM      3  O   UNL     1       9.653  -0.361  25.685  0.00  0.00    -0.274 OA
ATOM      4  C   UNL     1       9.670  -1.831  23.717  0.00  0.00    +0.164 C 
ATOM      5  C   UNL     1       9.482  -1.362  22.259  0.00  0.00    +0.049 C 
ATOM      6  C   UNL     1      10.036   0.046  22.227  0.00  0.00    +0.110 C 
ENDROOT
BRANCH   1   7
ATOM      7  C   UNL     1       9.592   1.923  23.891  0.00  0.00    +0.159 C 
ATOM      8  C   UNL     1      10.838   2.733  23.517  0.00  0.00    +0.038 C 
BRANCH   7  10
ATOM      9  O   UNL     1       8.123   2.697  22.090  0.00  0.00    -0.274 OA
ATOM     10  C   UNL     1       8.283   2.518  23.298  0.00  0.00    +0.236 C 
ATOM     11  N   UNL     1       7.266   2.809  24.209  0.00  0.00    -0.296 N 
ATOM     12  C   UNL     1       6.999   1.988  25.392  0.00  0.00    +0.136 C 
ATOM     13  C   UNL     1       5.847   1.019  25.097  0.00  0.00    +0.179 C 
ATOM     14  O   UNL     1       4.671   1.736  24.690  0.00  0.00    -0.377 OA
ATOM     15  C   UNL     1       4.927   2.506  23.498  0.00  0.00    +0.179 C 
ATOM     16  C   UNL     1       6.071   3.503  23.723  0.00  0.00    +0.136 C 
ENDBRANCH   7  10
ENDBRANCH   1   7
BRANCH   4  17
ATOM     17  N   UNL     1       8.533  -2.738  24.042  0.00  0.00    -0.179 NA
ATOM     18  H   UNL     1       8.173  -3.180  23.196  0.00  0.00    +0.149 HD
BRANCH  17  19
ATOM     19  S   UNL     1       8.845  -3.960  25.189  0.00  0.00    +0.052 S 
ATOM     20  O   UNL     1       8.697  -3.438  26.525  0.00  0.00    -0.154 OA
ATOM     21  O   UNL     1      10.064  -4.593  24.742  0.00  0.00    -0.154 OA
BRANCH  19  22
ATOM     22  C   UNL     1       7.542  -5.074  24.942  0.00  0.00    +0.154 C 
ATOM     23  C   UNL     1       6.355  -4.565  24.582  0.00  0.00    +0.035 C 
BRANCH  23  24
ATOM     24  C   UNL     1       5.208  -5.376  24.369  0.00  0.00    +0.015 A 
ATOM     25  S   UNL     1       3.950  -4.780  23.341  0.00  0.00    -0.077 S 
ATOM     26  C   UNL     1       3.031  -6.179  23.544  0.00  0.00    +0.079 A 
ATOM     27 CL   UNL     1       1.523  -6.331  22.740  0.00  0.00    -0.076 Cl
ATOM     28  C   UNL     1       3.614  -7.100  24.371  0.00  0.00    +0.028 A 
ATOM     29  C   UNL     1       4.873  -6.633  24.853  0.00  0.00    +0.017 A 
ENDBRANCH  23  24
ENDBRANCH  19  22
ENDBRANCH  17  19
ENDBRANCH   4  17
TORSDOF 6
ENDMDL
MODEL 4
REMARK VINA RESULT:      -6.9      2.100      2.280
REMARK  Name = 
REMARK  7 active torsions:
REMARK  status: ('A' for Active; 'I' for Inactive)
REMARK    1  A    between atoms: C_2  and  C_3
REMARK    2  A    between atoms: C_3  and  C_4
REMARK    3  A    between atoms: C_3  and  N_6
REMARK    4  A    between atoms: C_9  and  N_11
REMARK    5  A    between atoms: N_11  and  S_12
REMARK    6  A    between atoms: S_12  and  C_15
REMARK    7  A    between atoms: C_16  and  C_17
REMARK                            x       y       z     vdW  Elec       q    Type
REMARK                         _______ _______ _______ _____ _____    ______ ____
ROOT
ATOM      1  N   UNL     1       8.825  -2.895  24.962  0.00  0.00    -0.289 N 
ATOM      2  C   UNL     1       9.266  -2.041  23.964  0.00  0.00    +0.235 C 
ATOM      3  O   UNL     1       9.902  -2.389  22.987  0.00  0.00    -0.274 OA
ATOM      4  C   UNL     1       8.812  -0.630  24.311  0.00  0.00    +0.164 C 
ATOM      5  C   UNL     1       7.835  -0.878  25.480  0.00  0.00    +0.049 C 
ATOM      6  C   UNL     1       8.273  -2.196  26.082  0.00  0.00    +0.110 C 
ENDROOT
BRANCH   1   7
ATOM      7  C   UNL     1       8.839  -4.351  24.847  0.00  0.00    +0.159 C 
ATOM      8  C   UNL     1       9.780  -4.945  25.901  0.00  0.00    +0.038 C 
BRANCH   7  10
ATOM      9  O   UNL     1       6.820  -5.231  25.920  0.00  0.00    -0.274 OA
ATOM     10  C   UNL     1       7.422  -4.991  24.872  0.00  0.00    +0.236 C 
ATOM     11  N   UNL     1       6.838  -5.251  23.631  0.00  0.00    -0.296 N 
ATOM     12  C   UNL     1       7.015  -4.377  22.469  0.00  0.00    +0.136 C 
ATOM     13  C   UNL     1       5.808  -3.439  22.341  0.00  0.00    +0.179 C 
ATOM     14  O   UNL     1       4.589  -4.191  22.239  0.00  0.00    -0.377 OA
ATOM     15  C   UNL     1       4.396  -5.014  23.407  0.00  0.00    +0.179 C 
ATOM     16  C   UNL     1       5.569  -5.983  23.597  0.00  0.00    +0.136 C 
ENDBRANCH   7  10
ENDBRANCH   1   7
BRANCH   4  17
ATOM     17  N   UNL     1       8.057   0.087  23.246  0.00  0.00    -0.179 NA
ATOM     18  H   UNL     1       7.198   0.489  23.623  0.00  0.00    +0.149 HD
BRANCH  17  19
ATOM     19  S   UNL     1       8.899   1.316  22.418  0.00  0.00    +0.052 S 
ATOM     20  O   UNL     1       8.046   1.923  21.427  0.00  0.00    -0.154 OA
ATOM     21  O   UNL     1      10.176   0.733  22.078  0.00  0.00    -0.154 OA
BRANCH  19  22
ATOM     22  C   UNL     1       9.165   2.508  23.645  0.00  0.00    +0.154 C 
ATOM     23  C   UNL     1       9.089   3.796  23.281  0.00  0.00    +0.035 C 
BRANCH  23  24
ATOM     24  C   UNL     1       9.306   4.863  24.194  0.00  0.00    +0.015 A 
ATOM     25  S   UNL     1       8.269   4.998  25.573  0.00  0.00    -0.077 S 
ATOM     26  C   UNL     1       9.087   6.360  26.137  0.00  0.00    +0.079 A 
ATOM     27 CL   UNL     1       8.591   7.108  27.599  0.00  0.00    -0.076 Cl
ATOM     28  C   UNL     1      10.121   6.750  25.330  0.00  0.00    +0.028 A 
ATOM     29  C   UNL     1      10.245   5.885  24.201  0.00  0.00    +0.017 A 
ENDBRANCH  23  24
ENDBRANCH  19  22
ENDBRANCH  17  19
ENDBRANCH   4  17
TORSDOF 6
ENDMDL
MODEL 5
REMARK VINA RESULT:      -6.8      4.143      8.383
REMARK  Name = 
REMARK  7 active torsions:
REMARK  status: ('A' for Active; 'I' for Inactive)
REMARK    1  A    between atoms: C_2  and  C_3
REMARK    2  A    between atoms: C_3  and  C_4
REMARK    3  A    between atoms: C_3  and  N_6
REMARK    4  A    between atoms: C_9  and  N_11
REMARK    5  A    between atoms: N_11  and  S_12
REMARK    6  A    between atoms: S_12  and  C_15
REMARK    7  A    between atoms: C_16  and  C_17
REMARK                            x       y       z     vdW  Elec       q    Type
REMARK                         _______ _______ _______ _____ _____    ______ ____
ROOT
ATOM      1  N   UNL     1       9.598  -0.251  23.571  0.00  0.00    -0.289 N 
ATOM      2  C   UNL     1       8.814  -1.302  24.018  0.00  0.00    +0.235 C 
ATOM      3  O   UNL     1       8.543  -1.516  25.185  0.00  0.00    -0.274 OA
ATOM      4  C   UNL     1       8.368  -2.111  22.808  0.00  0.00    +0.164 C 
ATOM      5  C   UNL     1       8.785  -1.200  21.633  0.00  0.00    +0.049 C 
ATOM      6  C   UNL     1       9.913  -0.351  22.178  0.00  0.00    +0.110 C 
ENDROOT
BRANCH   1   7
ATOM      7  C   UNL     1       9.987   0.882  24.406  0.00  0.00    +0.159 C 
ATOM      8  C   UNL     1      11.460   0.750  24.807  0.00  0.00    +0.038 C 
BRANCH   7  10
ATOM      9  O   UNL     1      10.465   2.897  23.098  0.00  0.00    -0.274 OA
ATOM     10  C   UNL     1       9.654   2.264  23.775  0.00  0.00    +0.236 C 
ATOM     11  N   UNL     1       8.360   2.745  23.983  0.00  0.00    -0.296 N 
ATOM     12  C   UNL     1       7.184   1.871  24.023  0.00  0.00    +0.136 C 
ATOM     13  C   UNL     1       6.489   1.881  22.656  0.00  0.00    +0.179 C 
ATOM     14  O   UNL     1       6.126   3.218  22.279  0.00  0.00    -0.377 OA
ATOM     15  C   UNL     1       7.292   4.061  22.195  0.00  0.00    +0.179 C 
ATOM     16  C   UNL     1       8.039   4.102  23.534  0.00  0.00    +0.136 C 
ENDBRANCH   7  10
ENDBRANCH   1   7
BRANCH   4  17
ATOM     17  N   UNL     1       6.902  -2.344  22.690  0.00  0.00    -0.179 NA
ATOM     18  H   UNL     1       6.496  -1.732  21.981  0.00  0.00    +0.149 HD
BRANCH  17  19
ATOM     19  S   UNL     1       6.415  -3.942  22.353  0.00  0.00    +0.052 S 
ATOM     20  O   UNL     1       7.569  -4.778  22.132  0.00  0.00    -0.154 OA
ATOM     21  O   UNL     1       5.360  -3.815  21.374  0.00  0.00    -0.154 OA
BRANCH  19  22
ATOM     22  C   UNL     1       5.702  -4.460  23.844  0.00  0.00    +0.154 C 
ATOM     23  C   UNL     1       6.449  -5.227  24.651  0.00  0.00    +0.035 C 
BRANCH  23  24
ATOM     24  C   UNL     1       5.969  -5.729  25.890  0.00  0.00    +0.015 A 
ATOM     25  S   UNL     1       6.789  -5.272  27.344  0.00  0.00    -0.077 S 
ATOM     26  C   UNL     1       5.721  -6.158  28.302  0.00  0.00    +0.079 A 
ATOM     27 CL   UNL     1       5.914  -6.167  30.008  0.00  0.00    -0.076 Cl
ATOM     28  C   UNL     1       4.757  -6.812  27.586  0.00  0.00    +0.028 A 
ATOM     29  C   UNL     1       4.903  -6.567  26.187  0.00  0.00    +0.017 A 
ENDBRANCH  23  24
ENDBRANCH  19  22
ENDBRANCH  17  19
ENDBRANCH   4  17
TORSDOF 6
ENDMDL
MODEL 6
REMARK VINA RESULT:      -6.5      2.316      3.130
REMARK  Name = 
REMARK  7 active torsions:
REMARK  status: ('A' for Active; 'I' for Inactive)
REMARK    1  A    between atoms: C_2  and  C_3
REMARK    2  A    between atoms: C_3  and  C_4
REMARK    3  A    between atoms: C_3  and  N_6
REMARK    4  A    between atoms: C_9  and  N_11
REMARK    5  A    between atoms: N_11  and  S_12
REMARK    6  A    between atoms: S_12  and  C_15
REMARK    7  A    between atoms: C_16  and  C_17
REMARK                            x       y       z     vdW  Elec       q    Type
REMARK                         _______ _______ _______ _____ _____    ______ ____
ROOT
ATOM      1  N   UNL     1       7.685  -4.225  23.250  0.00  0.00    -0.289 N 
ATOM      2  C   UNL     1       8.293  -3.012  22.966  0.00  0.00    +0.235 C 
ATOM      3  O   UNL     1       8.023  -2.309  22.011  0.00  0.00    -0.274 OA
ATOM      4  C   UNL     1       9.327  -2.735  24.048  0.00  0.00    +0.164 C 
ATOM      5  C   UNL     1       9.003  -3.819  25.098  0.00  0.00    +0.049 C 
ATOM      6  C   UNL     1       8.327  -4.927  24.318  0.00  0.00    +0.110 C 
ENDROOT
BRANCH   1   7
ATOM      7  C   UNL     1       6.469  -4.695  22.591  0.00  0.00    +0.159 C 
ATOM      8  C   UNL     1       6.819  -5.791  21.578  0.00  0.00    +0.038 C 
BRANCH   7  10
ATOM      9  O   UNL     1       5.200  -6.288  23.952  0.00  0.00    -0.274 OA
ATOM     10  C   UNL     1       5.350  -5.123  23.581  0.00  0.00    +0.236 C 
ATOM     11  N   UNL     1       4.532  -4.102  24.069  0.00  0.00    -0.296 N 
ATOM     12  C   UNL     1       5.030  -2.755  24.364  0.00  0.00    +0.136 C 
ATOM     13  C   UNL     1       5.321  -2.632  25.865  0.00  0.00    +0.179 C 
ATOM     14  O   UNL     1       4.148  -2.928  26.637  0.00  0.00    -0.377 OA
ATOM     15  C   UNL     1       3.690  -4.271  26.379  0.00  0.00    +0.179 C 
ATOM     16  C   UNL     1       3.375  -4.467  24.891  0.00  0.00    +0.136 C 
ENDBRANCH   7  10
ENDBRANCH   1   7
BRANCH   4  17
ATOM     17  N   UNL     1       9.214  -1.413  24.727  0.00  0.00    -0.179 NA
ATOM     18  H   UNL     1       9.464  -1.493  25.714  0.00  0.00    +0.149 HD
BRANCH  17  19
ATOM     19  S   UNL     1      10.120  -0.137  24.052  0.00  0.00    +0.052 S 
ATOM     20  O   UNL     1      10.727  -0.559  22.813  0.00  0.00    -0.154 OA
ATOM     21  O   UNL     1      10.900   0.391  25.147  0.00  0.00    -0.154 OA
BRANCH  19  22
ATOM     22  C   UNL     1       8.911   1.032  23.642  0.00  0.00    +0.154 C 
ATOM     23  C   UNL     1       7.635   0.722  23.915  0.00  0.00    +0.035 C 
BRANCH  23  24
ATOM     24  C   UNL     1       6.554   1.591  23.607  0.00  0.00    +0.015 A 
ATOM     25  S   UNL     1       5.270   1.754  24.755  0.00  0.00    -0.077 S 
ATOM     26  C   UNL     1       4.454   2.864  23.784  0.00  0.00    +0.079 A 
ATOM     27 CL   UNL     1       2.972   3.541  24.323  0.00  0.00    -0.076 Cl
ATOM     28  C   UNL     1       5.092   3.129  22.603  0.00  0.00    +0.028 A 
ATOM     29  C   UNL     1       6.307   2.387  22.498  0.00  0.00    +0.017 A 
ENDBRANCH  23  24
ENDBRANCH  19  22
ENDBRANCH  17  19
ENDBRANCH   4  17
TORSDOF 6
ENDMDL
MODEL 7
REMARK VINA RESULT:      -6.4      4.257      8.477
REMARK  Name = 
REMARK  7 active torsions:
REMARK  status: ('A' for Active; 'I' for Inactive)
REMARK    1  A    between atoms: C_2  and  C_3
REMARK    2  A    between atoms: C_3  and  C_4
REMARK    3  A    between atoms: C_3  and  N_6
REMARK    4  A    between atoms: C_9  and  N_11
REMARK    5  A    between atoms: N_11  and  S_12
REMARK    6  A    between atoms: S_12  and  C_15
REMARK    7  A    between atoms: C_16  and  C_17
REMARK                            x       y       z     vdW  Elec       q    Type
REMARK                         _______ _______ _______ _____ _____    ______ ____
ROOT
ATOM      1  N   UNL     1       8.356  -1.608  24.355  0.00  0.00    -0.289 N 
ATOM      2  C   UNL     1       7.573  -2.740  24.190  0.00  0.00    +0.235 C 
ATOM      3  O   UNL     1       6.773  -3.153  25.008  0.00  0.00    -0.274 OA
ATOM      4  C   UNL     1       7.892  -3.344  22.830  0.00  0.00    +0.164 C 
ATOM      5  C   UNL     1       8.745  -2.239  22.171  0.00  0.00    +0.049 C 
ATOM      6  C   UNL     1       9.342  -1.465  23.328  0.00  0.00    +0.110 C 
ENDROOT
BRANCH   1   7
ATOM      7  C   UNL     1       8.141  -0.622  25.411  0.00  0.00    +0.159 C 
ATOM      8  C   UNL     1       8.748  -1.128  26.723  0.00  0.00    +0.038 C 
BRANCH   7  10
ATOM      9  O   UNL     1       9.807   1.141  25.069  0.00  0.00    -0.274 OA
ATOM     10  C   UNL     1       8.622   0.808  25.034  0.00  0.00    +0.236 C 
ATOM     11  N   UNL     1       7.637   1.701  24.609  0.00  0.00    -0.296 N 
ATOM     12  C   UNL     1       6.482   1.289  23.806  0.00  0.00    +0.136 C 
ATOM     13  C   UNL     1       6.756   1.581  22.325  0.00  0.00    +0.179 C 
ATOM     14  O   UNL     1       7.052   2.973  22.127  0.00  0.00    -0.377 OA
ATOM     15  C   UNL     1       8.216   3.361  22.883  0.00  0.00    +0.179 C 
ATOM     16  C   UNL     1       8.012   3.098  24.380  0.00  0.00    +0.136 C 
ENDBRANCH   7  10
ENDBRANCH   1   7
BRANCH   4  17
ATOM     17  N   UNL     1       6.723  -3.592  21.941  0.00  0.00    -0.179 NA
ATOM     18  H   UNL     1       6.828  -3.085  21.060  0.00  0.00    +0.149 HD
BRANCH  17  19
ATOM     19  S   UNL     1       6.381  -5.222  21.578  0.00  0.00    +0.052 S 
ATOM     20  O   UNL     1       7.467  -6.066  22.010  0.00  0.00    -0.154 OA
ATOM     21  O   UNL     1       5.911  -5.212  20.212  0.00  0.00    -0.154 OA
BRANCH  19  22
ATOM     22  C   UNL     1       5.033  -5.580  22.605  0.00  0.00    +0.154 C 
ATOM     23  C   UNL     1       5.269  -6.324  23.695  0.00  0.00    +0.035 C 
BRANCH  23  24
ATOM     24  C   UNL     1       4.241  -6.699  24.602  0.00  0.00    +0.015 A 
ATOM     25  S   UNL     1       4.442  -6.329  26.281  0.00  0.00    -0.077 S 
ATOM     26  C   UNL     1       2.946  -6.999  26.675  0.00  0.00    +0.079 A 
ATOM     27 CL   UNL     1       2.406  -6.979  28.304  0.00  0.00    -0.076 Cl
ATOM     28  C   UNL     1       2.277  -7.513  25.598  0.00  0.00    +0.028 A 
ATOM     29  C   UNL     1       3.030  -7.344  24.397  0.00  0.00    +0.017 A 
ENDBRANCH  23  24
ENDBRANCH  19  22
ENDBRANCH  17  19
ENDBRANCH   4  17
TORSDOF 6
ENDMDL
MODEL 8
REMARK VINA RESULT:      -6.3      4.060      8.995
REMARK  Name = 
REMARK  7 active torsions:
REMARK  status: ('A' for Active; 'I' for Inactive)
REMARK    1  A    between atoms: C_2  and  C_3
REMARK    2  A    between atoms: C_3  and  C_4
REMARK    3  A    between atoms: C_3  and  N_6
REMARK    4  A    between atoms: C_9  and  N_11
REMARK    5  A    between atoms: N_11  and  S_12
REMARK    6  A    between atoms: S_12  and  C_15
REMARK    7  A    between atoms: C_16  and  C_17
REMARK                            x       y       z     vdW  Elec       q    Type
REMARK                         _______ _______ _______ _____ _____    ______ ____
ROOT
ATOM      1  N   UNL     1       7.816   3.266  24.203  0.00  0.00    -0.289 N 
ATOM      2  C   UNL     1       8.137   2.431  23.144  0.00  0.00    +0.235 C 
ATOM      3  O   UNL     1       8.209   2.785  21.982  0.00  0.00    -0.274 OA
ATOM      4  C   UNL     1       8.378   1.034  23.696  0.00  0.00    +0.164 C 
ATOM      5  C   UNL     1       8.416   1.284  25.219  0.00  0.00    +0.049 C 
ATOM      6  C   UNL     1       7.613   2.550  25.426  0.00  0.00    +0.110 C 
ENDROOT
BRANCH   1   7
ATOM      7  C   UNL     1       7.777   4.722  24.104  0.00  0.00    +0.159 C 
ATOM      8  C   UNL     1       6.325   5.207  24.175  0.00  0.00    +0.038 C 
BRANCH   7  10
ATOM      9  O   UNL     1       8.631   5.250  26.338  0.00  0.00    -0.274 OA
ATOM     10  C   UNL     1       8.705   5.441  25.124  0.00  0.00    +0.236 C 
ATOM     11  N   UNL     1       9.668   6.298  24.588  0.00  0.00    -0.296 N 
ATOM     12  C   UNL     1      10.359   6.028  23.325  0.00  0.00    +0.136 C 
ATOM     13  C   UNL     1      11.727   5.395  23.612  0.00  0.00    +0.179 C 
ATOM     14  O   UNL     1      12.514   6.247  24.459  0.00  0.00    -0.377 OA
ATOM     15  C   UNL     1      11.850   6.471  25.719  0.00  0.00    +0.179 C 
ATOM     16  C   UNL     1      10.471   7.108  25.507  0.00  0.00    +0.136 C 
ENDBRANCH   7  10
ENDBRANCH   1   7
BRANCH   4  17
ATOM     17  N   UNL     1       9.673   0.403  23.318  0.00  0.00    -0.179 NA
ATOM     18  H   UNL     1      10.157   0.051  24.145  0.00  0.00    +0.149 HD
BRANCH  17  19
ATOM     19  S   UNL     1       9.595  -0.856  22.172  0.00  0.00    +0.052 S 
ATOM     20  O   UNL     1      10.675  -1.789  22.383  0.00  0.00    -0.154 OA
ATOM     21  O   UNL     1       9.386  -0.198  20.903  0.00  0.00    -0.154 OA
BRANCH  19  22
ATOM     22  C   UNL     1       8.133  -1.684  22.593  0.00  0.00    +0.154 C 
ATOM     23  C   UNL     1       8.145  -3.023  22.540  0.00  0.00    +0.035 C 
BRANCH  23  24
ATOM     24  C   UNL     1       7.003  -3.811  22.844  0.00  0.00    +0.015 A 
ATOM     25  S   UNL     1       7.074  -4.886  24.198  0.00  0.00    -0.077 S 
ATOM     26  C   UNL     1       5.488  -5.404  23.954  0.00  0.00    +0.079 A 
ATOM     27 CL   UNL     1       4.796  -6.560  25.017  0.00  0.00    -0.076 Cl
ATOM     28  C   UNL     1       4.880  -4.815  22.879  0.00  0.00    +0.028 A 
ATOM     29  C   UNL     1       5.760  -3.895  22.232  0.00  0.00    +0.017 A 
ENDBRANCH  23  24
ENDBRANCH  19  22
ENDBRANCH  17  19
ENDBRANCH   4  17
TORSDOF 6
ENDMDL
MODEL 9
REMARK VINA RESULT:      -6.3      4.327      8.086
REMARK  Name = 
REMARK  7 active torsions:
REMARK  status: ('A' for Active; 'I' for Inactive)
REMARK    1  A    between atoms: C_2  and  C_3
REMARK    2  A    between atoms: C_3  and  C_4
REMARK    3  A    between atoms: C_3  and  N_6
REMARK    4  A    between atoms: C_9  and  N_11
REMARK    5  A    between atoms: N_11  and  S_12
REMARK    6  A    between atoms: S_12  and  C_15
REMARK    7  A    between atoms: C_16  and  C_17
REMARK                            x       y       z     vdW  Elec       q    Type
REMARK                         _______ _______ _______ _____ _____    ______ ____
ROOT
ATOM      1  N   UNL     1       9.935   0.274  23.602  0.00  0.00    -0.289 N 
ATOM      2  C   UNL     1       9.769  -0.778  24.489  0.00  0.00    +0.235 C 
ATOM      3  O   UNL     1       9.692  -0.659  25.697  0.00  0.00    -0.274 OA
ATOM      4  C   UNL     1       9.698  -2.069  23.686  0.00  0.00    +0.164 C 
ATOM      5  C   UNL     1       9.571  -1.549  22.238  0.00  0.00    +0.049 C 
ATOM      6  C   UNL     1      10.188  -0.167  22.264  0.00  0.00    +0.110 C 
ENDROOT
BRANCH   1   7
ATOM      7  C   UNL     1       9.782   1.678  23.973  0.00  0.00    +0.159 C 
ATOM      8  C   UNL     1      10.187   2.573  22.797  0.00  0.00    +0.038 C 
BRANCH   7  10
ATOM      9  O   UNL     1       8.213   2.578  25.625  0.00  0.00    -0.274 OA
ATOM     10  C   UNL     1       8.374   2.022  24.538  0.00  0.00    +0.236 C 
ATOM     11  N   UNL     1       7.285   1.702  23.725  0.00  0.00    -0.296 N 
ATOM     12  C   UNL     1       7.324   1.811  22.264  0.00  0.00    +0.136 C 
ATOM     13  C   UNL     1       6.687   3.137  21.831  0.00  0.00    +0.179 C 
ATOM     14  O   UNL     1       5.341   3.240  22.320  0.00  0.00    -0.377 OA
ATOM     15  C   UNL     1       5.314   3.179  23.761  0.00  0.00    +0.179 C 
ATOM     16  C   UNL     1       5.935   1.872  24.267  0.00  0.00    +0.136 C 
ENDBRANCH   7  10
ENDBRANCH   1   7
BRANCH   4  17
ATOM     17  N   UNL     1       8.514  -2.933  23.952  0.00  0.00    -0.179 NA
ATOM     18  H   UNL     1       8.175  -3.356  23.087  0.00  0.00    +0.149 HD
BRANCH  17  19
ATOM     19  S   UNL     1       8.727  -4.174  25.101  0.00  0.00    +0.052 S 
ATOM     20  O   UNL     1       8.534  -3.656  26.433  0.00  0.00    -0.154 OA
ATOM     21  O   UNL     1       9.943  -4.847  24.707  0.00  0.00    -0.154 OA
BRANCH  19  22
ATOM     22  C   UNL     1       7.398  -5.238  24.783  0.00  0.00    +0.154 C 
ATOM     23  C   UNL     1       6.219  -4.679  24.476  0.00  0.00    +0.035 C 
BRANCH  23  24
ATOM     24  C   UNL     1       5.053  -5.447  24.214  0.00  0.00    +0.015 A 
ATOM     25  S   UNL     1       4.631  -6.714  25.315  0.00  0.00    -0.077 S 
ATOM     26  C   UNL     1       3.253  -7.113  24.429  0.00  0.00    +0.079 A 
ATOM     27 CL   UNL     1       2.230  -8.381  24.970  0.00  0.00    -0.076 Cl
ATOM     28  C   UNL     1       3.078  -6.342  23.313  0.00  0.00    +0.028 A 
ATOM     29  C   UNL     1       4.125  -5.380  23.185  0.00  0.00    +0.017 A 
ENDBRANCH  23  24
ENDBRANCH  19  22
ENDBRANCH  17  19
ENDBRANCH   4  17
TORSDOF 6
ENDMDL
