MODEL 1
REMARK VINA RESULT:      -7.2      0.000      0.000
REMARK  Name = 
REMARK  6 active torsions:
REMARK  status: ('A' for Active; 'I' for Inactive)
REMARK    1  A    between atoms: C_2  and  O_3
REMARK    2  A    between atoms: C_2  and  C_7
REMARK    3  A    between atoms: C_2  and  C_23
REMARK    4  A    between atoms: O_3  and  C_4
REMARK    5  A    between atoms: C_4  and  C_5
REMARK    6  A    between atoms: N_9  and  C_10
REMARK                            x       y       z     vdW  Elec       q    Type
REMARK                         _______ _______ _______ _____ _____    ______ ____
ROOT
ATOM      1  C   UNL     1       8.782  -2.072  23.302  0.00  0.00    +0.263 C 
ATOM      2  N   UNL     1       8.709  -1.046  24.238  0.00  0.00    -0.282 N 
ATOM      3  H   UNL     1       8.640  -1.331  25.218  0.00  0.00    +0.155 HD
ATOM      4  O   UNL     1       8.989  -1.915  22.098  0.00  0.00    -0.271 OA
ENDROOT
BRANCH   2   5
ATOM      5  C   UNL     1       8.993   0.323  24.009  0.00  0.00    +0.045 A 
ATOM      6  C   UNL     1       7.946   1.267  23.911  0.00  0.00    +0.060 A 
ATOM      7  C   UNL     1       6.530   0.874  24.058  0.00  0.00    +0.250 C 
ATOM      8  C   UNL     1       5.494   1.984  24.202  0.00  0.00    +0.291 C 
ATOM      9  N   UNL     1       5.860   3.188  23.670  0.00  0.00    -0.246 N 
ATOM     10  H   UNL     1       5.172   3.924  23.764  0.00  0.00    +0.158 HD
ATOM     11  C   UNL     1       7.151   3.635  23.617  0.00  0.00    +0.251 C 
ATOM     12  O   UNL     1       7.402   4.833  23.528  0.00  0.00    -0.270 OA
ATOM     13  O   UNL     1       4.447   1.800  24.802  0.00  0.00    -0.266 OA
ATOM     14  O   UNL     1       6.183  -0.300  24.054  0.00  0.00    -0.282 OA
ATOM     15  C   UNL     1       8.230   2.625  23.725  0.00  0.00    +0.050 A 
ATOM     16  C   UNL     1       9.557   3.060  23.640  0.00  0.00    +0.014 A 
ATOM     17  C   UNL     1      10.594   2.138  23.716  0.00  0.00    +0.003 A 
ATOM     18  C   UNL     1      10.312   0.782  23.889  0.00  0.00    +0.024 A 
ENDBRANCH   2   5
BRANCH   1  19
ATOM     19  C   UNL     1       8.607  -3.501  23.892  0.00  0.00    +0.292 C 
BRANCH  19  20
ATOM     20  C   UNL     1       7.389  -4.220  23.302  0.00  0.00    +0.002 A 
ATOM     21  C   UNL     1       7.557  -5.414  22.572  0.00  0.00    +0.008 A 
ATOM     22  C   UNL     1       6.457  -6.136  22.098  0.00  0.00    +0.000 A 
ATOM     23  C   UNL     1       5.165  -5.686  22.356  0.00  0.00    +0.000 A 
ATOM     24  C   UNL     1       4.977  -4.505  23.069  0.00  0.00    +0.000 A 
ATOM     25  C   UNL     1       6.077  -3.777  23.535  0.00  0.00    +0.008 A 
ENDBRANCH  19  20
BRANCH  19  26
ATOM     26  O   UNL     1       8.569  -3.515  25.332  0.00  0.00    -0.447 OA
BRANCH  26  27
ATOM     27  C   UNL     1       8.958  -4.688  25.906  0.00  0.00    +0.305 C 
ATOM     28  O   UNL     1      10.052  -5.211  25.753  0.00  0.00    -0.251 OA
ATOM     29  C   UNL     1       7.899  -5.214  26.825  0.00  0.00    +0.136 C 
ENDBRANCH  26  27
ENDBRANCH  19  26
ENDBRANCH   1  19
TORSDOF 5
ENDMDL
MODEL 2
REMARK VINA RESULT:      -7.1      1.779      2.918
REMARK  Name = 
REMARK  6 active torsions:
REMARK  status: ('A' for Active; 'I' for Inactive)
REMARK    1  A    between atoms: C_2  and  O_3
REMARK    2  A    between atoms: C_2  and  C_7
REMARK    3  A    between atoms: C_2  and  C_23
REMARK    4  A    between atoms: O_3  and  C_4
REMARK    5  A    between atoms: C_4  and  C_5
REMARK    6  A    between atoms: N_9  and  C_10
REMARK                            x       y       z     vdW  Elec       q    Type
REMARK                         _______ _______ _______ _____ _____    ______ ____
ROOT
ATOM      1  C   UNL     1       8.290  -2.076  22.794  0.00  0.00    +0.263 C 
ATOM      2  N   UNL     1       8.132  -0.953  23.600  0.00  0.00    -0.282 N 
ATOM      3  H   UNL     1       7.387  -0.998  24.298  0.00  0.00    +0.155 HD
ATOM      4  O   UNL     1       9.206  -2.243  21.988  0.00  0.00    -0.271 OA
ENDROOT
BRANCH   2   5
ATOM      5  C   UNL     1       9.051   0.116  23.742  0.00  0.00    +0.045 A 
ATOM      6  C   UNL     1       8.674   1.436  23.409  0.00  0.00    +0.060 A 
ATOM      7  C   UNL     1       7.318   1.756  22.920  0.00  0.00    +0.250 C 
ATOM      8  C   UNL     1       6.918   3.226  22.840  0.00  0.00    +0.291 C 
ATOM      9  N   UNL     1       7.960   4.101  22.711  0.00  0.00    -0.246 N 
ATOM     10  H   UNL     1       7.694   5.076  22.656  0.00  0.00    +0.158 HD
ATOM     11  C   UNL     1       9.201   3.890  23.246  0.00  0.00    +0.251 C 
ATOM     12  O   UNL     1       9.960   4.828  23.472  0.00  0.00    -0.270 OA
ATOM     13  O   UNL     1       5.753   3.573  22.941  0.00  0.00    -0.266 OA
ATOM     14  O   UNL     1       6.533   0.883  22.577  0.00  0.00    -0.282 OA
ATOM     15  C   UNL     1       9.570   2.497  23.588  0.00  0.00    +0.050 A 
ATOM     16  C   UNL     1      10.847   2.257  24.106  0.00  0.00    +0.014 A 
ATOM     17  C   UNL     1      11.236   0.960  24.418  0.00  0.00    +0.003 A 
ATOM     18  C   UNL     1      10.347  -0.100  24.228  0.00  0.00    +0.024 A 
ENDBRANCH   2   5
BRANCH   1  19
ATOM     19  C   UNL     1       7.208  -3.175  22.995  0.00  0.00    +0.292 C 
BRANCH  19  20
ATOM     20  C   UNL     1       7.405  -3.942  24.308  0.00  0.00    +0.002 A 
ATOM     21  C   UNL     1       8.625  -4.601  24.565  0.00  0.00    +0.008 A 
ATOM     22  C   UNL     1       8.863  -5.234  25.789  0.00  0.00    +0.000 A 
ATOM     23  C   UNL     1       7.893  -5.210  26.786  0.00  0.00    +0.000 A 
ATOM     24  C   UNL     1       6.678  -4.571  26.550  0.00  0.00    +0.000 A 
ATOM     25  C   UNL     1       6.434  -3.945  25.322  0.00  0.00    +0.008 A 
ENDBRANCH  19  20
BRANCH  19  26
ATOM     26  O   UNL     1       7.108  -4.079  21.878  0.00  0.00    -0.447 OA
BRANCH  26  27
ATOM     27  C   UNL     1       6.077  -4.967  21.948  0.00  0.00    +0.305 C 
ATOM     28  O   UNL     1       4.894  -4.663  21.998  0.00  0.00    -0.251 OA
ATOM     29  C   UNL     1       6.576  -6.377  21.867  0.00  0.00    +0.136 C 
ENDBRANCH  26  27
ENDBRANCH  19  26
ENDBRANCH   1  19
TORSDOF 5
ENDMDL
MODEL 3
REMARK VINA RESULT:      -7.0      1.947      2.915
REMARK  Name = 
REMARK  6 active torsions:
REMARK  status: ('A' for Active; 'I' for Inactive)
REMARK    1  A    between atoms: C_2  and  O_3
REMARK    2  A    between atoms: C_2  and  C_7
REMARK    3  A    between atoms: C_2  and  C_23
REMARK    4  A    between atoms: O_3  and  C_4
REMARK    5  A    between atoms: C_4  and  C_5
REMARK    6  A    between atoms: N_9  and  C_10
REMARK                            x       y       z     vdW  Elec       q    Type
REMARK                         _______ _______ _______ _____ _____    ______ ____
ROOT
ATOM      1  C   UNL     1       6.844  -2.161  25.171  0.00  0.00    +0.263 C 
ATOM      2  N   UNL     1       7.767  -1.344  25.815  0.00  0.00    -0.282 N 
ATOM      3  H   UNL     1       8.610  -1.803  26.166  0.00  0.00    +0.155 HD
ATOM      4  O   UNL     1       5.837  -1.762  24.585  0.00  0.00    -0.271 OA
ENDROOT
BRANCH   2   5
ATOM      5  C   UNL     1       7.795   0.072  25.794  0.00  0.00    +0.045 A 
ATOM      6  C   UNL     1       8.529   0.762  24.804  0.00  0.00    +0.060 A 
ATOM      7  C   UNL     1       9.277   0.045  23.751  0.00  0.00    +0.250 C 
ATOM      8  C   UNL     1       9.816   0.859  22.580  0.00  0.00    +0.291 C 
ATOM      9  N   UNL     1      10.030   2.182  22.847  0.00  0.00    -0.246 N 
ATOM     10  H   UNL     1      10.390   2.722  22.070  0.00  0.00    +0.158 HD
ATOM     11  C   UNL     1       9.286   2.909  23.735  0.00  0.00    +0.251 C 
ATOM     12  O   UNL     1       9.221   4.132  23.653  0.00  0.00    -0.270 OA
ATOM     13  O   UNL     1       9.983   0.356  21.481  0.00  0.00    -0.266 OA
ATOM     14  O   UNL     1       9.475  -1.162  23.809  0.00  0.00    -0.282 OA
ATOM     15  C   UNL     1       8.523   2.161  24.762  0.00  0.00    +0.050 A 
ATOM     16  C   UNL     1       7.782   2.889  25.698  0.00  0.00    +0.014 A 
ATOM     17  C   UNL     1       7.071   2.222  26.688  0.00  0.00    +0.003 A 
ATOM     18  C   UNL     1       7.087   0.827  26.739  0.00  0.00    +0.024 A 
ENDBRANCH   2   5
BRANCH   1  19
ATOM     19  C   UNL     1       7.183  -3.679  25.210  0.00  0.00    +0.292 C 
BRANCH  19  20
ATOM     20  C   UNL     1       6.658  -4.417  23.974  0.00  0.00    +0.002 A 
ATOM     21  C   UNL     1       7.456  -4.516  22.816  0.00  0.00    +0.008 A 
ATOM     22  C   UNL     1       7.037  -5.256  21.707  0.00  0.00    +0.000 A 
ATOM     23  C   UNL     1       5.818  -5.926  21.737  0.00  0.00    +0.000 A 
ATOM     24  C   UNL     1       5.010  -5.836  22.868  0.00  0.00    +0.000 A 
ATOM     25  C   UNL     1       5.423  -5.087  23.975  0.00  0.00    +0.008 A 
ENDBRANCH  19  20
BRANCH  19  26
ATOM     26  O   UNL     1       6.745  -4.323  26.422  0.00  0.00    -0.447 OA
BRANCH  26  27
ATOM     27  C   UNL     1       7.685  -5.097  27.033  0.00  0.00    +0.305 C 
ATOM     28  O   UNL     1       7.443  -5.986  27.837  0.00  0.00    -0.251 OA
ATOM     29  C   UNL     1       9.057  -4.777  26.527  0.00  0.00    +0.136 C 
ENDBRANCH  26  27
ENDBRANCH  19  26
ENDBRANCH   1  19
TORSDOF 5
ENDMDL
MODEL 4
REMARK VINA RESULT:      -6.9      1.884      3.164
REMARK  Name = 
REMARK  6 active torsions:
REMARK  status: ('A' for Active; 'I' for Inactive)
REMARK    1  A    between atoms: C_2  and  O_3
REMARK    2  A    between atoms: C_2  and  C_7
REMARK    3  A    between atoms: C_2  and  C_23
REMARK    4  A    between atoms: O_3  and  C_4
REMARK    5  A    between atoms: C_4  and  C_5
REMARK    6  A    between atoms: N_9  and  C_10
REMARK                            x       y       z     vdW  Elec       q    Type
REMARK                         _______ _______ _______ _____ _____    ______ ____
ROOT
ATOM      1  C   UNL     1       8.339  -2.071  23.398  0.00  0.00    +0.263 C 
ATOM      2  N   UNL     1       7.830  -0.865  22.927  0.00  0.00    -0.282 N 
ATOM      3  H   UNL     1       6.820  -0.831  22.769  0.00  0.00    +0.155 HD
ATOM      4  O   UNL     1       9.503  -2.255  23.755  0.00  0.00    -0.271 OA
ENDROOT
BRANCH   2   5
ATOM      5  C   UNL     1       8.504   0.380  22.906  0.00  0.00    +0.045 A 
ATOM      6  C   UNL     1       8.218   1.369  23.874  0.00  0.00    +0.060 A 
ATOM      7  C   UNL     1       7.228   1.142  24.946  0.00  0.00    +0.250 C 
ATOM      8  C   UNL     1       7.176   2.147  26.092  0.00  0.00    +0.291 C 
ATOM      9  N   UNL     1       7.639   3.396  25.785  0.00  0.00    -0.246 N 
ATOM     10  H   UNL     1       7.602   4.063  26.546  0.00  0.00    +0.158 HD
ATOM     11  C   UNL     1       8.633   3.637  24.878  0.00  0.00    +0.251 C 
ATOM     12  O   UNL     1       9.293   4.671  24.924  0.00  0.00    -0.270 OA
ATOM     13  O   UNL     1       6.797   1.821  27.205  0.00  0.00    -0.266 OA
ATOM     14  O   UNL     1       6.461   0.189  24.924  0.00  0.00    -0.282 OA
ATOM     15  C   UNL     1       8.914   2.583  23.875  0.00  0.00    +0.050 A 
ATOM     16  C   UNL     1       9.905   2.826  22.919  0.00  0.00    +0.014 A 
ATOM     17  C   UNL     1      10.182   1.869  21.950  0.00  0.00    +0.003 A 
ATOM     18  C   UNL     1       9.480   0.662  21.940  0.00  0.00    +0.024 A 
ENDBRANCH   2   5
BRANCH   1  19
ATOM     19  C   UNL     1       7.299  -3.226  23.479  0.00  0.00    +0.292 C 
BRANCH  19  20
ATOM     20  C   UNL     1       7.187  -3.800  24.896  0.00  0.00    +0.002 A 
ATOM     21  C   UNL     1       6.267  -3.251  25.812  0.00  0.00    +0.008 A 
ATOM     22  C   UNL     1       6.083  -3.810  27.080  0.00  0.00    +0.000 A 
ATOM     23  C   UNL     1       6.806  -4.939  27.454  0.00  0.00    +0.000 A 
ATOM     24  C   UNL     1       7.725  -5.494  26.567  0.00  0.00    +0.000 A 
ATOM     25  C   UNL     1       7.917  -4.929  25.302  0.00  0.00    +0.008 A 
ENDBRANCH  19  20
BRANCH  19  26
ATOM     26  O   UNL     1       7.539  -4.269  22.515  0.00  0.00    -0.447 OA
BRANCH  26  27
ATOM     27  C   UNL     1       6.477  -4.569  21.716  0.00  0.00    +0.305 C 
ATOM     28  O   UNL     1       5.691  -3.751  21.262  0.00  0.00    -0.251 OA
ATOM     29  C   UNL     1       6.446  -6.031  21.390  0.00  0.00    +0.136 C 
ENDBRANCH  26  27
ENDBRANCH  19  26
ENDBRANCH   1  19
TORSDOF 5
ENDMDL
MODEL 5
REMARK VINA RESULT:      -6.9      2.474      7.261
REMARK  Name = 
REMARK  6 active torsions:
REMARK  status: ('A' for Active; 'I' for Inactive)
REMARK    1  A    between atoms: C_2  and  O_3
REMARK    2  A    between atoms: C_2  and  C_7
REMARK    3  A    between atoms: C_2  and  C_23
REMARK    4  A    between atoms: O_3  and  C_4
REMARK    5  A    between atoms: C_4  and  C_5
REMARK    6  A    between atoms: N_9  and  C_10
REMARK                            x       y       z     vdW  Elec       q    Type
REMARK                         _______ _______ _______ _____ _____    ______ ____
ROOT
ATOM      1  C   UNL     1       7.049  -0.996  24.339  0.00  0.00    +0.263 C 
ATOM      2  N   UNL     1       7.505  -2.308  24.415  0.00  0.00    -0.282 N 
ATOM      3  H   UNL     1       8.496  -2.455  24.212  0.00  0.00    +0.155 HD
ATOM      4  O   UNL     1       5.923  -0.621  24.665  0.00  0.00    -0.271 OA
ENDROOT
BRANCH   2   5
ATOM      5  C   UNL     1       6.823  -3.402  25.001  0.00  0.00    +0.045 A 
ATOM      6  C   UNL     1       6.194  -4.374  24.189  0.00  0.00    +0.060 A 
ATOM      7  C   UNL     1       6.235  -4.299  22.715  0.00  0.00    +0.250 C 
ATOM      8  C   UNL     1       5.765  -5.517  21.927  0.00  0.00    +0.291 C 
ATOM      9  N   UNL     1       4.884  -6.327  22.587  0.00  0.00    -0.246 N 
ATOM     10  H   UNL     1       4.571  -7.134  22.062  0.00  0.00    +0.158 HD
ATOM     11  C   UNL     1       4.887  -6.508  23.942  0.00  0.00    +0.251 C 
ATOM     12  O   UNL     1       4.391  -7.511  24.446  0.00  0.00    -0.270 OA
ATOM     13  O   UNL     1       6.200  -5.758  20.813  0.00  0.00    -0.266 OA
ATOM     14  O   UNL     1       6.621  -3.295  22.131  0.00  0.00    -0.282 OA
ATOM     15  C   UNL     1       5.555  -5.476  24.769  0.00  0.00    +0.050 A 
ATOM     16  C   UNL     1       5.539  -5.628  26.159  0.00  0.00    +0.014 A 
ATOM     17  C   UNL     1       6.138  -4.669  26.968  0.00  0.00    +0.003 A 
ATOM     18  C   UNL     1       6.765  -3.563  26.392  0.00  0.00    +0.024 A 
ENDBRANCH   2   5
BRANCH   1  19
ATOM     19  C   UNL     1       8.101   0.026  23.819  0.00  0.00    +0.292 C 
BRANCH  19  20
ATOM     20  C   UNL     1       7.485   1.408  23.573  0.00  0.00    +0.002 A 
ATOM     21  C   UNL     1       7.607   2.420  24.546  0.00  0.00    +0.008 A 
ATOM     22  C   UNL     1       7.131   3.714  24.312  0.00  0.00    +0.000 A 
ATOM     23  C   UNL     1       6.536   4.027  23.093  0.00  0.00    +0.000 A 
ATOM     24  C   UNL     1       6.400   3.040  22.120  0.00  0.00    +0.000 A 
ATOM     25  C   UNL     1       6.866   1.742  22.357  0.00  0.00    +0.008 A 
ENDBRANCH  19  20
BRANCH  19  26
ATOM     26  O   UNL     1       8.810  -0.439  22.654  0.00  0.00    -0.447 OA
BRANCH  26  27
ATOM     27  C   UNL     1      10.108  -0.789  22.874  0.00  0.00    +0.305 C 
ATOM     28  O   UNL     1      10.675  -1.736  22.348  0.00  0.00    -0.251 OA
ATOM     29  C   UNL     1      10.783   0.192  23.782  0.00  0.00    +0.136 C 
ENDBRANCH  26  27
ENDBRANCH  19  26
ENDBRANCH   1  19
TORSDOF 5
ENDMDL
MODEL 6
REMARK VINA RESULT:      -6.8      2.750      7.206
REMARK  Name = 
REMARK  6 active torsions:
REMARK  status: ('A' for Active; 'I' for Inactive)
REMARK    1  A    between atoms: C_2  and  O_3
REMARK    2  A    between atoms: C_2  and  C_7
REMARK    3  A    between atoms: C_2  and  C_23
REMARK    4  A    between atoms: O_3  and  C_4
REMARK    5  A    between atoms: C_4  and  C_5
REMARK    6  A    between atoms: N_9  and  C_10
REMARK                            x       y       z     vdW  Elec       q    Type
REMARK                         _______ _______ _______ _____ _____    ______ ____
ROOT
ATOM      1  C   UNL     1       7.823  -1.708  23.823  0.00  0.00    +0.263 C 
ATOM      2  N   UNL     1       8.104  -3.070  23.812  0.00  0.00    -0.282 N 
ATOM      3  H   UNL     1       8.927  -3.367  24.342  0.00  0.00    +0.155 HD
ATOM      4  O   UNL     1       6.813  -1.192  23.343  0.00  0.00    -0.271 OA
ENDROOT
BRANCH   2   5
ATOM      5  C   UNL     1       7.235  -4.105  23.385  0.00  0.00    +0.045 A 
ATOM      6  C   UNL     1       6.572  -4.920  24.329  0.00  0.00    +0.060 A 
ATOM      7  C   UNL     1       6.742  -4.722  25.783  0.00  0.00    +0.250 C 
ATOM      8  C   UNL     1       5.793  -5.464  26.718  0.00  0.00    +0.291 C 
ATOM      9  N   UNL     1       5.251  -6.607  26.202  0.00  0.00    -0.246 N 
ATOM     10  H   UNL     1       4.623  -7.101  26.824  0.00  0.00    +0.158 HD
ATOM     11  C   UNL     1       4.976  -6.786  24.875  0.00  0.00    +0.251 C 
ATOM     12  O   UNL     1       4.142  -7.608  24.507  0.00  0.00    -0.270 OA
ATOM     13  O   UNL     1       5.514  -5.021  27.821  0.00  0.00    -0.266 OA
ATOM     14  O   UNL     1       7.616  -3.996  26.237  0.00  0.00    -0.282 OA
ATOM     15  C   UNL     1       5.683  -5.916  23.906  0.00  0.00    +0.050 A 
ATOM     16  C   UNL     1       5.439  -6.106  22.542  0.00  0.00    +0.014 A 
ATOM     17  C   UNL     1       6.100  -5.322  21.605  0.00  0.00    +0.003 A 
ATOM     18  C   UNL     1       6.996  -4.338  22.025  0.00  0.00    +0.024 A 
ENDBRANCH   2   5
BRANCH   1  19
ATOM     19  C   UNL     1       8.895  -0.831  24.532  0.00  0.00    +0.292 C 
BRANCH  19  20
ATOM     20  C   UNL     1       8.275   0.094  25.585  0.00  0.00    +0.002 A 
ATOM     21  C   UNL     1       8.057   1.456  25.290  0.00  0.00    +0.008 A 
ATOM     22  C   UNL     1       7.414   2.301  26.199  0.00  0.00    +0.000 A 
ATOM     23  C   UNL     1       6.963   1.801  27.417  0.00  0.00    +0.000 A 
ATOM     24  C   UNL     1       7.174   0.461  27.731  0.00  0.00    +0.000 A 
ATOM     25  C   UNL     1       7.827  -0.384  26.826  0.00  0.00    +0.008 A 
ENDBRANCH  19  20
BRANCH  19  26
ATOM     26  O   UNL     1       9.715  -0.088  23.609  0.00  0.00    -0.447 OA
BRANCH  26  27
ATOM     27  C   UNL     1      10.014  -0.742  22.451  0.00  0.00    +0.305 C 
ATOM     28  O   UNL     1      10.609  -1.808  22.384  0.00  0.00    -0.251 OA
ATOM     29  C   UNL     1       9.441  -0.027  21.267  0.00  0.00    +0.136 C 
ENDBRANCH  26  27
ENDBRANCH  19  26
ENDBRANCH   1  19
TORSDOF 5
ENDMDL
MODEL 7
REMARK VINA RESULT:      -6.4      2.605      7.503
REMARK  Name = 
REMARK  6 active torsions:
REMARK  status: ('A' for Active; 'I' for Inactive)
REMARK    1  A    between atoms: C_2  and  O_3
REMARK    2  A    between atoms: C_2  and  C_7
REMARK    3  A    between atoms: C_2  and  C_23
REMARK    4  A    between atoms: O_3  and  C_4
REMARK    5  A    between atoms: C_4  and  C_5
REMARK    6  A    between atoms: N_9  and  C_10
REMARK                            x       y       z     vdW  Elec       q    Type
REMARK                         _______ _______ _______ _____ _____    ______ ____
ROOT
ATOM      1  C   UNL     1       5.803  -0.456  24.605  0.00  0.00    +0.263 C 
ATOM      2  N   UNL     1       6.308  -1.725  24.347  0.00  0.00    -0.282 N 
ATOM      3  H   UNL     1       7.158  -1.768  23.780  0.00  0.00    +0.155 HD
ATOM      4  O   UNL     1       4.863  -0.210  25.362  0.00  0.00    -0.271 OA
ENDROOT
BRANCH   2   5
ATOM      5  C   UNL     1       5.937  -2.926  25.000  0.00  0.00    +0.045 A 
ATOM      6  C   UNL     1       5.544  -4.059  24.253  0.00  0.00    +0.060 A 
ATOM      7  C   UNL     1       5.519  -4.044  22.776  0.00  0.00    +0.250 C 
ATOM      8  C   UNL     1       5.341  -5.376  22.054  0.00  0.00    +0.291 C 
ATOM      9  N   UNL     1       4.710  -6.346  22.780  0.00  0.00    -0.246 N 
ATOM     10  H   UNL     1       4.591  -7.229  22.299  0.00  0.00    +0.158 HD
ATOM     11  C   UNL     1       4.800  -6.459  24.139  0.00  0.00    +0.251 C 
ATOM     12  O   UNL     1       4.585  -7.529  24.701  0.00  0.00    -0.270 OA
ATOM     13  O   UNL     1       5.787  -5.553  20.932  0.00  0.00    -0.266 OA
ATOM     14  O   UNL     1       5.625  -3.005  22.140  0.00  0.00    -0.282 OA
ATOM     15  C   UNL     1       5.217  -5.257  24.899  0.00  0.00    +0.050 A 
ATOM     16  C   UNL     1       5.284  -5.344  26.294  0.00  0.00    +0.014 A 
ATOM     17  C   UNL     1       5.650  -4.231  27.040  0.00  0.00    +0.003 A 
ATOM     18  C   UNL     1       5.965  -3.032  26.397  0.00  0.00    +0.024 A 
ENDBRANCH   2   5
BRANCH   1  19
ATOM     19  C   UNL     1       6.543   0.698  23.868  0.00  0.00    +0.292 C 
BRANCH  19  20
ATOM     20  C   UNL     1       8.063   0.503  23.877  0.00  0.00    +0.002 A 
ATOM     21  C   UNL     1       8.758   0.301  22.667  0.00  0.00    +0.008 A 
ATOM     22  C   UNL     1      10.153   0.207  22.638  0.00  0.00    +0.000 A 
ATOM     23  C   UNL     1      10.883   0.327  23.816  0.00  0.00    +0.000 A 
ATOM     24  C   UNL     1      10.216   0.519  25.023  0.00  0.00    +0.000 A 
ATOM     25  C   UNL     1       8.820   0.603  25.055  0.00  0.00    +0.008 A 
ENDBRANCH  19  20
BRANCH  19  26
ATOM     26  O   UNL     1       6.186   2.003  24.363  0.00  0.00    -0.447 OA
BRANCH  26  27
ATOM     27  C   UNL     1       5.384   2.732  23.536  0.00  0.00    +0.305 C 
ATOM     28  O   UNL     1       4.236   3.064  23.791  0.00  0.00    -0.251 OA
ATOM     29  C   UNL     1       6.124   3.151  22.303  0.00  0.00    +0.136 C 
ENDBRANCH  26  27
ENDBRANCH  19  26
ENDBRANCH   1  19
TORSDOF 5
ENDMDL
MODEL 8
REMARK VINA RESULT:      -6.4      1.846      2.332
REMARK  Name = 
REMARK  6 active torsions:
REMARK  status: ('A' for Active; 'I' for Inactive)
REMARK    1  A    between atoms: C_2  and  O_3
REMARK    2  A    between atoms: C_2  and  C_7
REMARK    3  A    between atoms: C_2  and  C_23
REMARK    4  A    between atoms: O_3  and  C_4
REMARK    5  A    between atoms: C_4  and  C_5
REMARK    6  A    between atoms: N_9  and  C_10
REMARK                            x       y       z     vdW  Elec       q    Type
REMARK                         _______ _______ _______ _____ _____    ______ ____
ROOT
ATOM      1  C   UNL     1       7.078  -2.649  23.484  0.00  0.00    +0.263 C 
ATOM      2  N   UNL     1       8.035  -1.826  24.068  0.00  0.00    -0.282 N 
ATOM      3  H   UNL     1       8.546  -2.219  24.862  0.00  0.00    +0.155 HD
ATOM      4  O   UNL     1       6.457  -2.388  22.453  0.00  0.00    -0.271 OA
ENDROOT
BRANCH   2   5
ATOM      5  C   UNL     1       8.561  -0.630  23.521  0.00  0.00    +0.045 A 
ATOM      6  C   UNL     1       8.277   0.619  24.118  0.00  0.00    +0.060 A 
ATOM      7  C   UNL     1       7.441   0.727  25.331  0.00  0.00    +0.250 C 
ATOM      8  C   UNL     1       7.404   2.070  26.053  0.00  0.00    +0.291 C 
ATOM      9  N   UNL     1       7.690   3.154  25.271  0.00  0.00    -0.246 N 
ATOM     10  H   UNL     1       7.664   4.045  25.750  0.00  0.00    +0.158 HD
ATOM     11  C   UNL     1       8.546   3.118  24.205  0.00  0.00    +0.251 C 
ATOM     12  O   UNL     1       9.090   4.139  23.796  0.00  0.00    -0.270 OA
ATOM     13  O   UNL     1       7.188   2.140  27.252  0.00  0.00    -0.266 OA
ATOM     14  O   UNL     1       6.785  -0.218  25.749  0.00  0.00    -0.282 OA
ATOM     15  C   UNL     1       8.830   1.795  23.600  0.00  0.00    +0.050 A 
ATOM     16  C   UNL     1       9.678   1.743  22.489  0.00  0.00    +0.014 A 
ATOM     17  C   UNL     1       9.950   0.523  21.883  0.00  0.00    +0.003 A 
ATOM     18  C   UNL     1       9.389  -0.650  22.390  0.00  0.00    +0.024 A 
ENDBRANCH   2   5
BRANCH   1  19
ATOM     19  C   UNL     1       6.842  -3.996  24.226  0.00  0.00    +0.292 C 
BRANCH  19  20
ATOM     20  C   UNL     1       5.389  -4.469  24.110  0.00  0.00    +0.002 A 
ATOM     21  C   UNL     1       4.369  -3.803  24.820  0.00  0.00    +0.008 A 
ATOM     22  C   UNL     1       3.026  -4.159  24.665  0.00  0.00    +0.000 A 
ATOM     23  C   UNL     1       2.672  -5.178  23.786  0.00  0.00    +0.000 A 
ATOM     24  C   UNL     1       3.664  -5.854  23.080  0.00  0.00    +0.000 A 
ATOM     25  C   UNL     1       5.010  -5.506  23.242  0.00  0.00    +0.008 A 
ENDBRANCH  19  20
BRANCH  19  26
ATOM     26  O   UNL     1       7.267  -3.963  25.602  0.00  0.00    -0.447 OA
BRANCH  26  27
ATOM     27  C   UNL     1       7.939  -5.071  26.023  0.00  0.00    +0.305 C 
ATOM     28  O   UNL     1       7.600  -5.781  26.959  0.00  0.00    -0.251 OA
ATOM     29  C   UNL     1       9.108  -5.360  25.133  0.00  0.00    +0.136 C 
ENDBRANCH  26  27
ENDBRANCH  19  26
ENDBRANCH   1  19
TORSDOF 5
ENDMDL
MODEL 9
REMARK VINA RESULT:      -6.4      2.170      7.447
REMARK  Name = 
REMARK  6 active torsions:
REMARK  status: ('A' for Active; 'I' for Inactive)
REMARK    1  A    between atoms: C_2  and  O_3
REMARK    2  A    between atoms: C_2  and  C_7
REMARK    3  A    between atoms: C_2  and  C_23
REMARK    4  A    between atoms: O_3  and  C_4
REMARK    5  A    between atoms: C_4  and  C_5
REMARK    6  A    between atoms: N_9  and  C_10
REMARK                            x       y       z     vdW  Elec       q    Type
REMARK                         _______ _______ _______ _____ _____    ______ ____
ROOT
ATOM      1  C   UNL     1       5.826   0.769  24.791  0.00  0.00    +0.263 C 
ATOM      2  N   UNL     1       5.780  -0.537  24.314  0.00  0.00    -0.282 N 
ATOM      3  H   UNL     1       6.011  -0.667  23.326  0.00  0.00    +0.155 HD
ATOM      4  O   UNL     1       5.696   1.094  25.972  0.00  0.00    -0.271 OA
ENDROOT
BRANCH   2   5
ATOM      5  C   UNL     1       5.721  -1.716  25.097  0.00  0.00    +0.045 A 
ATOM      6  C   UNL     1       6.738  -2.692  25.003  0.00  0.00    +0.060 A 
ATOM      7  C   UNL     1       7.900  -2.520  24.108  0.00  0.00    +0.250 C 
ATOM      8  C   UNL     1       9.069  -3.486  24.266  0.00  0.00    +0.291 C 
ATOM      9  N   UNL     1       8.748  -4.697  24.811  0.00  0.00    -0.246 N 
ATOM     10  H   UNL     1       9.525  -5.339  24.914  0.00  0.00    +0.158 HD
ATOM     11  C   UNL     1       7.750  -4.878  25.728  0.00  0.00    +0.251 C 
ATOM     12  O   UNL     1       7.753  -5.845  26.484  0.00  0.00    -0.270 OA
ATOM     13  O   UNL     1      10.207  -3.158  23.972  0.00  0.00    -0.266 OA
ATOM     14  O   UNL     1       7.933  -1.642  23.256  0.00  0.00    -0.282 OA
ATOM     15  C   UNL     1       6.697  -3.838  25.807  0.00  0.00    +0.050 A 
ATOM     16  C   UNL     1       5.651  -4.022  26.716  0.00  0.00    +0.014 A 
ATOM     17  C   UNL     1       4.635  -3.077  26.803  0.00  0.00    +0.003 A 
ATOM     18  C   UNL     1       4.667  -1.941  25.993  0.00  0.00    +0.024 A 
ENDBRANCH   2   5
BRANCH   1  19
ATOM     19  C   UNL     1       6.088   1.848  23.701  0.00  0.00    +0.292 C 
BRANCH  19  20
ATOM     20  C   UNL     1       7.541   1.828  23.211  0.00  0.00    +0.002 A 
ATOM     21  C   UNL     1       8.600   1.956  24.133  0.00  0.00    +0.008 A 
ATOM     22  C   UNL     1       9.933   1.854  23.725  0.00  0.00    +0.000 A 
ATOM     23  C   UNL     1      10.236   1.608  22.389  0.00  0.00    +0.000 A 
ATOM     24  C   UNL     1       9.205   1.485  21.461  0.00  0.00    +0.000 A 
ATOM     25  C   UNL     1       7.871   1.597  21.866  0.00  0.00    +0.008 A 
ENDBRANCH  19  20
BRANCH  19  26
ATOM     26  O   UNL     1       5.700   3.172  24.114  0.00  0.00    -0.447 OA
BRANCH  26  27
ATOM     27  C   UNL     1       5.302   3.995  23.103  0.00  0.00    +0.305 C 
ATOM     28  O   UNL     1       5.885   5.014  22.760  0.00  0.00    -0.251 OA
ATOM     29  C   UNL     1       4.098   3.444  22.404  0.00  0.00    +0.136 C 
ENDBRANCH  26  27
ENDBRANCH  19  26
ENDBRANCH   1  19
TORSDOF 5
ENDMDL
