MODEL 1
REMARK VINA RESULT:      -5.8      0.000      0.000
REMARK  Name = 
REMARK  8 active torsions:
REMARK  status: ('A' for Active; 'I' for Inactive)
REMARK    1  A    between atoms: C_2  and  C_3
REMARK    2  A    between atoms: C_2  and  N_10
REMARK    3  A    between atoms: C_2  and  C_14
REMARK    4  A    between atoms: C_3  and  C_4
REMARK    5  A    between atoms: C_11  and  C_12
REMARK    6  A    between atoms: C_14  and  O_15
REMARK    7  A    between atoms: C_14  and  O_16
REMARK    8  A    between atoms: C_14  and  C_17
REMARK                            x       y       z     vdW  Elec       q    Type
REMARK                         _______ _______ _______ _____ _____    ______ ____
ROOT
ATOM      1  C   UNL     1       8.398  -2.862  23.806  0.00  0.00    +0.170 C 
ENDROOT
BRANCH   1   2
ATOM      2  N   UNL     1       7.529  -2.007  24.657  0.00  0.00    -0.305 N 
ATOM      3  H   UNL     1       7.863  -1.792  25.590  0.00  0.00    +0.149 HD
ATOM      4  C   UNL     1       6.247  -1.671  24.320  0.00  0.00    +0.210 C 
ATOM      5  O   UNL     1       5.702  -2.134  23.322  0.00  0.00    -0.276 OA
ATOM      6  C   UNL     1       5.549  -0.766  25.296  0.00  0.00    +0.109 C 
ENDBRANCH   1   2
BRANCH   1   7
ATOM      7  C   UNL     1       8.309  -4.371  24.228  0.00  0.00    +0.355 C 
BRANCH   7   8
ATOM      8  C   UNL     1       7.570  -5.224  23.131  0.00  0.00    +0.470 C 
ATOM      9  F   UNL     1       8.271  -6.324  22.772  0.00  0.00    -0.164 F 
ATOM     10  F   UNL     1       7.411  -4.480  22.003  0.00  0.00    -0.164 F 
ATOM     11  F   UNL     1       6.344  -5.647  23.508  0.00  0.00    -0.164 F 
ENDBRANCH   7   8
BRANCH   7  12
ATOM     12  O   UNL     1       7.646  -4.517  25.493  0.00  0.00    -0.498 OA
ATOM     13  H   UNL     1       8.315  -4.773  26.159  0.00  0.00    +0.288 HD
ENDBRANCH   7  12
BRANCH   7  14
ATOM     14  O   UNL     1       9.666  -4.820  24.450  0.00  0.00    -0.498 OA
ATOM     15  H   UNL     1      10.159  -4.571  23.643  0.00  0.00    +0.288 HD
ENDBRANCH   7  14
ENDBRANCH   1   7
BRANCH   1  16
ATOM     16  C   UNL     1       9.844  -2.297  23.878  0.00  0.00    +0.065 C 
BRANCH  16  17
ATOM     17  C   UNL     1       9.994  -0.851  23.450  0.00  0.00    -0.045 A 
ATOM     18  C   UNL     1       9.690  -0.411  22.154  0.00  0.00    +0.004 A 
ATOM     19  C   UNL     1       9.796   0.939  21.811  0.00  0.00    +0.000 A 
ATOM     20  C   UNL     1      10.234   1.859  22.752  0.00  0.00    +0.000 A 
ATOM     21  C   UNL     1      10.589   1.438  24.030  0.00  0.00    +0.000 A 
ATOM     22  C   UNL     1      10.474   0.088  24.378  0.00  0.00    +0.004 A 
ENDBRANCH  16  17
ENDBRANCH   1  16
TORSDOF 7
ENDMDL
MODEL 2
REMARK VINA RESULT:      -5.6      4.635      6.560
REMARK  Name = 
REMARK  8 active torsions:
REMARK  status: ('A' for Active; 'I' for Inactive)
REMARK    1  A    between atoms: C_2  and  C_3
REMARK    2  A    between atoms: C_2  and  N_10
REMARK    3  A    between atoms: C_2  and  C_14
REMARK    4  A    between atoms: C_3  and  C_4
REMARK    5  A    between atoms: C_11  and  C_12
REMARK    6  A    between atoms: C_14  and  O_15
REMARK    7  A    between atoms: C_14  and  O_16
REMARK    8  A    between atoms: C_14  and  C_17
REMARK                            x       y       z     vdW  Elec       q    Type
REMARK                         _______ _______ _______ _____ _____    ______ ____
ROOT
ATOM      1  C   UNL     1       8.325   2.696  22.903  0.00  0.00    +0.170 C 
ENDROOT
BRANCH   1   2
ATOM      2  N   UNL     1       7.959   3.960  22.209  0.00  0.00    -0.305 N 
ATOM      3  H   UNL     1       7.986   3.956  21.196  0.00  0.00    +0.149 HD
ATOM      4  C   UNL     1       7.788   5.150  22.862  0.00  0.00    +0.210 C 
ATOM      5  O   UNL     1       8.014   5.264  24.063  0.00  0.00    -0.276 OA
ATOM      6  C   UNL     1       7.382   6.302  21.987  0.00  0.00    +0.109 C 
ENDBRANCH   1   2
BRANCH   1   7
ATOM      7  C   UNL     1       9.873   2.442  22.856  0.00  0.00    +0.355 C 
BRANCH   7   8
ATOM      8  C   UNL     1      10.297   1.333  23.888  0.00  0.00    +0.470 C 
ATOM      9  F   UNL     1      11.565   1.495  24.329  0.00  0.00    -0.164 F 
ATOM     10  F   UNL     1      10.247   0.110  23.292  0.00  0.00    -0.164 F 
ATOM     11  F   UNL     1       9.507   1.278  24.981  0.00  0.00    -0.164 F 
ENDBRANCH   7   8
BRANCH   7  12
ATOM     12  O   UNL     1      10.605   3.652  23.107  0.00  0.00    -0.498 OA
ATOM     13  H   UNL     1      10.228   4.358  22.546  0.00  0.00    +0.288 HD
ENDBRANCH   7  12
BRANCH   7  14
ATOM     14  O   UNL     1      10.192   2.076  21.493  0.00  0.00    -0.498 OA
ATOM     15  H   UNL     1      10.148   2.908  20.982  0.00  0.00    +0.288 HD
ENDBRANCH   7  14
ENDBRANCH   1   7
BRANCH   1  16
ATOM     16  C   UNL     1       7.502   1.544  22.261  0.00  0.00    +0.065 C 
BRANCH  16  17
ATOM     17  C   UNL     1       6.855   0.589  23.245  0.00  0.00    -0.045 A 
ATOM     18  C   UNL     1       6.165   1.029  24.382  0.00  0.00    +0.004 A 
ATOM     19  C   UNL     1       5.542   0.119  25.240  0.00  0.00    +0.000 A 
ATOM     20  C   UNL     1       5.625  -1.241  24.984  0.00  0.00    +0.000 A 
ATOM     21  C   UNL     1       6.347  -1.704  23.887  0.00  0.00    +0.000 A 
ATOM     22  C   UNL     1       6.964  -0.794  23.023  0.00  0.00    +0.004 A 
ENDBRANCH  16  17
ENDBRANCH   1  16
TORSDOF 7
ENDMDL
MODEL 3
REMARK VINA RESULT:      -5.6      2.444      5.166
REMARK  Name = 
REMARK  8 active torsions:
REMARK  status: ('A' for Active; 'I' for Inactive)
REMARK    1  A    between atoms: C_2  and  C_3
REMARK    2  A    between atoms: C_2  and  N_10
REMARK    3  A    between atoms: C_2  and  C_14
REMARK    4  A    between atoms: C_3  and  C_4
REMARK    5  A    between atoms: C_11  and  C_12
REMARK    6  A    between atoms: C_14  and  O_15
REMARK    7  A    between atoms: C_14  and  O_16
REMARK    8  A    between atoms: C_14  and  C_17
REMARK                            x       y       z     vdW  Elec       q    Type
REMARK                         _______ _______ _______ _____ _____    ______ ____
ROOT
ATOM      1  C   UNL     1       6.991  -3.503  22.780  0.00  0.00    +0.170 C 
ENDROOT
BRANCH   1   2
ATOM      2  N   UNL     1       7.618  -2.342  22.093  0.00  0.00    -0.305 N 
ATOM      3  H   UNL     1       7.140  -1.973  21.279  0.00  0.00    +0.149 HD
ATOM      4  C   UNL     1       8.877  -1.892  22.382  0.00  0.00    +0.210 C 
ATOM      5  O   UNL     1       9.605  -2.481  23.176  0.00  0.00    -0.276 OA
ATOM      6  C   UNL     1       9.314  -0.683  21.604  0.00  0.00    +0.109 C 
ENDBRANCH   1   2
BRANCH   1   7
ATOM      7  C   UNL     1       5.932  -4.209  21.862  0.00  0.00    +0.355 C 
BRANCH   7   8
ATOM      8  C   UNL     1       6.364  -5.686  21.532  0.00  0.00    +0.470 C 
ATOM      9  F   UNL     1       6.074  -6.038  20.258  0.00  0.00    -0.164 F 
ATOM     10  F   UNL     1       5.688  -6.551  22.336  0.00  0.00    -0.164 F 
ATOM     11  F   UNL     1       7.681  -5.920  21.712  0.00  0.00    -0.164 F 
ENDBRANCH   7   8
BRANCH   7  12
ATOM     12  O   UNL     1       5.728  -3.475  20.645  0.00  0.00    -0.498 OA
ATOM     13  H   UNL     1       5.028  -2.810  20.804  0.00  0.00    +0.288 HD
ENDBRANCH   7  12
BRANCH   7  14
ATOM     14  O   UNL     1       4.669  -4.150  22.564  0.00  0.00    -0.498 OA
ATOM     15  H   UNL     1       4.121  -3.515  22.062  0.00  0.00    +0.288 HD
ENDBRANCH   7  14
ENDBRANCH   1   7
BRANCH   1  16
ATOM     16  C   UNL     1       6.388  -2.996  24.120  0.00  0.00    +0.065 C 
BRANCH  16  17
ATOM     17  C   UNL     1       6.610  -3.907  25.312  0.00  0.00    -0.045 A 
ATOM     18  C   UNL     1       7.878  -4.384  25.673  0.00  0.00    +0.004 A 
ATOM     19  C   UNL     1       8.047  -5.184  26.805  0.00  0.00    +0.000 A 
ATOM     20  C   UNL     1       6.949  -5.538  27.573  0.00  0.00    +0.000 A 
ATOM     21  C   UNL     1       5.673  -5.117  27.206  0.00  0.00    +0.000 A 
ATOM     22  C   UNL     1       5.502  -4.309  26.077  0.00  0.00    +0.004 A 
ENDBRANCH  16  17
ENDBRANCH   1  16
TORSDOF 7
ENDMDL
MODEL 4
REMARK VINA RESULT:      -5.6      2.883      5.643
REMARK  Name = 
REMARK  8 active torsions:
REMARK  status: ('A' for Active; 'I' for Inactive)
REMARK    1  A    between atoms: C_2  and  C_3
REMARK    2  A    between atoms: C_2  and  N_10
REMARK    3  A    between atoms: C_2  and  C_14
REMARK    4  A    between atoms: C_3  and  C_4
REMARK    5  A    between atoms: C_11  and  C_12
REMARK    6  A    between atoms: C_14  and  O_15
REMARK    7  A    between atoms: C_14  and  O_16
REMARK    8  A    between atoms: C_14  and  C_17
REMARK                            x       y       z     vdW  Elec       q    Type
REMARK                         _______ _______ _______ _____ _____    ______ ____
ROOT
ATOM      1  C   UNL     1       8.735  -2.555  23.387  0.00  0.00    +0.170 C 
ENDROOT
BRANCH   1   2
ATOM      2  N   UNL     1       8.255  -3.322  24.568  0.00  0.00    -0.305 N 
ATOM      3  H   UNL     1       7.440  -2.962  25.053  0.00  0.00    +0.149 HD
ATOM      4  C   UNL     1       8.961  -4.348  25.132  0.00  0.00    +0.210 C 
ATOM      5  O   UNL     1      10.086  -4.645  24.745  0.00  0.00    -0.276 OA
ATOM      6  C   UNL     1       8.286  -5.020  26.295  0.00  0.00    +0.109 C 
ENDBRANCH   1   2
BRANCH   1   7
ATOM      7  C   UNL     1       9.095  -1.077  23.770  0.00  0.00    +0.355 C 
BRANCH   7   8
ATOM      8  C   UNL     1      10.298  -0.545  22.906  0.00  0.00    +0.470 C 
ATOM      9  F   UNL     1       9.891   0.224  21.870  0.00  0.00    -0.164 F 
ATOM     10  F   UNL     1      10.974  -1.595  22.366  0.00  0.00    -0.164 F 
ATOM     11  F   UNL     1      11.190   0.186  23.609  0.00  0.00    -0.164 F 
ENDBRANCH   7   8
BRANCH   7  12
ATOM     12  O   UNL     1       9.407  -0.964  25.167  0.00  0.00    -0.498 OA
ATOM     13  H   UNL     1       9.609  -0.026  25.358  0.00  0.00    +0.288 HD
ENDBRANCH   7  12
BRANCH   7  14
ATOM     14  O   UNL     1       7.894  -0.295  23.578  0.00  0.00    -0.498 OA
ATOM     15  H   UNL     1       7.306  -0.849  23.029  0.00  0.00    +0.288 HD
ENDBRANCH   7  14
ENDBRANCH   1   7
BRANCH   1  16
ATOM     16  C   UNL     1       7.645  -2.647  22.282  0.00  0.00    +0.065 C 
BRANCH  16  17
ATOM     17  C   UNL     1       6.670  -3.799  22.432  0.00  0.00    -0.045 A 
ATOM     18  C   UNL     1       6.993  -5.113  22.067  0.00  0.00    +0.004 A 
ATOM     19  C   UNL     1       6.084  -6.155  22.263  0.00  0.00    +0.000 A 
ATOM     20  C   UNL     1       4.833  -5.891  22.801  0.00  0.00    +0.000 A 
ATOM     21  C   UNL     1       4.472  -4.585  23.124  0.00  0.00    +0.000 A 
ATOM     22  C   UNL     1       5.385  -3.542  22.936  0.00  0.00    +0.004 A 
ENDBRANCH  16  17
ENDBRANCH   1  16
TORSDOF 7
ENDMDL
MODEL 5
REMARK VINA RESULT:      -5.5      1.964      2.304
REMARK  Name = 
REMARK  8 active torsions:
REMARK  status: ('A' for Active; 'I' for Inactive)
REMARK    1  A    between atoms: C_2  and  C_3
REMARK    2  A    between atoms: C_2  and  N_10
REMARK    3  A    between atoms: C_2  and  C_14
REMARK    4  A    between atoms: C_3  and  C_4
REMARK    5  A    between atoms: C_11  and  C_12
REMARK    6  A    between atoms: C_14  and  O_15
REMARK    7  A    between atoms: C_14  and  O_16
REMARK    8  A    between atoms: C_14  and  C_17
REMARK                            x       y       z     vdW  Elec       q    Type
REMARK                         _______ _______ _______ _____ _____    ______ ____
ROOT
ATOM      1  C   UNL     1       8.377  -3.326  24.139  0.00  0.00    +0.170 C 
ENDROOT
BRANCH   1   2
ATOM      2  N   UNL     1       7.463  -2.363  24.808  0.00  0.00    -0.305 N 
ATOM      3  H   UNL     1       7.539  -2.277  25.816  0.00  0.00    +0.149 HD
ATOM      4  C   UNL     1       6.419  -1.753  24.169  0.00  0.00    +0.210 C 
ATOM      5  O   UNL     1       6.119  -2.034  23.013  0.00  0.00    -0.276 OA
ATOM      6  C   UNL     1       5.638  -0.783  25.011  0.00  0.00    +0.109 C 
ENDBRANCH   1   2
BRANCH   1   7
ATOM      7  C   UNL     1       8.372  -4.719  24.861  0.00  0.00    +0.355 C 
BRANCH   7   8
ATOM      8  C   UNL     1       8.928  -4.599  26.328  0.00  0.00    +0.470 C 
ATOM      9  F   UNL     1       8.917  -3.325  26.783  0.00  0.00    -0.164 F 
ATOM     10  F   UNL     1      10.225  -5.011  26.361  0.00  0.00    -0.164 F 
ATOM     11  F   UNL     1       8.249  -5.342  27.229  0.00  0.00    -0.164 F 
ENDBRANCH   7   8
BRANCH   7  12
ATOM     12  O   UNL     1       9.134  -5.689  24.125  0.00  0.00    -0.498 OA
ATOM     13  H   UNL     1       8.769  -6.575  24.320  0.00  0.00    +0.288 HD
ENDBRANCH   7  12
BRANCH   7  14
ATOM     14  O   UNL     1       7.007  -5.198  24.829  0.00  0.00    -0.498 OA
ATOM     15  H   UNL     1       6.920  -5.681  23.984  0.00  0.00    +0.288 HD
ENDBRANCH   7  14
ENDBRANCH   1   7
BRANCH   1  16
ATOM     16  C   UNL     1       9.790  -2.682  24.076  0.00  0.00    +0.065 C 
BRANCH  16  17
ATOM     17  C   UNL     1       9.859  -1.349  23.357  0.00  0.00    -0.045 A 
ATOM     18  C   UNL     1       9.499  -1.196  22.011  0.00  0.00    +0.004 A 
ATOM     19  C   UNL     1       9.533   0.058  21.397  0.00  0.00    +0.000 A 
ATOM     20  C   UNL     1       9.951   1.168  22.114  0.00  0.00    +0.000 A 
ATOM     21  C   UNL     1      10.361   1.033  23.438  0.00  0.00    +0.000 A 
ATOM     22  C   UNL     1      10.320  -0.221  24.057  0.00  0.00    +0.004 A 
ENDBRANCH  16  17
ENDBRANCH   1  16
TORSDOF 7
ENDMDL
MODEL 6
REMARK VINA RESULT:      -5.5      4.391      6.159
REMARK  Name = 
REMARK  8 active torsions:
REMARK  status: ('A' for Active; 'I' for Inactive)
REMARK    1  A    between atoms: C_2  and  C_3
REMARK    2  A    between atoms: C_2  and  N_10
REMARK    3  A    between atoms: C_2  and  C_14
REMARK    4  A    between atoms: C_3  and  C_4
REMARK    5  A    between atoms: C_11  and  C_12
REMARK    6  A    between atoms: C_14  and  O_15
REMARK    7  A    between atoms: C_14  and  O_16
REMARK    8  A    between atoms: C_14  and  C_17
REMARK                            x       y       z     vdW  Elec       q    Type
REMARK                         _______ _______ _______ _____ _____    ______ ____
ROOT
ATOM      1  C   UNL     1       8.682   0.972  23.110  0.00  0.00    +0.170 C 
ENDROOT
BRANCH   1   2
ATOM      2  N   UNL     1       7.247   1.186  23.436  0.00  0.00    -0.305 N 
ATOM      3  H   UNL     1       6.606   1.291  22.657  0.00  0.00    +0.149 HD
ATOM      4  C   UNL     1       6.796   1.441  24.702  0.00  0.00    +0.210 C 
ATOM      5  O   UNL     1       7.570   1.594  25.642  0.00  0.00    -0.276 OA
ATOM      6  C   UNL     1       5.306   1.590  24.829  0.00  0.00    +0.109 C 
ENDBRANCH   1   2
BRANCH   1   7
ATOM      7  C   UNL     1       9.345   2.278  22.549  0.00  0.00    +0.355 C 
BRANCH   7   8
ATOM      8  C   UNL     1      10.282   2.945  23.623  0.00  0.00    +0.470 C 
ATOM      9  F   UNL     1      11.306   3.629  23.064  0.00  0.00    -0.164 F 
ATOM     10  F   UNL     1      10.841   1.981  24.405  0.00  0.00    -0.164 F 
ATOM     11  F   UNL     1       9.641   3.804  24.445  0.00  0.00    -0.164 F 
ENDBRANCH   7   8
BRANCH   7  12
ATOM     12  O   UNL     1       8.351   3.219  22.114  0.00  0.00    -0.498 OA
ATOM     13  H   UNL     1       7.742   2.758  21.503  0.00  0.00    +0.288 HD
ENDBRANCH   7  12
BRANCH   7  14
ATOM     14  O   UNL     1      10.064   1.898  21.354  0.00  0.00    -0.498 OA
ATOM     15  H   UNL     1       9.437   2.036  20.617  0.00  0.00    +0.288 HD
ENDBRANCH   7  14
ENDBRANCH   1   7
BRANCH   1  16
ATOM     16  C   UNL     1       8.774  -0.226  22.124  0.00  0.00    +0.065 C 
BRANCH  16  17
ATOM     17  C   UNL     1       8.693  -1.597  22.765  0.00  0.00    -0.045 A 
ATOM     18  C   UNL     1       9.583  -2.018  23.764  0.00  0.00    +0.004 A 
ATOM     19  C   UNL     1       9.447  -3.273  24.363  0.00  0.00    +0.000 A 
ATOM     20  C   UNL     1       8.437  -4.130  23.952  0.00  0.00    +0.000 A 
ATOM     21  C   UNL     1       7.573  -3.753  22.927  0.00  0.00    +0.000 A 
ATOM     22  C   UNL     1       7.702  -2.494  22.332  0.00  0.00    +0.004 A 
ENDBRANCH  16  17
ENDBRANCH   1  16
TORSDOF 7
ENDMDL
MODEL 7
REMARK VINA RESULT:      -5.4      2.138      3.156
REMARK  Name = 
REMARK  8 active torsions:
REMARK  status: ('A' for Active; 'I' for Inactive)
REMARK    1  A    between atoms: C_2  and  C_3
REMARK    2  A    between atoms: C_2  and  N_10
REMARK    3  A    between atoms: C_2  and  C_14
REMARK    4  A    between atoms: C_3  and  C_4
REMARK    5  A    between atoms: C_11  and  C_12
REMARK    6  A    between atoms: C_14  and  O_15
REMARK    7  A    between atoms: C_14  and  O_16
REMARK    8  A    between atoms: C_14  and  C_17
REMARK                            x       y       z     vdW  Elec       q    Type
REMARK                         _______ _______ _______ _____ _____    ______ ____
ROOT
ATOM      1  C   UNL     1       7.634  -3.399  23.638  0.00  0.00    +0.170 C 
ENDROOT
BRANCH   1   2
ATOM      2  N   UNL     1       6.796  -4.072  22.610  0.00  0.00    -0.305 N 
ATOM      3  H   UNL     1       5.877  -3.680  22.433  0.00  0.00    +0.149 HD
ATOM      4  C   UNL     1       7.119  -5.278  22.053  0.00  0.00    +0.210 C 
ATOM      5  O   UNL     1       8.088  -5.926  22.436  0.00  0.00    -0.276 OA
ATOM      6  C   UNL     1       6.162  -5.771  21.004  0.00  0.00    +0.109 C 
ENDBRANCH   1   2
BRANCH   1   7
ATOM      7  C   UNL     1       7.435  -4.046  25.054  0.00  0.00    +0.355 C 
BRANCH   7   8
ATOM      8  C   UNL     1       8.813  -4.481  25.677  0.00  0.00    +0.470 C 
ATOM      9  F   UNL     1       9.859  -4.198  24.867  0.00  0.00    -0.164 F 
ATOM     10  F   UNL     1       8.824  -5.828  25.867  0.00  0.00    -0.164 F 
ATOM     11  F   UNL     1       9.075  -3.906  26.870  0.00  0.00    -0.164 F 
ENDBRANCH   7   8
BRANCH   7  12
ATOM     12  O   UNL     1       6.547  -5.173  24.989  0.00  0.00    -0.498 OA
ATOM     13  H   UNL     1       6.311  -5.321  24.052  0.00  0.00    +0.288 HD
ENDBRANCH   7  12
BRANCH   7  14
ATOM     14  O   UNL     1       6.751  -3.063  25.866  0.00  0.00    -0.498 OA
ATOM     15  H   UNL     1       5.799  -3.201  25.695  0.00  0.00    +0.288 HD
ENDBRANCH   7  14
ENDBRANCH   1   7
BRANCH   1  16
ATOM     16  C   UNL     1       7.296  -1.882  23.612  0.00  0.00    +0.065 C 
BRANCH  16  17
ATOM     17  C   UNL     1       8.495  -0.954  23.640  0.00  0.00    -0.045 A 
ATOM     18  C   UNL     1       8.967  -0.294  22.498  0.00  0.00    +0.004 A 
ATOM     19  C   UNL     1      10.046   0.589  22.574  0.00  0.00    +0.000 A 
ATOM     20  C   UNL     1      10.682   0.801  23.788  0.00  0.00    +0.000 A 
ATOM     21  C   UNL     1      10.262   0.118  24.927  0.00  0.00    +0.000 A 
ATOM     22  C   UNL     1       9.176  -0.760  24.854  0.00  0.00    +0.004 A 
ENDBRANCH  16  17
ENDBRANCH   1  16
TORSDOF 7
ENDMDL
MODEL 8
REMARK VINA RESULT:      -5.4      2.618      5.365
REMARK  Name = 
REMARK  8 active torsions:
REMARK  status: ('A' for Active; 'I' for Inactive)
REMARK    1  A    between atoms: C_2  and  C_3
REMARK    2  A    between atoms: C_2  and  N_10
REMARK    3  A    between atoms: C_2  and  C_14
REMARK    4  A    between atoms: C_3  and  C_4
REMARK    5  A    between atoms: C_11  and  C_12
REMARK    6  A    between atoms: C_14  and  O_15
REMARK    7  A    between atoms: C_14  and  O_16
REMARK    8  A    between atoms: C_14  and  C_17
REMARK                            x       y       z     vdW  Elec       q    Type
REMARK                         _______ _______ _______ _____ _____    ______ ____
ROOT
ATOM      1  C   UNL     1       7.813  -3.359  23.526  0.00  0.00    +0.170 C 
ENDROOT
BRANCH   1   2
ATOM      2  N   UNL     1       8.714  -2.485  22.729  0.00  0.00    -0.305 N 
ATOM      3  H   UNL     1       9.640  -2.843  22.519  0.00  0.00    +0.149 HD
ATOM      4  C   UNL     1       8.431  -1.177  22.446  0.00  0.00    +0.210 C 
ATOM      5  O   UNL     1       7.444  -0.617  22.912  0.00  0.00    -0.276 OA
ATOM      6  C   UNL     1       9.452  -0.476  21.594  0.00  0.00    +0.109 C 
ENDBRANCH   1   2
BRANCH   1   7
ATOM      7  C   UNL     1       8.627  -4.378  24.400  0.00  0.00    +0.355 C 
BRANCH   7   8
ATOM      8  C   UNL     1       7.993  -4.528  25.832  0.00  0.00    +0.470 C 
ATOM      9  F   UNL     1       7.372  -3.400  26.245  0.00  0.00    -0.164 F 
ATOM     10  F   UNL     1       8.972  -4.787  26.741  0.00  0.00    -0.164 F 
ATOM     11  F   UNL     1       7.089  -5.527  25.923  0.00  0.00    -0.164 F 
ENDBRANCH   7   8
BRANCH   7  12
ATOM     12  O   UNL     1      10.003  -3.982  24.511  0.00  0.00    -0.498 OA
ATOM     13  H   UNL     1      10.403  -4.018  23.620  0.00  0.00    +0.288 HD
ENDBRANCH   7  12
BRANCH   7  14
ATOM     14  O   UNL     1       8.643  -5.627  23.672  0.00  0.00    -0.498 OA
ATOM     15  H   UNL     1       9.012  -5.413  22.793  0.00  0.00    +0.288 HD
ENDBRANCH   7  14
ENDBRANCH   1   7
BRANCH   1  16
ATOM     16  C   UNL     1       6.830  -4.054  22.544  0.00  0.00    +0.065 C 
BRANCH  16  17
ATOM     17  C   UNL     1       5.470  -4.392  23.124  0.00  0.00    -0.045 A 
ATOM     18  C   UNL     1       4.816  -3.565  24.047  0.00  0.00    +0.004 A 
ATOM     19  C   UNL     1       3.543  -3.888  24.524  0.00  0.00    +0.000 A 
ATOM     20  C   UNL     1       2.922  -5.054  24.102  0.00  0.00    +0.000 A 
ATOM     21  C   UNL     1       3.574  -5.916  23.223  0.00  0.00    +0.000 A 
ATOM     22  C   UNL     1       4.845  -5.590  22.739  0.00  0.00    +0.004 A 
ENDBRANCH  16  17
ENDBRANCH   1  16
TORSDOF 7
ENDMDL
MODEL 9
REMARK VINA RESULT:      -5.4      2.027      3.198
REMARK  Name = 
REMARK  8 active torsions:
REMARK  status: ('A' for Active; 'I' for Inactive)
REMARK    1  A    between atoms: C_2  and  C_3
REMARK    2  A    between atoms: C_2  and  N_10
REMARK    3  A    between atoms: C_2  and  C_14
REMARK    4  A    between atoms: C_3  and  C_4
REMARK    5  A    between atoms: C_11  and  C_12
REMARK    6  A    between atoms: C_14  and  O_15
REMARK    7  A    between atoms: C_14  and  O_16
REMARK    8  A    between atoms: C_14  and  C_17
REMARK                            x       y       z     vdW  Elec       q    Type
REMARK                         _______ _______ _______ _____ _____    ______ ____
ROOT
ATOM      1  C   UNL     1       6.721  -3.595  23.151  0.00  0.00    +0.170 C 
ENDROOT
BRANCH   1   2
ATOM      2  N   UNL     1       7.124  -4.567  24.202  0.00  0.00    -0.305 N 
ATOM      3  H   UNL     1       7.226  -5.536  23.921  0.00  0.00    +0.149 HD
ATOM      4  C   UNL     1       7.166  -4.255  25.533  0.00  0.00    +0.210 C 
ATOM      5  O   UNL     1       6.786  -3.166  25.952  0.00  0.00    -0.276 OA
ATOM      6  C   UNL     1       7.636  -5.365  26.431  0.00  0.00    +0.109 C 
ENDBRANCH   1   2
BRANCH   1   7
ATOM      7  C   UNL     1       5.811  -4.269  22.064  0.00  0.00    +0.355 C 
BRANCH   7   8
ATOM      8  C   UNL     1       6.421  -5.637  21.583  0.00  0.00    +0.470 C 
ATOM      9  F   UNL     1       5.993  -5.989  20.349  0.00  0.00    -0.164 F 
ATOM     10  F   UNL     1       6.034  -6.633  22.426  0.00  0.00    -0.164 F 
ATOM     11  F   UNL     1       7.771  -5.646  21.546  0.00  0.00    -0.164 F 
ENDBRANCH   7   8
BRANCH   7  12
ATOM     12  O   UNL     1       5.613  -3.398  20.940  0.00  0.00    -0.498 OA
ATOM     13  H   UNL     1       5.916  -3.865  20.136  0.00  0.00    +0.288 HD
ENDBRANCH   7  12
BRANCH   7  14
ATOM     14  O   UNL     1       4.503  -4.431  22.661  0.00  0.00    -0.498 OA
ATOM     15  H   UNL     1       4.316  -3.584  23.112  0.00  0.00    +0.288 HD
ENDBRANCH   7  14
ENDBRANCH   1   7
BRANCH   1  16
ATOM     16  C   UNL     1       8.014  -2.970  22.555  0.00  0.00    +0.065 C 
BRANCH  16  17
ATOM     17  C   UNL     1       8.486  -1.699  23.232  0.00  0.00    -0.045 A 
ATOM     18  C   UNL     1       9.691  -1.624  23.944  0.00  0.00    +0.004 A 
ATOM     19  C   UNL     1      10.114  -0.421  24.514  0.00  0.00    +0.000 A 
ATOM     20  C   UNL     1       9.324   0.713  24.402  0.00  0.00    +0.000 A 
ATOM     21  C   UNL     1       8.099   0.651  23.742  0.00  0.00    +0.000 A 
ATOM     22  C   UNL     1       7.679  -0.551  23.163  0.00  0.00    +0.004 A 
ENDBRANCH  16  17
ENDBRANCH   1  16
TORSDOF 7
ENDMDL
