MODEL 1
REMARK VINA RESULT:      -5.5      0.000      0.000
REMARK  Name = 
REMARK  1 active torsions:
REMARK  status: ('A' for Active; 'I' for Inactive)
REMARK    1  A    between atoms: O_1  and  C_2
REMARK                            x       y       z     vdW  Elec       q    Type
REMARK                         _______ _______ _______ _____ _____    ______ ____
ROOT
ATOM      1  C   UNL     1       7.856  -5.319  26.450  0.00  0.00    +0.128 C 
ATOM      2  C   UNL     1       6.656  -5.500  25.614  0.00  0.00    +0.027 A 
ATOM      3  C   UNL     1       6.609  -4.998  24.306  0.00  0.00    +0.036 A 
ATOM      4  C   UNL     1       5.469  -5.167  23.505  0.00  0.00    +0.012 A 
ATOM      5  C   UNL     1       4.360  -5.841  24.009  0.00  0.00    +0.001 A 
ATOM      6  C   UNL     1       4.389  -6.346  25.306  0.00  0.00    +0.001 A 
ATOM      7  C   UNL     1       7.776  -4.281  23.756  0.00  0.00    +0.233 C 
ATOM      8  O   UNL     1       7.771  -3.831  22.618  0.00  0.00    -0.283 OA
ATOM      9  C   UNL     1       8.996  -4.112  24.649  0.00  0.00    +0.229 C 
ATOM     10  O   UNL     1       9.998  -3.528  24.261  0.00  0.00    -0.284 OA
ATOM     11  C   UNL     1       5.526  -6.176  26.101  0.00  0.00    +0.012 A 
ATOM     12  C   UNL     1       8.944  -4.678  26.010  0.00  0.00    +0.100 C 
ENDROOT
BRANCH   1  13
ATOM     13  O   UNL     1       7.790  -5.853  27.720  0.00  0.00    -0.506 OA
ATOM     14  H   UNL     1       7.403  -5.201  28.330  0.00  0.00    +0.292 HD
ENDBRANCH   1  13
TORSDOF 1
ENDMDL
MODEL 2
REMARK VINA RESULT:      -5.5      4.603      6.445
REMARK  Name = 
REMARK  1 active torsions:
REMARK  status: ('A' for Active; 'I' for Inactive)
REMARK    1  A    between atoms: O_1  and  C_2
REMARK                            x       y       z     vdW  Elec       q    Type
REMARK                         _______ _______ _______ _____ _____    ______ ____
ROOT
ATOM      1  C   UNL     1       8.904  -0.368  25.582  0.00  0.00    +0.128 C 
ATOM      2  C   UNL     1       9.269   0.561  24.499  0.00  0.00    +0.027 A 
ATOM      3  C   UNL     1       9.786   0.084  23.286  0.00  0.00    +0.036 A 
ATOM      4  C   UNL     1      10.135   0.963  22.250  0.00  0.00    +0.012 A 
ATOM      5  C   UNL     1       9.971   2.336  22.419  0.00  0.00    +0.001 A 
ATOM      6  C   UNL     1       9.459   2.828  23.617  0.00  0.00    +0.001 A 
ATOM      7  C   UNL     1       9.966  -1.368  23.090  0.00  0.00    +0.233 C 
ATOM      8  O   UNL     1      10.413  -1.821  22.045  0.00  0.00    -0.283 OA
ATOM      9  C   UNL     1       9.580  -2.296  24.231  0.00  0.00    +0.229 C 
ATOM     10  O   UNL     1       9.703  -3.510  24.141  0.00  0.00    -0.284 OA
ATOM     11  C   UNL     1       9.112   1.949  24.647  0.00  0.00    +0.012 A 
ATOM     12  C   UNL     1       9.045  -1.692  25.466  0.00  0.00    +0.100 C 
ENDROOT
BRANCH   1  13
ATOM     13  O   UNL     1       8.406   0.213  26.730  0.00  0.00    -0.506 OA
ATOM     14  H   UNL     1       7.804   0.940  26.494  0.00  0.00    +0.292 HD
ENDBRANCH   1  13
TORSDOF 1
ENDMDL
MODEL 3
REMARK VINA RESULT:      -5.4      4.526      6.842
REMARK  Name = 
REMARK  1 active torsions:
REMARK  status: ('A' for Active; 'I' for Inactive)
REMARK    1  A    between atoms: O_1  and  C_2
REMARK                            x       y       z     vdW  Elec       q    Type
REMARK                         _______ _______ _______ _____ _____    ______ ____
ROOT
ATOM      1  C   UNL     1       9.802  -1.432  22.716  0.00  0.00    +0.128 C 
ATOM      2  C   UNL     1       9.742  -0.013  23.105  0.00  0.00    +0.027 A 
ATOM      3  C   UNL     1       9.346   0.362  24.397  0.00  0.00    +0.036 A 
ATOM      4  C   UNL     1       9.287   1.712  24.775  0.00  0.00    +0.012 A 
ATOM      5  C   UNL     1       9.622   2.705  23.857  0.00  0.00    +0.001 A 
ATOM      6  C   UNL     1      10.017   2.351  22.570  0.00  0.00    +0.001 A 
ATOM      7  C   UNL     1       8.987  -0.678  25.382  0.00  0.00    +0.233 C 
ATOM      8  O   UNL     1       8.640  -0.388  26.519  0.00  0.00    -0.283 OA
ATOM      9  C   UNL     1       9.061  -2.132  24.943  0.00  0.00    +0.229 C 
ATOM     10  O   UNL     1       8.777  -3.047  25.704  0.00  0.00    -0.284 OA
ATOM     11  C   UNL     1      10.075   1.005  22.197  0.00  0.00    +0.012 A 
ATOM     12  C   UNL     1       9.489  -2.420  23.561  0.00  0.00    +0.100 C 
ENDROOT
BRANCH   1  13
ATOM     13  O   UNL     1      10.203  -1.683  21.420  0.00  0.00    -0.506 OA
ATOM     14  H   UNL     1       9.593  -1.249  20.799  0.00  0.00    +0.292 HD
ENDBRANCH   1  13
TORSDOF 1
ENDMDL
MODEL 4
REMARK VINA RESULT:      -5.4      4.209      5.977
REMARK  Name = 
REMARK  1 active torsions:
REMARK  status: ('A' for Active; 'I' for Inactive)
REMARK    1  A    between atoms: O_1  and  C_2
REMARK                            x       y       z     vdW  Elec       q    Type
REMARK                         _______ _______ _______ _____ _____    ______ ____
ROOT
ATOM      1  C   UNL     1       6.887  -1.209  23.787  0.00  0.00    +0.128 C 
ATOM      2  C   UNL     1       7.581  -0.201  22.966  0.00  0.00    +0.027 A 
ATOM      3  C   UNL     1       8.887  -0.422  22.507  0.00  0.00    +0.036 A 
ATOM      4  C   UNL     1       9.553   0.534  21.725  0.00  0.00    +0.012 A 
ATOM      5  C   UNL     1       8.915   1.727  21.395  0.00  0.00    +0.001 A 
ATOM      6  C   UNL     1       7.617   1.964  21.841  0.00  0.00    +0.001 A 
ATOM      7  C   UNL     1       9.578  -1.681  22.849  0.00  0.00    +0.233 C 
ATOM      8  O   UNL     1      10.717  -1.909  22.465  0.00  0.00    -0.283 OA
ATOM      9  C   UNL     1       8.831  -2.697  23.699  0.00  0.00    +0.229 C 
ATOM     10  O   UNL     1       9.340  -3.762  24.022  0.00  0.00    -0.284 OA
ATOM     11  C   UNL     1       6.957   1.009  22.620  0.00  0.00    +0.012 A 
ATOM     12  C   UNL     1       7.459  -2.368  24.130  0.00  0.00    +0.100 C 
ENDROOT
BRANCH   1  13
ATOM     13  O   UNL     1       5.606  -0.885  24.182  0.00  0.00    -0.506 OA
ATOM     14  H   UNL     1       4.971  -1.172  23.503  0.00  0.00    +0.292 HD
ENDBRANCH   1  13
TORSDOF 1
ENDMDL
MODEL 5
REMARK VINA RESULT:      -5.3      1.192      3.292
REMARK  Name = 
REMARK  1 active torsions:
REMARK  status: ('A' for Active; 'I' for Inactive)
REMARK    1  A    between atoms: O_1  and  C_2
REMARK                            x       y       z     vdW  Elec       q    Type
REMARK                         _______ _______ _______ _____ _____    ______ ____
ROOT
ATOM      1  C   UNL     1       8.578  -4.403  24.880  0.00  0.00    +0.128 C 
ATOM      2  C   UNL     1       7.469  -4.734  23.969  0.00  0.00    +0.027 A 
ATOM      3  C   UNL     1       6.337  -5.419  24.432  0.00  0.00    +0.036 A 
ATOM      4  C   UNL     1       5.277  -5.738  23.570  0.00  0.00    +0.012 A 
ATOM      5  C   UNL     1       5.342  -5.375  22.227  0.00  0.00    +0.001 A 
ATOM      6  C   UNL     1       6.458  -4.694  21.748  0.00  0.00    +0.001 A 
ATOM      7  C   UNL     1       6.253  -5.812  25.853  0.00  0.00    +0.233 C 
ATOM      8  O   UNL     1       5.280  -6.409  26.294  0.00  0.00    -0.283 OA
ATOM      9  C   UNL     1       7.417  -5.454  26.764  0.00  0.00    +0.229 C 
ATOM     10  O   UNL     1       7.417  -5.748  27.951  0.00  0.00    -0.284 OA
ATOM     11  C   UNL     1       7.512  -4.378  22.611  0.00  0.00    +0.012 A 
ATOM     12  C   UNL     1       8.561  -4.732  26.176  0.00  0.00    +0.100 C 
ENDROOT
BRANCH   1  13
ATOM     13  O   UNL     1       9.640  -3.728  24.314  0.00  0.00    -0.506 OA
ATOM     14  H   UNL     1       9.312  -3.109  23.639  0.00  0.00    +0.292 HD
ENDBRANCH   1  13
TORSDOF 1
ENDMDL
MODEL 6
REMARK VINA RESULT:      -5.1      1.936      4.121
REMARK  Name = 
REMARK  1 active torsions:
REMARK  status: ('A' for Active; 'I' for Inactive)
REMARK    1  A    between atoms: O_1  and  C_2
REMARK                            x       y       z     vdW  Elec       q    Type
REMARK                         _______ _______ _______ _____ _____    ______ ____
ROOT
ATOM      1  C   UNL     1       7.013  -5.121  24.776  0.00  0.00    +0.128 C 
ATOM      2  C   UNL     1       7.796  -4.068  24.107  0.00  0.00    +0.027 A 
ATOM      3  C   UNL     1       7.316  -3.443  22.947  0.00  0.00    +0.036 A 
ATOM      4  C   UNL     1       8.056  -2.438  22.305  0.00  0.00    +0.012 A 
ATOM      5  C   UNL     1       9.291  -2.050  22.819  0.00  0.00    +0.001 A 
ATOM      6  C   UNL     1       9.783  -2.659  23.970  0.00  0.00    +0.001 A 
ATOM      7  C   UNL     1       6.009  -3.843  22.389  0.00  0.00    +0.233 C 
ATOM      8  O   UNL     1       5.558  -3.318  21.380  0.00  0.00    -0.283 OA
ATOM      9  C   UNL     1       5.231  -4.935  23.106  0.00  0.00    +0.229 C 
ATOM     10  O   UNL     1       4.142  -5.318  22.701  0.00  0.00    -0.284 OA
ATOM     11  C   UNL     1       9.043  -3.660  24.607  0.00  0.00    +0.012 A 
ATOM     12  C   UNL     1       5.824  -5.528  24.319  0.00  0.00    +0.100 C 
ENDROOT
BRANCH   1  13
ATOM     13  O   UNL     1       7.583  -5.666  25.908  0.00  0.00    -0.506 OA
ATOM     14  H   UNL     1       8.546  -5.737  25.788  0.00  0.00    +0.292 HD
ENDBRANCH   1  13
TORSDOF 1
ENDMDL
MODEL 7
REMARK VINA RESULT:      -5.1      3.778      5.132
REMARK  Name = 
REMARK  1 active torsions:
REMARK  status: ('A' for Active; 'I' for Inactive)
REMARK    1  A    between atoms: O_1  and  C_2
REMARK                            x       y       z     vdW  Elec       q    Type
REMARK                         _______ _______ _______ _____ _____    ______ ____
ROOT
ATOM      1  C   UNL     1       8.796   0.362  25.238  0.00  0.00    +0.128 C 
ATOM      2  C   UNL     1       8.879  -1.108  25.275  0.00  0.00    +0.027 A 
ATOM      3  C   UNL     1       9.438  -1.825  24.207  0.00  0.00    +0.036 A 
ATOM      4  C   UNL     1       9.520  -3.225  24.236  0.00  0.00    +0.012 A 
ATOM      5  C   UNL     1       9.038  -3.925  25.339  0.00  0.00    +0.001 A 
ATOM      6  C   UNL     1       8.480  -3.231  26.409  0.00  0.00    +0.001 A 
ATOM      7  C   UNL     1       9.953  -1.097  23.030  0.00  0.00    +0.233 C 
ATOM      8  O   UNL     1      10.449  -1.688  22.081  0.00  0.00    -0.283 OA
ATOM      9  C   UNL     1       9.849   0.420  23.027  0.00  0.00    +0.229 C 
ATOM     10  O   UNL     1      10.253   1.089  22.086  0.00  0.00    -0.284 OA
ATOM     11  C   UNL     1       8.400  -1.836  26.376  0.00  0.00    +0.012 A 
ATOM     12  C   UNL     1       9.244   1.077  24.201  0.00  0.00    +0.100 C 
ENDROOT
BRANCH   1  13
ATOM     13  O   UNL     1       8.226   0.960  26.342  0.00  0.00    -0.506 OA
ATOM     14  H   UNL     1       7.559   1.608  26.057  0.00  0.00    +0.292 HD
ENDBRANCH   1  13
TORSDOF 1
ENDMDL
MODEL 8
REMARK VINA RESULT:      -5.0      5.161      7.102
REMARK  Name = 
REMARK  1 active torsions:
REMARK  status: ('A' for Active; 'I' for Inactive)
REMARK    1  A    between atoms: O_1  and  C_2
REMARK                            x       y       z     vdW  Elec       q    Type
REMARK                         _______ _______ _______ _____ _____    ______ ____
ROOT
ATOM      1  C   UNL     1       9.765   1.085  22.354  0.00  0.00    +0.128 C 
ATOM      2  C   UNL     1       9.022   1.417  23.582  0.00  0.00    +0.027 A 
ATOM      3  C   UNL     1       8.761   0.439  24.552  0.00  0.00    +0.036 A 
ATOM      4  C   UNL     1       8.054   0.749  25.723  0.00  0.00    +0.012 A 
ATOM      5  C   UNL     1       7.597   2.047  25.935  0.00  0.00    +0.001 A 
ATOM      6  C   UNL     1       7.846   3.032  24.983  0.00  0.00    +0.001 A 
ATOM      7  C   UNL     1       9.239  -0.942  24.343  0.00  0.00    +0.233 C 
ATOM      8  O   UNL     1       9.032  -1.821  25.168  0.00  0.00    -0.283 OA
ATOM      9  C   UNL     1      10.002  -1.248  23.063  0.00  0.00    +0.229 C 
ATOM     10  O   UNL     1      10.426  -2.369  22.822  0.00  0.00    -0.284 OA
ATOM     11  C   UNL     1       8.551   2.719  23.817  0.00  0.00    +0.012 A 
ATOM     12  C   UNL     1      10.223  -0.147  22.107  0.00  0.00    +0.100 C 
ENDROOT
BRANCH   1  13
ATOM     13  O   UNL     1       9.962   2.126  21.471  0.00  0.00    -0.506 OA
ATOM     14  H   UNL     1      10.911   2.212  21.273  0.00  0.00    +0.292 HD
ENDBRANCH   1  13
TORSDOF 1
ENDMDL
MODEL 9
REMARK VINA RESULT:      -5.0      3.752      5.966
REMARK  Name = 
REMARK  1 active torsions:
REMARK  status: ('A' for Active; 'I' for Inactive)
REMARK    1  A    between atoms: O_1  and  C_2
REMARK                            x       y       z     vdW  Elec       q    Type
REMARK                         _______ _______ _______ _____ _____    ______ ____
ROOT
ATOM      1  C   UNL     1       6.755  -0.918  24.048  0.00  0.00    +0.128 C 
ATOM      2  C   UNL     1       8.044  -0.218  24.188  0.00  0.00    +0.027 A 
ATOM      3  C   UNL     1       9.255  -0.922  24.125  0.00  0.00    +0.036 A 
ATOM      4  C   UNL     1      10.486  -0.262  24.258  0.00  0.00    +0.012 A 
ATOM      5  C   UNL     1      10.516   1.116  24.459  0.00  0.00    +0.001 A 
ATOM      6  C   UNL     1       9.324   1.832  24.524  0.00  0.00    +0.001 A 
ATOM      7  C   UNL     1       9.241  -2.383  23.913  0.00  0.00    +0.233 C 
ATOM      8  O   UNL     1      10.278  -3.030  23.851  0.00  0.00    -0.283 OA
ATOM      9  C   UNL     1       7.892  -3.071  23.774  0.00  0.00    +0.229 C 
ATOM     10  O   UNL     1       7.802  -4.278  23.598  0.00  0.00    -0.284 OA
ATOM     11  C   UNL     1       8.099   1.170  24.391  0.00  0.00    +0.012 A 
ATOM     12  C   UNL     1       6.676  -2.239  23.855  0.00  0.00    +0.100 C 
ENDROOT
BRANCH   1  13
ATOM     13  O   UNL     1       5.629  -0.126  24.127  0.00  0.00    -0.506 OA
ATOM     14  H   UNL     1       4.835  -0.671  23.994  0.00  0.00    +0.292 HD
ENDBRANCH   1  13
TORSDOF 1
ENDMDL
