MODEL 1
REMARK VINA RESULT:      -3.2      0.000      0.000
REMARK  Name = 
REMARK  4 active torsions:
REMARK  status: ('A' for Active; 'I' for Inactive)
REMARK    1  A    between atoms: O_1  and  C_2
REMARK    2  A    between atoms: C_2  and  C_3
REMARK    3  A    between atoms: C_3  and  C_4
REMARK    4  A    between atoms: C_4  and  O_5
REMARK                            x       y       z     vdW  Elec       q    Type
REMARK                         _______ _______ _______ _____ _____    ______ ____
ROOT
ATOM      1  C   UNL     1      12.197   5.855  23.764  0.00  0.00    +0.148 C 
ENDROOT
BRANCH   1   2
ATOM      2  C   UNL     1      13.251   5.476  22.753  0.00  0.00    +0.307 C 
ATOM      3  O   UNL     1      13.098   5.595  21.547  0.00  0.00    -0.251 OA
BRANCH   2   4
ATOM      4  O   UNL     1      14.357   4.910  23.289  0.00  0.00    -0.481 OA
ATOM      5  H   UNL     1      15.041   4.726  22.599  0.00  0.00    +0.295 HD
ENDBRANCH   2   4
ENDBRANCH   1   2
BRANCH   1   6
ATOM      6  C   UNL     1      10.978   4.953  23.704  0.00  0.00    +0.167 C 
BRANCH   6   7
ATOM      7  O   UNL     1      11.307   3.781  22.953  0.00  0.00    -0.394 OA
ATOM      8  H   UNL     1      11.555   4.083  22.057  0.00  0.00    +0.209 HD
ENDBRANCH   6   7
ENDBRANCH   1   6
TORSDOF 4
ENDMDL
MODEL 2
REMARK VINA RESULT:      -3.2     10.194     11.241
REMARK  Name = 
REMARK  4 active torsions:
REMARK  status: ('A' for Active; 'I' for Inactive)
REMARK    1  A    between atoms: O_1  and  C_2
REMARK    2  A    between atoms: C_2  and  C_3
REMARK    3  A    between atoms: C_3  and  C_4
REMARK    4  A    between atoms: C_4  and  O_5
REMARK                            x       y       z     vdW  Elec       q    Type
REMARK                         _______ _______ _______ _____ _____    ______ ____
ROOT
ATOM      1  C   UNL     1       8.706  -4.187  26.501  0.00  0.00    +0.148 C 
ENDROOT
BRANCH   1   2
ATOM      2  C   UNL     1       9.582  -4.772  25.422  0.00  0.00    +0.307 C 
ATOM      3  O   UNL     1      10.013  -4.121  24.481  0.00  0.00    -0.251 OA
BRANCH   2   4
ATOM      4  O   UNL     1       9.786  -6.104  25.532  0.00  0.00    -0.481 OA
ATOM      5  H   UNL     1       8.931  -6.603  25.533  0.00  0.00    +0.295 HD
ENDBRANCH   2   4
ENDBRANCH   1   2
BRANCH   1   6
ATOM      6  C   UNL     1       7.449  -5.002  26.740  0.00  0.00    +0.167 C 
BRANCH   6   7
ATOM      7  O   UNL     1       7.742  -6.038  27.683  0.00  0.00    -0.394 OA
ATOM      8  H   UNL     1       7.740  -5.620  28.567  0.00  0.00    +0.209 HD
ENDBRANCH   6   7
ENDBRANCH   1   6
TORSDOF 4
ENDMDL
MODEL 3
REMARK VINA RESULT:      -3.0      4.705      6.021
REMARK  Name = 
REMARK  4 active torsions:
REMARK  status: ('A' for Active; 'I' for Inactive)
REMARK    1  A    between atoms: O_1  and  C_2
REMARK    2  A    between atoms: C_2  and  C_3
REMARK    3  A    between atoms: C_3  and  C_4
REMARK    4  A    between atoms: C_4  and  O_5
REMARK                            x       y       z     vdW  Elec       q    Type
REMARK                         _______ _______ _______ _____ _____    ______ ____
ROOT
ATOM      1  C   UNL     1       9.147   0.345  21.370  0.00  0.00    +0.148 C 
ENDROOT
BRANCH   1   2
ATOM      2  C   UNL     1      10.058  -0.497  22.228  0.00  0.00    +0.307 C 
ATOM      3  O   UNL     1      10.559  -0.097  23.268  0.00  0.00    -0.251 OA
BRANCH   2   4
ATOM      4  O   UNL     1      10.346  -1.712  21.708  0.00  0.00    -0.481 OA
ATOM      5  H   UNL     1      10.346  -2.415  22.405  0.00  0.00    +0.295 HD
ENDBRANCH   2   4
ENDBRANCH   1   2
BRANCH   1   6
ATOM      6  C   UNL     1       9.053   1.781  21.850  0.00  0.00    +0.167 C 
BRANCH   6   7
ATOM      7  O   UNL     1      10.323   2.414  21.667  0.00  0.00    -0.394 OA
ATOM      8  H   UNL     1      10.837   2.252  22.483  0.00  0.00    +0.209 HD
ENDBRANCH   6   7
ENDBRANCH   1   6
TORSDOF 4
ENDMDL
MODEL 4
REMARK VINA RESULT:      -2.9     10.999     11.598
REMARK  Name = 
REMARK  4 active torsions:
REMARK  status: ('A' for Active; 'I' for Inactive)
REMARK    1  A    between atoms: O_1  and  C_2
REMARK    2  A    between atoms: C_2  and  C_3
REMARK    3  A    between atoms: C_3  and  C_4
REMARK    4  A    between atoms: C_4  and  O_5
REMARK                            x       y       z     vdW  Elec       q    Type
REMARK                         _______ _______ _______ _____ _____    ______ ____
ROOT
ATOM      1  C   UNL     1       7.434  -4.879  25.332  0.00  0.00    +0.148 C 
ENDROOT
BRANCH   1   2
ATOM      2  C   UNL     1       8.143  -4.830  26.663  0.00  0.00    +0.307 C 
ATOM      3  O   UNL     1       8.902  -3.929  26.987  0.00  0.00    -0.251 OA
BRANCH   2   4
ATOM      4  O   UNL     1       7.936  -5.916  27.444  0.00  0.00    -0.481 OA
ATOM      5  H   UNL     1       7.414  -5.687  28.253  0.00  0.00    +0.295 HD
ENDBRANCH   2   4
ENDBRANCH   1   2
BRANCH   1   6
ATOM      6  C   UNL     1       8.376  -5.169  24.179  0.00  0.00    +0.167 C 
BRANCH   6   7
ATOM      7  O   UNL     1       9.594  -5.709  24.701  0.00  0.00    -0.394 OA
ATOM      8  H   UNL     1      10.063  -6.120  23.948  0.00  0.00    +0.209 HD
ENDBRANCH   6   7
ENDBRANCH   1   6
TORSDOF 4
ENDMDL
MODEL 5
REMARK VINA RESULT:      -2.9      4.755      5.877
REMARK  Name = 
REMARK  4 active torsions:
REMARK  status: ('A' for Active; 'I' for Inactive)
REMARK    1  A    between atoms: O_1  and  C_2
REMARK    2  A    between atoms: C_2  and  C_3
REMARK    3  A    between atoms: C_3  and  C_4
REMARK    4  A    between atoms: C_4  and  O_5
REMARK                            x       y       z     vdW  Elec       q    Type
REMARK                         _______ _______ _______ _____ _____    ______ ____
ROOT
ATOM      1  C   UNL     1      10.182   0.263  23.005  0.00  0.00    +0.148 C 
ENDROOT
BRANCH   1   2
ATOM      2  C   UNL     1       9.423   1.296  22.210  0.00  0.00    +0.307 C 
ATOM      3  O   UNL     1       8.203   1.326  22.141  0.00  0.00    -0.251 OA
BRANCH   2   4
ATOM      4  O   UNL     1      10.208   2.143  21.506  0.00  0.00    -0.481 OA
ATOM      5  H   UNL     1      11.162   2.039  21.747  0.00  0.00    +0.295 HD
ENDBRANCH   2   4
ENDBRANCH   1   2
BRANCH   1   6
ATOM      6  C   UNL     1      10.152  -1.110  22.360  0.00  0.00    +0.167 C 
BRANCH   6   7
ATOM      7  O   UNL     1       9.672  -0.980  21.019  0.00  0.00    -0.394 OA
ATOM      8  H   UNL     1      10.392  -0.564  20.504  0.00  0.00    +0.209 HD
ENDBRANCH   6   7
ENDBRANCH   1   6
TORSDOF 4
ENDMDL
MODEL 6
REMARK VINA RESULT:      -2.9      2.722      3.893
REMARK  Name = 
REMARK  4 active torsions:
REMARK  status: ('A' for Active; 'I' for Inactive)
REMARK    1  A    between atoms: O_1  and  C_2
REMARK    2  A    between atoms: C_2  and  C_3
REMARK    3  A    between atoms: C_3  and  C_4
REMARK    4  A    between atoms: C_4  and  O_5
REMARK                            x       y       z     vdW  Elec       q    Type
REMARK                         _______ _______ _______ _____ _____    ______ ____
ROOT
ATOM      1  C   UNL     1      10.444   1.796  23.605  0.00  0.00    +0.148 C 
ENDROOT
BRANCH   1   2
ATOM      2  C   UNL     1      10.343   3.299  23.524  0.00  0.00    +0.307 C 
ATOM      3  O   UNL     1       9.346   3.924  23.856  0.00  0.00    -0.251 OA
BRANCH   2   4
ATOM      4  O   UNL     1      11.422   3.900  22.973  0.00  0.00    -0.481 OA
ATOM      5  H   UNL     1      11.721   4.675  23.511  0.00  0.00    +0.295 HD
ENDBRANCH   2   4
ENDBRANCH   1   2
BRANCH   1   6
ATOM      6  C   UNL     1      10.022   1.112  22.318  0.00  0.00    +0.167 C 
BRANCH   6   7
ATOM      7  O   UNL     1       9.664   2.111  21.359  0.00  0.00    -0.394 OA
ATOM      8  H   UNL     1       8.892   2.586  21.725  0.00  0.00    +0.209 HD
ENDBRANCH   6   7
ENDBRANCH   1   6
TORSDOF 4
ENDMDL
MODEL 7
REMARK VINA RESULT:      -2.8      9.500     10.784
REMARK  Name = 
REMARK  4 active torsions:
REMARK  status: ('A' for Active; 'I' for Inactive)
REMARK    1  A    between atoms: O_1  and  C_2
REMARK    2  A    between atoms: C_2  and  C_3
REMARK    3  A    between atoms: C_3  and  C_4
REMARK    4  A    between atoms: C_4  and  O_5
REMARK                            x       y       z     vdW  Elec       q    Type
REMARK                         _______ _______ _______ _____ _____    ______ ____
ROOT
ATOM      1  C   UNL     1       8.389  -4.638  24.186  0.00  0.00    +0.148 C 
ENDROOT
BRANCH   1   2
ATOM      2  C   UNL     1       8.896  -5.411  25.378  0.00  0.00    +0.307 C 
ATOM      3  O   UNL     1       8.186  -5.738  26.318  0.00  0.00    -0.251 OA
BRANCH   2   4
ATOM      4  O   UNL     1      10.228  -5.643  25.365  0.00  0.00    -0.481 OA
ATOM      5  H   UNL     1      10.453  -6.435  24.816  0.00  0.00    +0.295 HD
ENDBRANCH   2   4
ENDBRANCH   1   2
BRANCH   1   6
ATOM      6  C   UNL     1       8.810  -3.181  24.212  0.00  0.00    +0.167 C 
BRANCH   6   7
ATOM      7  O   UNL     1      10.204  -3.097  23.901  0.00  0.00    -0.394 OA
ATOM      8  H   UNL     1      10.570  -3.997  24.013  0.00  0.00    +0.209 HD
ENDBRANCH   6   7
ENDBRANCH   1   6
TORSDOF 4
ENDMDL
MODEL 8
REMARK VINA RESULT:      -2.7      4.497      5.052
REMARK  Name = 
REMARK  4 active torsions:
REMARK  status: ('A' for Active; 'I' for Inactive)
REMARK    1  A    between atoms: O_1  and  C_2
REMARK    2  A    between atoms: C_2  and  C_3
REMARK    3  A    between atoms: C_3  and  C_4
REMARK    4  A    between atoms: C_4  and  O_5
REMARK                            x       y       z     vdW  Elec       q    Type
REMARK                         _______ _______ _______ _____ _____    ______ ____
ROOT
ATOM      1  C   UNL     1       8.851   1.404  23.280  0.00  0.00    +0.148 C 
ENDROOT
BRANCH   1   2
ATOM      2  C   UNL     1       9.683   1.180  22.042  0.00  0.00    +0.307 C 
ATOM      3  O   UNL     1       9.870   0.078  21.549  0.00  0.00    -0.251 OA
BRANCH   2   4
ATOM      4  O   UNL     1      10.279   2.296  21.564  0.00  0.00    -0.481 OA
ATOM      5  H   UNL     1       9.990   2.494  20.638  0.00  0.00    +0.295 HD
ENDBRANCH   2   4
ENDBRANCH   1   2
BRANCH   1   6
ATOM      6  C   UNL     1       9.694   1.535  24.535  0.00  0.00    +0.167 C 
BRANCH   6   7
ATOM      7  O   UNL     1      11.028   1.111  24.242  0.00  0.00    -0.394 OA
ATOM      8  H   UNL     1      11.624   1.674  24.775  0.00  0.00    +0.209 HD
ENDBRANCH   6   7
ENDBRANCH   1   6
TORSDOF 4
ENDMDL
MODEL 9
REMARK VINA RESULT:      -2.7      3.610      4.925
REMARK  Name = 
REMARK  4 active torsions:
REMARK  status: ('A' for Active; 'I' for Inactive)
REMARK    1  A    between atoms: O_1  and  C_2
REMARK    2  A    between atoms: C_2  and  C_3
REMARK    3  A    between atoms: C_3  and  C_4
REMARK    4  A    between atoms: C_4  and  O_5
REMARK                            x       y       z     vdW  Elec       q    Type
REMARK                         _______ _______ _______ _____ _____    ______ ____
ROOT
ATOM      1  C   UNL     1       9.750   2.099  24.085  0.00  0.00    +0.148 C 
ENDROOT
BRANCH   1   2
ATOM      2  C   UNL     1      10.355   0.746  24.366  0.00  0.00    +0.307 C 
ATOM      3  O   UNL     1      10.753  -0.006  23.489  0.00  0.00    -0.251 OA
BRANCH   2   4
ATOM      4  O   UNL     1      10.344   0.392  25.671  0.00  0.00    -0.481 OA
ATOM      5  H   UNL     1       9.556  -0.166  25.890  0.00  0.00    +0.295 HD
ENDBRANCH   2   4
ENDBRANCH   1   2
BRANCH   1   6
ATOM      6  C   UNL     1      10.554   2.903  23.080  0.00  0.00    +0.167 C 
BRANCH   6   7
ATOM      7  O   UNL     1      10.323   2.370  21.772  0.00  0.00    -0.394 OA
ATOM      8  H   UNL     1       9.513   2.800  21.434  0.00  0.00    +0.209 HD
ENDBRANCH   6   7
ENDBRANCH   1   6
TORSDOF 4
ENDMDL
