MODEL 1
REMARK VINA RESULT:      -6.1      0.000      0.000
REMARK  Name = 
REMARK  5 active torsions:
REMARK  status: ('A' for Active; 'I' for Inactive)
REMARK    1  A    between atoms: C_1  and  C_2
REMARK    2  A    between atoms: C_4  and  O_5
REMARK    3  A    between atoms: O_5  and  C_6
REMARK    4  A    between atoms: C_6  and  C_7
REMARK    5  A    between atoms: C_14  and  C_15
REMARK                            x       y       z     vdW  Elec       q    Type
REMARK                         _______ _______ _______ _____ _____    ______ ____
ROOT
ATOM      1  O   UNL     1       8.309  -1.158  22.978  0.00  0.00    -0.488 OA
ENDROOT
BRANCH   1   8
ATOM      2  C   UNL     1       9.343  -5.234  25.445  0.00  0.00    +0.044 C 
ATOM      3  C   UNL     1       8.632  -4.535  24.324  0.00  0.00    -0.047 A 
ATOM      4  C   UNL     1       7.840  -5.277  23.440  0.00  0.00    +0.007 A 
ATOM      5  C   UNL     1       7.169  -4.651  22.384  0.00  0.00    -0.047 A 
ATOM      6  C   UNL     1       6.314  -5.462  21.456  0.00  0.00    +0.044 C 
ATOM      7  C   UNL     1       7.310  -3.268  22.206  0.00  0.00    +0.049 A 
ATOM      8  C   UNL     1       8.113  -2.514  23.067  0.00  0.00    +0.121 A 
ATOM      9  C   UNL     1       8.753  -3.150  24.135  0.00  0.00    +0.049 A 
ENDBRANCH   1   8
BRANCH   1  10
ATOM     10  C   UNL     1       9.312  -0.621  23.843  0.00  0.00    +0.275 C 
BRANCH  10  11
ATOM     11  C   UNL     1      10.188   0.364  23.080  0.00  0.00    +0.232 C 
ATOM     12  O   UNL     1      10.483   1.513  23.898  0.00  0.00    -0.442 OA
ATOM     13  C   UNL     1      10.580   2.593  23.066  0.00  0.00    +0.401 C 
ATOM     14  O   UNL     1      10.935   3.707  23.405  0.00  0.00    -0.226 OA
ATOM     15  N   UNL     1      10.189   2.238  21.804  0.00  0.00    -0.277 N 
ATOM     16  H   UNL     1      10.045   2.961  21.111  0.00  0.00    +0.152 HD
ATOM     17  C   UNL     1       9.560   0.958  21.840  0.00  0.00    +0.155 C 
ENDBRANCH  10  11
ENDBRANCH   1  10
TORSDOF 3
ENDMDL
MODEL 2
REMARK VINA RESULT:      -6.1      0.243      2.161
REMARK  Name = 
REMARK  5 active torsions:
REMARK  status: ('A' for Active; 'I' for Inactive)
REMARK    1  A    between atoms: C_1  and  C_2
REMARK    2  A    between atoms: C_4  and  O_5
REMARK    3  A    between atoms: O_5  and  C_6
REMARK    4  A    between atoms: C_6  and  C_7
REMARK    5  A    between atoms: C_14  and  C_15
REMARK                            x       y       z     vdW  Elec       q    Type
REMARK                         _______ _______ _______ _____ _____    ______ ____
ROOT
ATOM      1  O   UNL     1       8.016  -1.212  22.793  0.00  0.00    -0.488 OA
ENDROOT
BRANCH   1   8
ATOM      2  C   UNL     1       6.288  -5.541  21.362  0.00  0.00    +0.044 C 
ATOM      3  C   UNL     1       7.112  -4.714  22.304  0.00  0.00    -0.047 A 
ATOM      4  C   UNL     1       7.768  -5.335  23.374  0.00  0.00    +0.007 A 
ATOM      5  C   UNL     1       8.540  -4.588  24.270  0.00  0.00    -0.047 A 
ATOM      6  C   UNL     1       9.245  -5.274  25.402  0.00  0.00    +0.044 C 
ATOM      7  C   UNL     1       8.639  -3.200  24.098  0.00  0.00    +0.049 A 
ATOM      8  C   UNL     1       7.975  -2.560  23.047  0.00  0.00    +0.121 A 
ATOM      9  C   UNL     1       7.232  -3.326  22.143  0.00  0.00    +0.049 A 
ENDBRANCH   1   8
BRANCH   1  10
ATOM     10  C   UNL     1       8.738  -0.427  23.744  0.00  0.00    +0.275 C 
BRANCH  10  11
ATOM     11  C   UNL     1       9.799   0.407  23.037  0.00  0.00    +0.232 C 
ATOM     12  O   UNL     1      10.212   1.508  23.869  0.00  0.00    -0.442 OA
ATOM     13  C   UNL     1      10.523   2.551  23.043  0.00  0.00    +0.401 C 
ATOM     14  O   UNL     1      11.020   3.603  23.401  0.00  0.00    -0.226 OA
ATOM     15  N   UNL     1      10.163   2.244  21.759  0.00  0.00    -0.277 N 
ATOM     16  H   UNL     1      10.173   2.973  21.057  0.00  0.00    +0.152 HD
ATOM     17  C   UNL     1       9.346   1.074  21.758  0.00  0.00    +0.155 C 
ENDBRANCH  10  11
ENDBRANCH   1  10
TORSDOF 3
ENDMDL
MODEL 3
REMARK VINA RESULT:      -5.8      1.702      2.299
REMARK  Name = 
REMARK  5 active torsions:
REMARK  status: ('A' for Active; 'I' for Inactive)
REMARK    1  A    between atoms: C_1  and  C_2
REMARK    2  A    between atoms: C_4  and  O_5
REMARK    3  A    between atoms: O_5  and  C_6
REMARK    4  A    between atoms: C_6  and  C_7
REMARK    5  A    between atoms: C_14  and  C_15
REMARK                            x       y       z     vdW  Elec       q    Type
REMARK                         _______ _______ _______ _____ _____    ______ ____
ROOT
ATOM      1  O   UNL     1       7.735  -1.100  22.635  0.00  0.00    -0.488 OA
ENDROOT
BRANCH   1   8
ATOM      2  C   UNL     1       7.089  -5.848  21.731  0.00  0.00    +0.044 C 
ATOM      3  C   UNL     1       6.671  -4.585  22.424  0.00  0.00    -0.047 A 
ATOM      4  C   UNL     1       5.539  -4.593  23.248  0.00  0.00    +0.007 A 
ATOM      5  C   UNL     1       5.124  -3.429  23.904  0.00  0.00    -0.047 A 
ATOM      6  C   UNL     1       3.916  -3.462  24.794  0.00  0.00    +0.044 C 
ATOM      7  C   UNL     1       5.844  -2.241  23.714  0.00  0.00    +0.049 A 
ATOM      8  C   UNL     1       6.965  -2.210  22.879  0.00  0.00    +0.121 A 
ATOM      9  C   UNL     1       7.384  -3.389  22.255  0.00  0.00    +0.049 A 
ENDBRANCH   1   8
BRANCH   1  10
ATOM     10  C   UNL     1       9.062  -1.361  22.171  0.00  0.00    +0.275 C 
BRANCH  10  11
ATOM     11  C   UNL     1       9.742  -0.057  21.773  0.00  0.00    +0.232 C 
ATOM     12  O   UNL     1      10.354   0.563  22.921  0.00  0.00    -0.442 OA
ATOM     13  C   UNL     1      10.280   1.915  22.743  0.00  0.00    +0.401 C 
ATOM     14  O   UNL     1      10.803   2.745  23.464  0.00  0.00    -0.226 OA
ATOM     15  N   UNL     1       9.504   2.194  21.651  0.00  0.00    -0.277 N 
ATOM     16  H   UNL     1       9.214   3.149  21.483  0.00  0.00    +0.152 HD
ATOM     17  C   UNL     1       8.819   1.013  21.237  0.00  0.00    +0.155 C 
ENDBRANCH  10  11
ENDBRANCH   1  10
TORSDOF 3
ENDMDL
MODEL 4
REMARK VINA RESULT:      -5.6      3.776      6.615
REMARK  Name = 
REMARK  5 active torsions:
REMARK  status: ('A' for Active; 'I' for Inactive)
REMARK    1  A    between atoms: C_1  and  C_2
REMARK    2  A    between atoms: C_4  and  O_5
REMARK    3  A    between atoms: O_5  and  C_6
REMARK    4  A    between atoms: C_6  and  C_7
REMARK    5  A    between atoms: C_14  and  C_15
REMARK                            x       y       z     vdW  Elec       q    Type
REMARK                         _______ _______ _______ _____ _____    ______ ____
ROOT
ATOM      1  O   UNL     1       9.338  -4.403  24.214  0.00  0.00    -0.488 OA
ENDROOT
BRANCH   1   8
ATOM      2  C   UNL     1      10.232   0.114  22.609  0.00  0.00    +0.044 C 
ATOM      3  C   UNL     1       9.706  -0.813  23.665  0.00  0.00    -0.047 A 
ATOM      4  C   UNL     1       9.195  -0.283  24.856  0.00  0.00    +0.007 A 
ATOM      5  C   UNL     1       8.701  -1.125  25.859  0.00  0.00    -0.047 A 
ATOM      6  C   UNL     1       8.145  -0.537  27.122  0.00  0.00    +0.044 C 
ATOM      7  C   UNL     1       8.738  -2.514  25.668  0.00  0.00    +0.049 A 
ATOM      8  C   UNL     1       9.263  -3.061  24.494  0.00  0.00    +0.121 A 
ATOM      9  C   UNL     1       9.725  -2.205  23.489  0.00  0.00    +0.049 A 
ENDBRANCH   1   8
BRANCH   1  10
ATOM     10  C   UNL     1       8.132  -5.143  24.419  0.00  0.00    +0.275 C 
BRANCH  10  11
ATOM     11  C   UNL     1       7.204  -4.974  23.223  0.00  0.00    +0.232 C 
ATOM     12  O   UNL     1       5.829  -4.949  23.652  0.00  0.00    -0.442 OA
ATOM     13  C   UNL     1       5.080  -5.518  22.662  0.00  0.00    +0.401 C 
ATOM     14  O   UNL     1       3.864  -5.557  22.638  0.00  0.00    -0.226 OA
ATOM     15  N   UNL     1       5.907  -6.064  21.717  0.00  0.00    -0.277 N 
ATOM     16  H   UNL     1       5.512  -6.666  21.005  0.00  0.00    +0.152 HD
ATOM     17  C   UNL     1       7.244  -6.098  22.213  0.00  0.00    +0.155 C 
ENDBRANCH  10  11
ENDBRANCH   1  10
TORSDOF 3
ENDMDL
MODEL 5
REMARK VINA RESULT:      -5.5      3.617      6.671
REMARK  Name = 
REMARK  5 active torsions:
REMARK  status: ('A' for Active; 'I' for Inactive)
REMARK    1  A    between atoms: C_1  and  C_2
REMARK    2  A    between atoms: C_4  and  O_5
REMARK    3  A    between atoms: O_5  and  C_6
REMARK    4  A    between atoms: C_6  and  C_7
REMARK    5  A    between atoms: C_14  and  C_15
REMARK                            x       y       z     vdW  Elec       q    Type
REMARK                         _______ _______ _______ _____ _____    ______ ____
ROOT
ATOM      1  O   UNL     1       8.245  -3.226  23.291  0.00  0.00    -0.488 OA
ENDROOT
BRANCH   1   8
ATOM      2  C   UNL     1       6.752   1.337  22.440  0.00  0.00    +0.044 C 
ATOM      3  C   UNL     1       7.761   0.380  23.002  0.00  0.00    -0.047 A 
ATOM      4  C   UNL     1       8.924   0.878  23.602  0.00  0.00    +0.007 A 
ATOM      5  C   UNL     1       9.885   0.009  24.130  0.00  0.00    -0.047 A 
ATOM      6  C   UNL     1      11.118   0.563  24.781  0.00  0.00    +0.044 C 
ATOM      7  C   UNL     1       9.681  -1.375  24.038  0.00  0.00    +0.049 A 
ATOM      8  C   UNL     1       8.535  -1.891  23.424  0.00  0.00    +0.121 A 
ATOM      9  C   UNL     1       7.571  -1.007  22.928  0.00  0.00    +0.049 A 
ENDBRANCH   1   8
BRANCH   1  10
ATOM     10  C   UNL     1       7.026  -3.656  23.902  0.00  0.00    +0.275 C 
BRANCH  10  11
ATOM     11  C   UNL     1       7.282  -4.876  24.777  0.00  0.00    +0.232 C 
ATOM     12  O   UNL     1       6.613  -4.735  26.045  0.00  0.00    -0.442 OA
ATOM     13  C   UNL     1       7.381  -5.361  26.986  0.00  0.00    +0.401 C 
ATOM     14  O   UNL     1       7.060  -5.539  28.146  0.00  0.00    -0.226 OA
ATOM     15  N   UNL     1       8.577  -5.729  26.432  0.00  0.00    -0.277 N 
ATOM     16  H   UNL     1       9.321  -6.054  27.036  0.00  0.00    +0.152 HD
ATOM     17  C   UNL     1       8.728  -5.102  25.159  0.00  0.00    +0.155 C 
ENDBRANCH  10  11
ENDBRANCH   1  10
TORSDOF 3
ENDMDL
MODEL 6
REMARK VINA RESULT:      -5.4      1.576      2.018
REMARK  Name = 
REMARK  5 active torsions:
REMARK  status: ('A' for Active; 'I' for Inactive)
REMARK    1  A    between atoms: C_1  and  C_2
REMARK    2  A    between atoms: C_4  and  O_5
REMARK    3  A    between atoms: O_5  and  C_6
REMARK    4  A    between atoms: C_6  and  C_7
REMARK    5  A    between atoms: C_14  and  C_15
REMARK                            x       y       z     vdW  Elec       q    Type
REMARK                         _______ _______ _______ _____ _____    ______ ____
ROOT
ATOM      1  O   UNL     1       8.942  -2.082  22.200  0.00  0.00    -0.488 OA
ENDROOT
BRANCH   1   8
ATOM      2  C   UNL     1       5.208  -1.621  25.302  0.00  0.00    +0.044 C 
ATOM      3  C   UNL     1       5.915  -2.380  24.217  0.00  0.00    -0.047 A 
ATOM      4  C   UNL     1       5.380  -3.591  23.761  0.00  0.00    +0.007 A 
ATOM      5  C   UNL     1       6.021  -4.321  22.754  0.00  0.00    -0.047 A 
ATOM      6  C   UNL     1       5.424  -5.609  22.270  0.00  0.00    +0.044 C 
ATOM      7  C   UNL     1       7.220  -3.836  22.213  0.00  0.00    +0.049 A 
ATOM      8  C   UNL     1       7.779  -2.639  22.670  0.00  0.00    +0.121 A 
ATOM      9  C   UNL     1       7.110  -1.907  23.656  0.00  0.00    +0.049 A 
ENDBRANCH   1   8
BRANCH   1  10
ATOM     10  C   UNL     1       9.714  -1.361  23.163  0.00  0.00    +0.275 C 
BRANCH  10  11
ATOM     11  C   UNL     1      10.266  -0.085  22.541  0.00  0.00    +0.232 C 
ATOM     12  O   UNL     1      10.365   0.956  23.532  0.00  0.00    -0.442 OA
ATOM     13  C   UNL     1      10.134   2.146  22.901  0.00  0.00    +0.401 C 
ATOM     14  O   UNL     1      10.255   3.244  23.412  0.00  0.00    -0.226 OA
ATOM     15  N   UNL     1       9.718   1.913  21.619  0.00  0.00    -0.277 N 
ATOM     16  H   UNL     1       9.348   2.681  21.073  0.00  0.00    +0.152 HD
ATOM     17  C   UNL     1       9.404   0.530  21.461  0.00  0.00    +0.155 C 
ENDBRANCH  10  11
ENDBRANCH   1  10
TORSDOF 3
ENDMDL
MODEL 7
REMARK VINA RESULT:      -5.4      2.789      7.663
REMARK  Name = 
REMARK  5 active torsions:
REMARK  status: ('A' for Active; 'I' for Inactive)
REMARK    1  A    between atoms: C_1  and  C_2
REMARK    2  A    between atoms: C_4  and  O_5
REMARK    3  A    between atoms: O_5  and  C_6
REMARK    4  A    between atoms: C_6  and  C_7
REMARK    5  A    between atoms: C_14  and  C_15
REMARK                            x       y       z     vdW  Elec       q    Type
REMARK                         _______ _______ _______ _____ _____    ______ ____
ROOT
ATOM      1  O   UNL     1       9.412   1.801  23.637  0.00  0.00    -0.488 OA
ENDROOT
BRANCH   1   8
ATOM      2  C   UNL     1       8.571   6.425  24.936  0.00  0.00    +0.044 C 
ATOM      3  C   UNL     1       9.486   5.374  24.380  0.00  0.00    -0.047 A 
ATOM      4  C   UNL     1      10.772   5.732  23.960  0.00  0.00    +0.007 A 
ATOM      5  C   UNL     1      11.645   4.773  23.434  0.00  0.00    -0.047 A 
ATOM      6  C   UNL     1      13.024   5.174  23.002  0.00  0.00    +0.044 C 
ATOM      7  C   UNL     1      11.212   3.444  23.314  0.00  0.00    +0.049 A 
ATOM      8  C   UNL     1       9.924   3.073  23.710  0.00  0.00    +0.121 A 
ATOM      9  C   UNL     1       9.075   4.038  24.261  0.00  0.00    +0.049 A 
ENDBRANCH   1   8
BRANCH   1  10
ATOM     10  C   UNL     1      10.344   0.782  23.268  0.00  0.00    +0.275 C 
BRANCH  10  11
ATOM     11  C   UNL     1      10.246  -0.391  24.235  0.00  0.00    +0.232 C 
ATOM     12  O   UNL     1      10.252  -1.639  23.514  0.00  0.00    -0.442 OA
ATOM     13  C   UNL     1       9.475  -2.519  24.213  0.00  0.00    +0.401 C 
ATOM     14  O   UNL     1       9.352  -3.702  23.955  0.00  0.00    -0.226 OA
ATOM     15  N   UNL     1       8.833  -1.860  25.226  0.00  0.00    -0.277 N 
ATOM     16  H   UNL     1       8.094  -2.333  25.732  0.00  0.00    +0.152 HD
ATOM     17  C   UNL     1       8.972  -0.452  25.046  0.00  0.00    +0.155 C 
ENDBRANCH  10  11
ENDBRANCH   1  10
TORSDOF 3
ENDMDL
MODEL 8
REMARK VINA RESULT:      -5.4      2.929      7.373
REMARK  Name = 
REMARK  5 active torsions:
REMARK  status: ('A' for Active; 'I' for Inactive)
REMARK    1  A    between atoms: C_1  and  C_2
REMARK    2  A    between atoms: C_4  and  O_5
REMARK    3  A    between atoms: O_5  and  C_6
REMARK    4  A    between atoms: C_6  and  C_7
REMARK    5  A    between atoms: C_14  and  C_15
REMARK                            x       y       z     vdW  Elec       q    Type
REMARK                         _______ _______ _______ _____ _____    ______ ____
ROOT
ATOM      1  O   UNL     1       9.223   2.040  23.362  0.00  0.00    -0.488 OA
ENDROOT
BRANCH   1   8
ATOM      2  C   UNL     1      11.376   6.292  24.389  0.00  0.00    +0.044 C 
ATOM      3  C   UNL     1      10.213   5.520  23.839  0.00  0.00    -0.047 A 
ATOM      4  C   UNL     1       9.097   6.210  23.351  0.00  0.00    +0.007 A 
ATOM      5  C   UNL     1       7.997   5.515  22.836  0.00  0.00    -0.047 A 
ATOM      6  C   UNL     1       6.816   6.273  22.305  0.00  0.00    +0.044 C 
ATOM      7  C   UNL     1       8.014   4.113  22.829  0.00  0.00    +0.049 A 
ATOM      8  C   UNL     1       9.111   3.408  23.331  0.00  0.00    +0.121 A 
ATOM      9  C   UNL     1      10.215   4.118  23.814  0.00  0.00    +0.049 A 
ENDBRANCH   1   8
BRANCH   1  10
ATOM     10  C   UNL     1       8.019   1.317  23.094  0.00  0.00    +0.275 C 
BRANCH  10  11
ATOM     11  C   UNL     1       8.350  -0.051  22.511  0.00  0.00    +0.232 C 
ATOM     12  O   UNL     1       8.868  -0.922  23.535  0.00  0.00    -0.442 OA
ATOM     13  C   UNL     1       9.776  -1.754  22.943  0.00  0.00    +0.401 C 
ATOM     14  O   UNL     1      10.322  -2.696  23.488  0.00  0.00    -0.226 OA
ATOM     15  N   UNL     1       9.999  -1.350  21.655  0.00  0.00    -0.277 N 
ATOM     16  H   UNL     1      10.765  -1.758  21.135  0.00  0.00    +0.152 HD
ATOM     17  C   UNL     1       9.431  -0.056  21.454  0.00  0.00    +0.155 C 
ENDBRANCH  10  11
ENDBRANCH   1  10
TORSDOF 3
ENDMDL
MODEL 9
REMARK VINA RESULT:      -5.3      3.634      6.813
REMARK  Name = 
REMARK  5 active torsions:
REMARK  status: ('A' for Active; 'I' for Inactive)
REMARK    1  A    between atoms: C_1  and  C_2
REMARK    2  A    between atoms: C_4  and  O_5
REMARK    3  A    between atoms: O_5  and  C_6
REMARK    4  A    between atoms: C_6  and  C_7
REMARK    5  A    between atoms: C_14  and  C_15
REMARK                            x       y       z     vdW  Elec       q    Type
REMARK                         _______ _______ _______ _____ _____    ______ ____
ROOT
ATOM      1  O   UNL     1       7.514  -2.943  24.337  0.00  0.00    -0.488 OA
ENDROOT
BRANCH   1   8
ATOM      2  C   UNL     1       6.678   1.486  22.477  0.00  0.00    +0.044 C 
ATOM      3  C   UNL     1       7.569   0.528  23.212  0.00  0.00    -0.047 A 
ATOM      4  C   UNL     1       8.838   0.949  23.629  0.00  0.00    +0.007 A 
ATOM      5  C   UNL     1       9.691   0.076  24.312  0.00  0.00    -0.047 A 
ATOM      6  C   UNL     1      11.041   0.550  24.763  0.00  0.00    +0.044 C 
ATOM      7  C   UNL     1       9.271  -1.238  24.562  0.00  0.00    +0.049 A 
ATOM      8  C   UNL     1       8.016  -1.681  24.135  0.00  0.00    +0.121 A 
ATOM      9  C   UNL     1       7.163  -0.787  23.480  0.00  0.00    +0.049 A 
ENDBRANCH   1   8
BRANCH   1  10
ATOM     10  C   UNL     1       8.100  -3.975  23.539  0.00  0.00    +0.275 C 
BRANCH  10  11
ATOM     11  C   UNL     1       7.089  -4.486  22.521  0.00  0.00    +0.232 C 
ATOM     12  O   UNL     1       5.753  -4.412  23.057  0.00  0.00    -0.442 OA
ATOM     13  C   UNL     1       5.044  -5.456  22.535  0.00  0.00    +0.401 C 
ATOM     14  O   UNL     1       3.848  -5.632  22.680  0.00  0.00    -0.226 OA
ATOM     15  N   UNL     1       5.887  -6.287  21.849  0.00  0.00    -0.277 N 
ATOM     16  H   UNL     1       5.548  -7.191  21.544  0.00  0.00    +0.152 HD
ATOM     17  C   UNL     1       7.241  -5.941  22.138  0.00  0.00    +0.155 C 
ENDBRANCH  10  11
ENDBRANCH   1  10
TORSDOF 3
ENDMDL
