MODEL 1
REMARK VINA RESULT:      -6.5      0.000      0.000
REMARK  Name = 
REMARK  5 active torsions:
REMARK  status: ('A' for Active; 'I' for Inactive)
REMARK    1  A    between atoms: C3*_2  and  O3*_3
REMARK    2  A    between atoms: C1*_5  and  N_12
REMARK    3  A    between atoms: C4*_8  and  C5*_10
REMARK    4  A    between atoms: C5*_10  and  O5*_11
REMARK    5  A    between atoms: C_14  and  C_15
REMARK                            x       y       z     vdW  Elec       q    Type
REMARK                         _______ _______ _______ _____ _____    ______ ____
ROOT
ATOM      1  N   UNL     1       4.862  -5.679  24.808  0.00  0.00    -0.273 N 
ATOM      2  C   UNL     1       4.583  -6.634  23.840  0.00  0.00    +0.331 A 
ATOM      3  O   UNL     1       3.624  -7.399  23.883  0.00  0.00    -0.246 OA
ATOM      4  N   UNL     1       5.460  -6.680  22.788  0.00  0.00    -0.274 N 
ATOM      5  H   UNL     1       5.275  -7.375  22.078  0.00  0.00    +0.173 HD
ATOM      6  C   UNL     1       6.496  -5.817  22.544  0.00  0.00    +0.262 A 
ATOM      7  O   UNL     1       7.180  -5.923  21.531  0.00  0.00    -0.267 OA
ATOM      8  C   UNL     1       6.713  -4.751  23.564  0.00  0.00    +0.069 A 
ATOM      9  C   UNL     1       5.876  -4.756  24.612  0.00  0.00    +0.107 A 
ENDROOT
BRANCH   8  10
ATOM     10  C   UNL     1       7.763  -3.776  23.465  0.00  0.00    +0.027 A 
ATOM     11  S   UNL     1       7.677  -2.448  22.342  0.00  0.00    -0.081 S 
ATOM     12  C   UNL     1       9.143  -1.801  22.862  0.00  0.00    +0.055 A 
ATOM     13 BR   UNL     1       9.864  -0.221  22.161  0.00  0.00    -0.043 Br
ATOM     14  C   UNL     1       9.748  -2.548  23.834  0.00  0.00    +0.023 A 
ATOM     15  C   UNL     1       8.956  -3.688  24.176  0.00  0.00    +0.017 A 
ENDBRANCH   8  10
BRANCH   1  19
ATOM     16  C3* UNL     1       4.902  -6.816  27.698  0.00  0.00    +0.150 C 
ATOM     17  C4* UNL     1       5.078  -5.334  28.006  0.00  0.00    +0.175 C 
ATOM     18  O4* UNL     1       4.479  -4.600  26.908  0.00  0.00    -0.348 OA
ATOM     19  C1* UNL     1       3.944  -5.548  25.953  0.00  0.00    +0.226 C 
ATOM     20  C2* UNL     1       3.714  -6.815  26.767  0.00  0.00    +0.088 C 
BRANCH  16  21
ATOM     21  O3* UNL     1       4.682  -7.602  28.856  0.00  0.00    -0.389 OA
ATOM     22  H3* UNL     1       5.066  -7.146  29.626  0.00  0.00    +0.210 HD
ENDBRANCH  16  21
BRANCH  17  23
ATOM     23  C5* UNL     1       6.556  -4.959  28.157  0.00  0.00    +0.190 C 
BRANCH  23  24
ATOM     24  O5* UNL     1       7.384  -6.107  27.970  0.00  0.00    -0.392 OA
ATOM     25  H5* UNL     1       8.062  -6.083  28.671  0.00  0.00    +0.210 HD
ENDBRANCH  23  24
ENDBRANCH  17  23
ENDBRANCH   1  19
TORSDOF 5
ENDMDL
MODEL 2
REMARK VINA RESULT:      -6.3      3.483      5.422
REMARK  Name = 
REMARK  5 active torsions:
REMARK  status: ('A' for Active; 'I' for Inactive)
REMARK    1  A    between atoms: C3*_2  and  O3*_3
REMARK    2  A    between atoms: C1*_5  and  N_12
REMARK    3  A    between atoms: C4*_8  and  C5*_10
REMARK    4  A    between atoms: C5*_10  and  O5*_11
REMARK    5  A    between atoms: C_14  and  C_15
REMARK                            x       y       z     vdW  Elec       q    Type
REMARK                         _______ _______ _______ _____ _____    ______ ____
ROOT
ATOM      1  N   UNL     1       7.944  -3.116  24.386  0.00  0.00    -0.273 N 
ATOM      2  C   UNL     1       9.286  -3.464  24.318  0.00  0.00    +0.331 A 
ATOM      3  O   UNL     1       9.725  -4.574  24.606  0.00  0.00    -0.246 OA
ATOM      4  N   UNL     1      10.131  -2.473  23.892  0.00  0.00    -0.274 N 
ATOM      5  H   UNL     1      11.113  -2.708  23.845  0.00  0.00    +0.173 HD
ATOM      6  C   UNL     1       9.775  -1.235  23.425  0.00  0.00    +0.262 A 
ATOM      7  O   UNL     1      10.623  -0.449  23.013  0.00  0.00    -0.267 OA
ATOM      8  C   UNL     1       8.317  -0.927  23.434  0.00  0.00    +0.069 A 
ATOM      9  C   UNL     1       7.511  -1.892  23.903  0.00  0.00    +0.107 A 
ENDROOT
BRANCH   8  10
ATOM     10  C   UNL     1       7.779   0.329  22.990  0.00  0.00    +0.027 A 
ATOM     11  S   UNL     1       6.463   1.107  23.823  0.00  0.00    -0.081 S 
ATOM     12  C   UNL     1       6.482   2.438  22.790  0.00  0.00    +0.055 A 
ATOM     13 BR   UNL     1       5.327   3.898  22.989  0.00  0.00    -0.043 Br
ATOM     14  C   UNL     1       7.415   2.335  21.796  0.00  0.00    +0.023 A 
ATOM     15  C   UNL     1       8.157   1.118  21.908  0.00  0.00    +0.017 A 
ENDBRANCH   8  10
BRANCH   1  19
ATOM     16  C3* UNL     1       5.355  -4.235  23.086  0.00  0.00    +0.150 C 
ATOM     17  C4* UNL     1       6.235  -5.477  23.011  0.00  0.00    +0.175 C 
ATOM     18  O4* UNL     1       7.209  -5.371  24.080  0.00  0.00    -0.348 OA
ATOM     19  C1* UNL     1       6.971  -4.140  24.804  0.00  0.00    +0.226 C 
ATOM     20  C2* UNL     1       5.508  -3.817  24.528  0.00  0.00    +0.088 C 
BRANCH  16  21
ATOM     21  O3* UNL     1       4.006  -4.489  22.736  0.00  0.00    -0.389 OA
ATOM     22  H3* UNL     1       3.981  -5.173  22.043  0.00  0.00    +0.210 HD
ENDBRANCH  16  21
BRANCH  17  23
ATOM     23  C5* UNL     1       6.939  -5.592  21.655  0.00  0.00    +0.190 C 
BRANCH  23  24
ATOM     24  O5* UNL     1       6.005  -5.404  20.590  0.00  0.00    -0.392 OA
ATOM     25  H5* UNL     1       5.846  -4.444  20.521  0.00  0.00    +0.210 HD
ENDBRANCH  23  24
ENDBRANCH  17  23
ENDBRANCH   1  19
TORSDOF 5
ENDMDL
MODEL 3
REMARK VINA RESULT:      -6.3      2.524      3.761
REMARK  Name = 
REMARK  5 active torsions:
REMARK  status: ('A' for Active; 'I' for Inactive)
REMARK    1  A    between atoms: C3*_2  and  O3*_3
REMARK    2  A    between atoms: C1*_5  and  N_12
REMARK    3  A    between atoms: C4*_8  and  C5*_10
REMARK    4  A    between atoms: C5*_10  and  O5*_11
REMARK    5  A    between atoms: C_14  and  C_15
REMARK                            x       y       z     vdW  Elec       q    Type
REMARK                         _______ _______ _______ _____ _____    ______ ____
ROOT
ATOM      1  N   UNL     1       6.821  -4.140  26.877  0.00  0.00    -0.273 N 
ATOM      2  C   UNL     1       7.603  -5.249  27.171  0.00  0.00    +0.331 A 
ATOM      3  O   UNL     1       7.303  -6.104  28.000  0.00  0.00    -0.246 OA
ATOM      4  N   UNL     1       8.769  -5.353  26.459  0.00  0.00    -0.274 N 
ATOM      5  H   UNL     1       9.353  -6.151  26.666  0.00  0.00    +0.173 HD
ATOM      6  C   UNL     1       9.174  -4.549  25.425  0.00  0.00    +0.262 A 
ATOM      7  O   UNL     1      10.217  -4.778  24.820  0.00  0.00    -0.267 OA
ATOM      8  C   UNL     1       8.267  -3.418  25.082  0.00  0.00    +0.069 A 
ATOM      9  C   UNL     1       7.156  -3.304  25.826  0.00  0.00    +0.107 A 
ENDROOT
BRANCH   8  10
ATOM     10  C   UNL     1       8.551  -2.476  24.034  0.00  0.00    +0.027 A 
ATOM     11  S   UNL     1       9.146  -0.876  24.378  0.00  0.00    -0.081 S 
ATOM     12  C   UNL     1       9.265  -0.477  22.746  0.00  0.00    +0.055 A 
ATOM     13 BR   UNL     1       9.904   1.178  22.146  0.00  0.00    -0.043 Br
ATOM     14  C   UNL     1       8.843  -1.476  21.913  0.00  0.00    +0.023 A 
ATOM     15  C   UNL     1       8.426  -2.625  22.657  0.00  0.00    +0.017 A 
ENDBRANCH   8  10
BRANCH   1  19
ATOM     16  C3* UNL     1       4.078  -2.952  26.033  0.00  0.00    +0.150 C 
ATOM     17  C4* UNL     1       3.683  -4.415  26.194  0.00  0.00    +0.175 C 
ATOM     18  O4* UNL     1       4.606  -5.000  27.147  0.00  0.00    -0.348 OA
ATOM     19  C1* UNL     1       5.536  -3.978  27.580  0.00  0.00    +0.226 C 
ATOM     20  C2* UNL     1       4.802  -2.668  27.327  0.00  0.00    +0.088 C 
BRANCH  16  21
ATOM     21  O3* UNL     1       2.968  -2.096  25.835  0.00  0.00    -0.389 OA
ATOM     22  H3* UNL     1       2.793  -1.607  26.659  0.00  0.00    +0.210 HD
ENDBRANCH  16  21
BRANCH  17  23
ATOM     23  C5* UNL     1       3.743  -5.168  24.861  0.00  0.00    +0.190 C 
BRANCH  23  24
ATOM     24  O5* UNL     1       3.881  -4.250  23.775  0.00  0.00    -0.392 OA
ATOM     25  H5* UNL     1       2.989  -3.907  23.580  0.00  0.00    +0.210 HD
ENDBRANCH  23  24
ENDBRANCH  17  23
ENDBRANCH   1  19
TORSDOF 5
ENDMDL
MODEL 4
REMARK VINA RESULT:      -6.1      3.904      6.538
REMARK  Name = 
REMARK  5 active torsions:
REMARK  status: ('A' for Active; 'I' for Inactive)
REMARK    1  A    between atoms: C3*_2  and  O3*_3
REMARK    2  A    between atoms: C1*_5  and  N_12
REMARK    3  A    between atoms: C4*_8  and  C5*_10
REMARK    4  A    between atoms: C5*_10  and  O5*_11
REMARK    5  A    between atoms: C_14  and  C_15
REMARK                            x       y       z     vdW  Elec       q    Type
REMARK                         _______ _______ _______ _____ _____    ______ ____
ROOT
ATOM      1  N   UNL     1       7.595  -5.214  24.688  0.00  0.00    -0.273 N 
ATOM      2  C   UNL     1       8.647  -5.354  25.582  0.00  0.00    +0.331 A 
ATOM      3  O   UNL     1       9.832  -5.284  25.268  0.00  0.00    -0.246 OA
ATOM      4  N   UNL     1       8.288  -5.578  26.885  0.00  0.00    -0.274 N 
ATOM      5  H   UNL     1       9.042  -5.690  27.548  0.00  0.00    +0.173 HD
ATOM      6  C   UNL     1       7.018  -5.560  27.401  0.00  0.00    +0.262 A 
ATOM      7  O   UNL     1       6.824  -5.715  28.603  0.00  0.00    -0.267 OA
ATOM      8  C   UNL     1       5.918  -5.322  26.424  0.00  0.00    +0.069 A 
ATOM      9  C   UNL     1       6.289  -5.157  25.145  0.00  0.00    +0.107 A 
ENDROOT
BRANCH   8  10
ATOM     10  C   UNL     1       4.531  -5.286  26.798  0.00  0.00    +0.027 A 
ATOM     11  S   UNL     1       3.472  -6.640  26.518  0.00  0.00    -0.081 S 
ATOM     12  C   UNL     1       2.158  -5.871  27.239  0.00  0.00    +0.055 A 
ATOM     13 BR   UNL     1       0.479  -6.679  27.419  0.00  0.00    -0.043 Br
ATOM     14  C   UNL     1       2.443  -4.604  27.667  0.00  0.00    +0.023 A 
ATOM     15  C   UNL     1       3.808  -4.266  27.407  0.00  0.00    +0.017 A 
ENDBRANCH   8  10
BRANCH   1  19
ATOM     16  C3* UNL     1       6.160  -3.555  22.489  0.00  0.00    +0.150 C 
ATOM     17  C4* UNL     1       7.422  -2.717  22.656  0.00  0.00    +0.175 C 
ATOM     18  O4* UNL     1       8.460  -3.607  23.141  0.00  0.00    -0.348 OA
ATOM     19  C1* UNL     1       7.904  -4.938  23.274  0.00  0.00    +0.226 C 
ATOM     20  C2* UNL     1       6.716  -4.948  22.321  0.00  0.00    +0.088 C 
BRANCH  16  21
ATOM     21  O3* UNL     1       5.369  -3.151  21.386  0.00  0.00    -0.389 OA
ATOM     22  H3* UNL     1       4.983  -2.276  21.575  0.00  0.00    +0.210 HD
ENDBRANCH  16  21
BRANCH  17  23
ATOM     23  C5* UNL     1       7.209  -1.560  23.637  0.00  0.00    +0.190 C 
BRANCH  23  24
ATOM     24  O5* UNL     1       6.143  -0.719  23.193  0.00  0.00    -0.392 OA
ATOM     25  H5* UNL     1       6.419   0.200  23.366  0.00  0.00    +0.210 HD
ENDBRANCH  23  24
ENDBRANCH  17  23
ENDBRANCH   1  19
TORSDOF 5
ENDMDL
MODEL 5
REMARK VINA RESULT:      -6.0      3.089      4.698
REMARK  Name = 
REMARK  5 active torsions:
REMARK  status: ('A' for Active; 'I' for Inactive)
REMARK    1  A    between atoms: C3*_2  and  O3*_3
REMARK    2  A    between atoms: C1*_5  and  N_12
REMARK    3  A    between atoms: C4*_8  and  C5*_10
REMARK    4  A    between atoms: C5*_10  and  O5*_11
REMARK    5  A    between atoms: C_14  and  C_15
REMARK                            x       y       z     vdW  Elec       q    Type
REMARK                         _______ _______ _______ _____ _____    ______ ____
ROOT
ATOM      1  N   UNL     1       7.396  -3.864  22.648  0.00  0.00    -0.273 N 
ATOM      2  C   UNL     1       8.325  -4.395  23.532  0.00  0.00    +0.331 A 
ATOM      3  O   UNL     1       8.452  -5.594  23.760  0.00  0.00    -0.246 OA
ATOM      4  N   UNL     1       9.132  -3.481  24.158  0.00  0.00    -0.274 N 
ATOM      5  H   UNL     1       9.809  -3.850  24.810  0.00  0.00    +0.173 HD
ATOM      6  C   UNL     1       9.189  -2.133  23.915  0.00  0.00    +0.262 A 
ATOM      7  O   UNL     1       9.999  -1.420  24.500  0.00  0.00    -0.267 OA
ATOM      8  C   UNL     1       8.233  -1.611  22.897  0.00  0.00    +0.069 A 
ATOM      9  C   UNL     1       7.416  -2.515  22.334  0.00  0.00    +0.107 A 
ENDROOT
BRANCH   8  10
ATOM     10  C   UNL     1       8.154  -0.223  22.536  0.00  0.00    +0.027 A 
ATOM     11  S   UNL     1       6.894   0.812  23.147  0.00  0.00    -0.081 S 
ATOM     12  C   UNL     1       7.509   2.169  22.361  0.00  0.00    +0.055 A 
ATOM     13 BR   UNL     1       6.734   3.867  22.503  0.00  0.00    -0.043 Br
ATOM     14  C   UNL     1       8.619   1.900  21.608  0.00  0.00    +0.023 A 
ATOM     15  C   UNL     1       8.985   0.521  21.705  0.00  0.00    +0.017 A 
ENDBRANCH   8  10
BRANCH   1  19
ATOM     16  C3* UNL     1       5.353  -6.019  23.557  0.00  0.00    +0.150 C 
ATOM     17  C4* UNL     1       4.398  -5.018  22.917  0.00  0.00    +0.175 C 
ATOM     18  O4* UNL     1       5.157  -4.287  21.920  0.00  0.00    -0.348 OA
ATOM     19  C1* UNL     1       6.516  -4.788  21.912  0.00  0.00    +0.226 C 
ATOM     20  C2* UNL     1       6.403  -6.195  22.487  0.00  0.00    +0.088 C 
BRANCH  16  21
ATOM     21  O3* UNL     1       4.725  -7.240  23.905  0.00  0.00    -0.389 OA
ATOM     22  H3* UNL     1       4.024  -7.432  23.256  0.00  0.00    +0.210 HD
ENDBRANCH  16  21
BRANCH  17  23
ATOM     23  C5* UNL     1       3.810  -4.055  23.952  0.00  0.00    +0.190 C 
BRANCH  23  24
ATOM     24  O5* UNL     1       3.574  -4.733  25.187  0.00  0.00    -0.392 OA
ATOM     25  H5* UNL     1       2.746  -4.372  25.554  0.00  0.00    +0.210 HD
ENDBRANCH  23  24
ENDBRANCH  17  23
ENDBRANCH   1  19
TORSDOF 5
ENDMDL
MODEL 6
REMARK VINA RESULT:      -6.0      3.562      5.715
REMARK  Name = 
REMARK  5 active torsions:
REMARK  status: ('A' for Active; 'I' for Inactive)
REMARK    1  A    between atoms: C3*_2  and  O3*_3
REMARK    2  A    between atoms: C1*_5  and  N_12
REMARK    3  A    between atoms: C4*_8  and  C5*_10
REMARK    4  A    between atoms: C5*_10  and  O5*_11
REMARK    5  A    between atoms: C_14  and  C_15
REMARK                            x       y       z     vdW  Elec       q    Type
REMARK                         _______ _______ _______ _____ _____    ______ ____
ROOT
ATOM      1  N   UNL     1       6.275  -4.796  23.760  0.00  0.00    -0.273 N 
ATOM      2  C   UNL     1       5.954  -5.700  22.757  0.00  0.00    +0.331 A 
ATOM      3  O   UNL     1       6.420  -5.665  21.621  0.00  0.00    -0.246 OA
ATOM      4  N   UNL     1       5.061  -6.679  23.109  0.00  0.00    -0.274 N 
ATOM      5  H   UNL     1       4.811  -7.341  22.388  0.00  0.00    +0.173 HD
ATOM      6  C   UNL     1       4.555  -6.916  24.360  0.00  0.00    +0.262 A 
ATOM      7  O   UNL     1       3.804  -7.865  24.567  0.00  0.00    -0.267 OA
ATOM      8  C   UNL     1       4.989  -5.975  25.431  0.00  0.00    +0.069 A 
ATOM      9  C   UNL     1       5.822  -4.993  25.053  0.00  0.00    +0.107 A 
ENDROOT
BRANCH   8  10
ATOM     10  C   UNL     1       4.540  -6.076  26.792  0.00  0.00    +0.027 A 
ATOM     11  S   UNL     1       3.146  -5.203  27.364  0.00  0.00    -0.081 S 
ATOM     12  C   UNL     1       3.258  -5.865  28.908  0.00  0.00    +0.055 A 
ATOM     13 BR   UNL     1       2.040  -5.473  30.275  0.00  0.00    -0.043 Br
ATOM     14  C   UNL     1       4.327  -6.705  29.060  0.00  0.00    +0.023 A 
ATOM     15  C   UNL     1       5.067  -6.821  27.842  0.00  0.00    +0.017 A 
ENDBRANCH   8  10
BRANCH   1  19
ATOM     16  C3* UNL     1       8.113  -3.049  25.553  0.00  0.00    +0.150 C 
ATOM     17  C4* UNL     1       9.172  -3.867  24.825  0.00  0.00    +0.175 C 
ATOM     18  O4* UNL     1       8.599  -4.267  23.555  0.00  0.00    -0.348 OA
ATOM     19  C1* UNL     1       7.255  -3.736  23.465  0.00  0.00    +0.226 C 
ATOM     20  C2* UNL     1       7.253  -2.548  24.418  0.00  0.00    +0.088 C 
BRANCH  16  21
ATOM     21  O3* UNL     1       8.659  -1.994  26.325  0.00  0.00    -0.389 OA
ATOM     22  H3* UNL     1       8.200  -1.959  27.184  0.00  0.00    +0.210 HD
ENDBRANCH  16  21
BRANCH  17  23
ATOM     23  C5* UNL     1       9.591  -5.099  25.634  0.00  0.00    +0.190 C 
BRANCH  23  24
ATOM     24  O5* UNL     1       9.403  -4.867  27.031  0.00  0.00    -0.392 OA
ATOM     25  H5* UNL     1       9.592  -5.709  27.485  0.00  0.00    +0.210 HD
ENDBRANCH  23  24
ENDBRANCH  17  23
ENDBRANCH   1  19
TORSDOF 5
ENDMDL
MODEL 7
REMARK VINA RESULT:      -6.0      3.264      4.706
REMARK  Name = 
REMARK  5 active torsions:
REMARK  status: ('A' for Active; 'I' for Inactive)
REMARK    1  A    between atoms: C3*_2  and  O3*_3
REMARK    2  A    between atoms: C1*_5  and  N_12
REMARK    3  A    between atoms: C4*_8  and  C5*_10
REMARK    4  A    between atoms: C5*_10  and  O5*_11
REMARK    5  A    between atoms: C_14  and  C_15
REMARK                            x       y       z     vdW  Elec       q    Type
REMARK                         _______ _______ _______ _____ _____    ______ ____
ROOT
ATOM      1  N   UNL     1       6.342  -2.524  24.279  0.00  0.00    -0.273 N 
ATOM      2  C   UNL     1       5.201  -2.049  24.913  0.00  0.00    +0.331 A 
ATOM      3  O   UNL     1       4.208  -2.731  25.146  0.00  0.00    -0.246 OA
ATOM      4  N   UNL     1       5.240  -0.731  25.286  0.00  0.00    -0.274 N 
ATOM      5  H   UNL     1       4.414  -0.367  25.741  0.00  0.00    +0.173 HD
ATOM      6  C   UNL     1       6.315   0.115  25.201  0.00  0.00    +0.262 A 
ATOM      7  O   UNL     1       6.247   1.265  25.625  0.00  0.00    -0.267 OA
ATOM      8  C   UNL     1       7.550  -0.456  24.593  0.00  0.00    +0.069 A 
ATOM      9  C   UNL     1       7.474  -1.732  24.187  0.00  0.00    +0.107 A 
ENDROOT
BRANCH   8  10
ATOM     10  C   UNL     1       8.759   0.301  24.419  0.00  0.00    +0.027 A 
ATOM     11  S   UNL     1       8.767   1.838  23.601  0.00  0.00    -0.081 S 
ATOM     12  C   UNL     1      10.416   2.064  23.860  0.00  0.00    +0.055 A 
ATOM     13 BR   UNL     1      11.335   3.595  23.297  0.00  0.00    -0.043 Br
ATOM     14  C   UNL     1      11.009   1.018  24.512  0.00  0.00    +0.023 A 
ATOM     15  C   UNL     1      10.054   0.001  24.828  0.00  0.00    +0.017 A 
ENDBRANCH   8  10
BRANCH   1  19
ATOM     16  C3* UNL     1       8.452  -4.770  24.665  0.00  0.00    +0.150 C 
ATOM     17  C4* UNL     1       7.331  -5.323  25.536  0.00  0.00    +0.175 C 
ATOM     18  O4* UNL     1       6.088  -4.785  25.018  0.00  0.00    -0.348 OA
ATOM     19  C1* UNL     1       6.386  -3.941  23.879  0.00  0.00    +0.226 C 
ATOM     20  C2* UNL     1       7.733  -4.447  23.377  0.00  0.00    +0.088 C 
BRANCH  16  21
ATOM     21  O3* UNL     1       9.513  -5.689  24.476  0.00  0.00    -0.389 OA
ATOM     22  H3* UNL     1       9.142  -6.585  24.375  0.00  0.00    +0.210 HD
ENDBRANCH  16  21
BRANCH  17  23
ATOM     23  C5* UNL     1       7.510  -4.932  27.006  0.00  0.00    +0.190 C 
BRANCH  23  24
ATOM     24  O5* UNL     1       7.608  -6.098  27.824  0.00  0.00    -0.392 OA
ATOM     25  H5* UNL     1       8.322  -5.933  28.468  0.00  0.00    +0.210 HD
ENDBRANCH  23  24
ENDBRANCH  17  23
ENDBRANCH   1  19
TORSDOF 5
ENDMDL
MODEL 8
REMARK VINA RESULT:      -6.0      4.151      6.536
REMARK  Name = 
REMARK  5 active torsions:
REMARK  status: ('A' for Active; 'I' for Inactive)
REMARK    1  A    between atoms: C3*_2  and  O3*_3
REMARK    2  A    between atoms: C1*_5  and  N_12
REMARK    3  A    between atoms: C4*_8  and  C5*_10
REMARK    4  A    between atoms: C5*_10  and  O5*_11
REMARK    5  A    between atoms: C_14  and  C_15
REMARK                            x       y       z     vdW  Elec       q    Type
REMARK                         _______ _______ _______ _____ _____    ______ ____
ROOT
ATOM      1  N   UNL     1       8.069  -4.131  24.794  0.00  0.00    -0.273 N 
ATOM      2  C   UNL     1       9.036  -4.921  25.401  0.00  0.00    +0.331 A 
ATOM      3  O   UNL     1      10.192  -5.025  25.003  0.00  0.00    -0.246 OA
ATOM      4  N   UNL     1       8.624  -5.603  26.517  0.00  0.00    -0.274 N 
ATOM      5  H   UNL     1       9.313  -6.189  26.967  0.00  0.00    +0.173 HD
ATOM      6  C   UNL     1       7.410  -5.493  27.145  0.00  0.00    +0.262 A 
ATOM      7  O   UNL     1       7.177  -6.113  28.178  0.00  0.00    -0.267 OA
ATOM      8  C   UNL     1       6.427  -4.570  26.510  0.00  0.00    +0.069 A 
ATOM      9  C   UNL     1       6.832  -3.952  25.390  0.00  0.00    +0.107 A 
ENDROOT
BRANCH   8  10
ATOM     10  C   UNL     1       5.107  -4.351  27.035  0.00  0.00    +0.027 A 
ATOM     11  S   UNL     1       3.737  -5.273  26.480  0.00  0.00    -0.081 S 
ATOM     12  C   UNL     1       2.682  -4.507  27.546  0.00  0.00    +0.055 A 
ATOM     13 BR   UNL     1       0.863  -4.938  27.664  0.00  0.00    -0.043 Br
ATOM     14  C   UNL     1       3.286  -3.541  28.303  0.00  0.00    +0.023 A 
ATOM     15  C   UNL     1       4.681  -3.449  28.003  0.00  0.00    +0.017 A 
ENDBRANCH   8  10
BRANCH   1  19
ATOM     16  C3* UNL     1       7.185  -1.352  23.726  0.00  0.00    +0.150 C 
ATOM     17  C4* UNL     1       8.636  -1.042  24.072  0.00  0.00    +0.175 C 
ATOM     18  O4* UNL     1       9.368  -2.291  23.989  0.00  0.00    -0.348 OA
ATOM     19  C1* UNL     1       8.448  -3.343  23.608  0.00  0.00    +0.226 C 
ATOM     20  C2* UNL     1       7.310  -2.613  22.906  0.00  0.00    +0.088 C 
BRANCH  16  21
ATOM     21  O3* UNL     1       6.548  -0.306  23.016  0.00  0.00    -0.389 OA
ATOM     22  H3* UNL     1       6.572   0.505  23.556  0.00  0.00    +0.210 HD
ENDBRANCH  16  21
BRANCH  17  23
ATOM     23  C5* UNL     1       8.768  -0.437  25.473  0.00  0.00    +0.190 C 
BRANCH  23  24
ATOM     24  O5* UNL     1       9.969   0.329  25.575  0.00  0.00    -0.392 OA
ATOM     25  H5* UNL     1      10.157   0.679  24.684  0.00  0.00    +0.210 HD
ENDBRANCH  23  24
ENDBRANCH  17  23
ENDBRANCH   1  19
TORSDOF 5
ENDMDL
MODEL 9
REMARK VINA RESULT:      -5.9      4.817      7.338
REMARK  Name = 
REMARK  5 active torsions:
REMARK  status: ('A' for Active; 'I' for Inactive)
REMARK    1  A    between atoms: C3*_2  and  O3*_3
REMARK    2  A    between atoms: C1*_5  and  N_12
REMARK    3  A    between atoms: C4*_8  and  C5*_10
REMARK    4  A    between atoms: C5*_10  and  O5*_11
REMARK    5  A    between atoms: C_14  and  C_15
REMARK                            x       y       z     vdW  Elec       q    Type
REMARK                         _______ _______ _______ _____ _____    ______ ____
ROOT
ATOM      1  N   UNL     1       9.381  -0.802  23.300  0.00  0.00    -0.273 N 
ATOM      2  C   UNL     1       9.107  -1.142  21.982  0.00  0.00    +0.331 A 
ATOM      3  O   UNL     1       9.525  -0.521  21.009  0.00  0.00    -0.246 OA
ATOM      4  N   UNL     1       8.322  -2.251  21.810  0.00  0.00    -0.274 N 
ATOM      5  H   UNL     1       8.106  -2.508  20.857  0.00  0.00    +0.173 HD
ATOM      6  C   UNL     1       7.886  -3.108  22.788  0.00  0.00    +0.262 A 
ATOM      7  O   UNL     1       7.234  -4.109  22.504  0.00  0.00    -0.267 OA
ATOM      8  C   UNL     1       8.272  -2.757  24.184  0.00  0.00    +0.069 A 
ATOM      9  C   UNL     1       8.997  -1.639  24.335  0.00  0.00    +0.107 A 
ENDROOT
BRANCH   8  10
ATOM     10  C   UNL     1       7.885  -3.543  25.324  0.00  0.00    +0.027 A 
ATOM     11  S   UNL     1       6.432  -3.200  26.222  0.00  0.00    -0.081 S 
ATOM     12  C   UNL     1       6.666  -4.503  27.263  0.00  0.00    +0.055 A 
ATOM     13 BR   UNL     1       5.466  -4.940  28.632  0.00  0.00    -0.043 Br
ATOM     14  C   UNL     1       7.818  -5.195  27.011  0.00  0.00    +0.023 A 
ATOM     15  C   UNL     1       8.522  -4.638  25.898  0.00  0.00    +0.017 A 
ENDBRANCH   8  10
BRANCH   1  19
ATOM     16  C3* UNL     1       8.901   2.264  23.199  0.00  0.00    +0.150 C 
ATOM     17  C4* UNL     1       9.124   2.091  24.696  0.00  0.00    +0.175 C 
ATOM     18  O4* UNL     1       9.951   0.912  24.867  0.00  0.00    -0.348 OA
ATOM     19  C1* UNL     1      10.248   0.360  23.562  0.00  0.00    +0.226 C 
ATOM     20  C2* UNL     1      10.084   1.537  22.608  0.00  0.00    +0.088 C 
BRANCH  16  21
ATOM     21  O3* UNL     1       8.845   3.622  22.799  0.00  0.00    -0.389 OA
ATOM     22  H3* UNL     1       8.777   4.184  23.592  0.00  0.00    +0.210 HD
ENDBRANCH  16  21
BRANCH  17  23
ATOM     23  C5* UNL     1       7.801   1.931  25.452  0.00  0.00    +0.190 C 
BRANCH  23  24
ATOM     24  O5* UNL     1       7.955   1.017  26.538  0.00  0.00    -0.392 OA
ATOM     25  H5* UNL     1       8.639   0.375  26.272  0.00  0.00    +0.210 HD
ENDBRANCH  23  24
ENDBRANCH  17  23
ENDBRANCH   1  19
TORSDOF 5
ENDMDL
