MODEL 1
REMARK VINA RESULT:      -5.8      0.000      0.000
REMARK  Name = 
REMARK  19 active torsions:
REMARK  status: ('A' for Active; 'I' for Inactive)
REMARK    1  A    between atoms: CA_2  and  CB_3
REMARK    2  A    between atoms: CA_2  and  N_7
REMARK    3  A    between atoms: CA_2  and  C_26
REMARK    4  A    between atoms: CB_3  and  CG_4
REMARK    5  A    between atoms: CG_4  and  CD1_5
REMARK    6  A    between atoms: CG_4  and  CD2_6
REMARK    7  A    between atoms: C_8  and  C_10
REMARK    8  A    between atoms: C_10  and  C_11
REMARK    9  A    between atoms: C_11  and  C_12
REMARK   10  A    between atoms: C_12  and  C_13
REMARK   11  A    between atoms: C_13  and  C_14
REMARK   12  A    between atoms: C_14  and  C_15
REMARK   13  A    between atoms: C_15  and  C_16
REMARK   14  A    between atoms: C_16  and  C_17
REMARK   15  A    between atoms: C_17  and  C_18
REMARK   16  A    between atoms: C_18  and  C_19
REMARK   17  A    between atoms: C_19  and  C_20
REMARK   18  A    between atoms: C_20  and  N_21
REMARK   19  A    between atoms: C_26  and  O_27
REMARK                            x       y       z     vdW  Elec       q    Type
REMARK                         _______ _______ _______ _____ _____    ______ ____
ROOT
ATOM      1  C   UNK A   0       8.661  -0.847  26.590  0.00  0.00    +0.009 C 
ENDROOT
BRANCH   1   2
ATOM      2  C   UNK A   0       7.198  -1.253  26.742  0.00  0.00    +0.096 C 
BRANCH   2   5
ATOM      3  N   LEU A   1       7.620  -3.110  25.250  0.00  0.00    -0.302 N 
ATOM      4  H   LEU A   1       8.240  -2.470  24.761  0.00  0.00    +0.150 HD
ATOM      5  C   UNK A   0       7.014  -2.723  26.419  0.00  0.00    +0.214 C 
ATOM      6  O   UNK A   0       6.379  -3.501  27.122  0.00  0.00    -0.276 OA
BRANCH   3   7
ATOM      7  CA  LEU A   1       7.599  -4.498  24.811  0.00  0.00    +0.182 C 
BRANCH   7   8
ATOM      8  C   LEU A   1       8.799  -5.251  25.396  0.00  0.00    +0.325 C 
ATOM      9  OXT LEU A   1       9.916  -5.239  24.892  0.00  0.00    -0.249 OA
BRANCH   8  10
ATOM     10  O   LEU A   1       8.539  -5.927  26.537  0.00  0.00    -0.479 OA
ATOM     11  H   LEU A   1       7.621  -5.848  26.857  0.00  0.00    +0.295 HD
ENDBRANCH   8  10
ENDBRANCH   7   8
BRANCH   7  12
ATOM     12  CB  LEU A   1       7.457  -4.598  23.285  0.00  0.00    +0.036 C 
BRANCH  12  13
ATOM     13  CG  LEU A   1       6.647  -5.791  22.731  0.00  0.00    -0.015 C 
ATOM     14  CD2 LEU A   1       6.537  -5.662  21.207  0.00  0.00    +0.007 C 
ATOM     15  CD1 LEU A   1       5.241  -5.903  23.318  0.00  0.00    +0.007 C 
ENDBRANCH  12  13
ENDBRANCH   7  12
ENDBRANCH   3   7
ENDBRANCH   2   5
ENDBRANCH   1   2
BRANCH   1  16
ATOM     16  C   UNK A   0       8.859   0.193  25.491  0.00  0.00    +0.000 C 
BRANCH  16  17
ATOM     17  C   UNK A   0      10.148  -0.095  24.723  0.00  0.00    +0.000 C 
BRANCH  17  18
ATOM     18  C   UNK A   0       9.992  -1.296  23.797  0.00  0.00    +0.000 C 
BRANCH  18  19
ATOM     19  C   UNK A   0      10.349  -0.924  22.360  0.00  0.00    +0.000 C 
BRANCH  19  20
ATOM     20  C   UNK A   0       9.115  -0.455  21.595  0.00  0.00    +0.000 C 
BRANCH  20  21
ATOM     21  C   UNK A   0       9.104   1.064  21.443  0.00  0.00    +0.000 C 
BRANCH  21  22
ATOM     22  C   UNK A   0       7.771   1.646  21.909  0.00  0.00    +0.002 C 
BRANCH  22  23
ATOM     23  C   UNK A   0       7.926   3.101  22.342  0.00  0.00    +0.022 C 
BRANCH  23  24
ATOM     24  C   UNK A   0       8.613   3.197  23.702  0.00  0.00    +0.123 C 
BRANCH  24  25
ATOM     25  N   UNK A   0       9.839   3.964  23.634  0.00  0.00    -0.337 N 
ATOM     26  C   UNK A   0      11.084   3.462  23.384  0.00  0.00    +0.199 A 
ATOM     27  N   UNK A   0      11.991   4.413  23.390  0.00  0.00    -0.244 NA
ATOM     28  C   UNK A   0      11.300   5.569  23.652  0.00  0.00    +0.130 A 
ATOM     29  C   UNK A   0       9.957   5.313  23.804  0.00  0.00    +0.106 A 
ENDBRANCH  24  25
ENDBRANCH  23  24
ENDBRANCH  22  23
ENDBRANCH  21  22
ENDBRANCH  20  21
ENDBRANCH  19  20
ENDBRANCH  18  19
ENDBRANCH  17  18
ENDBRANCH  16  17
ENDBRANCH   1  16
TORSDOF 17
ENDMDL
MODEL 2
REMARK VINA RESULT:      -5.5      4.182      8.687
REMARK  Name = 
REMARK  19 active torsions:
REMARK  status: ('A' for Active; 'I' for Inactive)
REMARK    1  A    between atoms: CA_2  and  CB_3
REMARK    2  A    between atoms: CA_2  and  N_7
REMARK    3  A    between atoms: CA_2  and  C_26
REMARK    4  A    between atoms: CB_3  and  CG_4
REMARK    5  A    between atoms: CG_4  and  CD1_5
REMARK    6  A    between atoms: CG_4  and  CD2_6
REMARK    7  A    between atoms: C_8  and  C_10
REMARK    8  A    between atoms: C_10  and  C_11
REMARK    9  A    between atoms: C_11  and  C_12
REMARK   10  A    between atoms: C_12  and  C_13
REMARK   11  A    between atoms: C_13  and  C_14
REMARK   12  A    between atoms: C_14  and  C_15
REMARK   13  A    between atoms: C_15  and  C_16
REMARK   14  A    between atoms: C_16  and  C_17
REMARK   15  A    between atoms: C_17  and  C_18
REMARK   16  A    between atoms: C_18  and  C_19
REMARK   17  A    between atoms: C_19  and  C_20
REMARK   18  A    between atoms: C_20  and  N_21
REMARK   19  A    between atoms: C_26  and  O_27
REMARK                            x       y       z     vdW  Elec       q    Type
REMARK                         _______ _______ _______ _____ _____    ______ ____
ROOT
ATOM      1  C   UNK A   0       7.221   5.529  22.470  0.00  0.00    +0.009 C 
ENDROOT
BRANCH   1   2
ATOM      2  C   UNK A   0       7.959   6.467  23.421  0.00  0.00    +0.096 C 
BRANCH   2   5
ATOM      3  N   LEU A   1      10.054   5.271  23.227  0.00  0.00    -0.302 N 
ATOM      4  H   LEU A   1      10.016   5.531  22.245  0.00  0.00    +0.150 HD
ATOM      5  C   UNK A   0       9.107   5.745  24.101  0.00  0.00    +0.214 C 
ATOM      6  O   UNK A   0       9.189   5.583  25.313  0.00  0.00    -0.276 OA
BRANCH   3   7
ATOM      7  CA  LEU A   1      11.257   4.604  23.704  0.00  0.00    +0.182 C 
BRANCH   7   8
ATOM      8  C   LEU A   1      12.481   5.493  23.460  0.00  0.00    +0.325 C 
ATOM      9  OXT LEU A   1      13.082   5.539  22.393  0.00  0.00    -0.249 OA
BRANCH   8  10
ATOM     10  O   LEU A   1      12.848   6.251  24.518  0.00  0.00    -0.479 OA
ATOM     11  H   LEU A   1      12.210   6.255  25.256  0.00  0.00    +0.295 HD
ENDBRANCH   8  10
ENDBRANCH   7   8
BRANCH   7  12
ATOM     12  CB  LEU A   1      11.368   3.182  23.134  0.00  0.00    +0.036 C 
BRANCH  12  13
ATOM     13  CG  LEU A   1      10.154   2.248  23.333  0.00  0.00    -0.015 C 
ATOM     14  CD2 LEU A   1      10.479   1.226  24.430  0.00  0.00    +0.007 C 
ATOM     15  CD1 LEU A   1       9.745   1.496  22.067  0.00  0.00    +0.007 C 
ENDBRANCH  12  13
ENDBRANCH   7  12
ENDBRANCH   3   7
ENDBRANCH   2   5
ENDBRANCH   1   2
BRANCH   1  16
ATOM     16  C   UNK A   0       6.034   4.844  23.140  0.00  0.00    +0.000 C 
BRANCH  16  17
ATOM     17  C   UNK A   0       5.575   3.652  22.302  0.00  0.00    +0.000 C 
BRANCH  17  18
ATOM     18  C   UNK A   0       6.288   2.370  22.716  0.00  0.00    +0.000 C 
BRANCH  18  19
ATOM     19  C   UNK A   0       5.875   1.950  24.125  0.00  0.00    +0.000 C 
BRANCH  19  20
ATOM     20  C   UNK A   0       6.849   0.922  24.696  0.00  0.00    +0.000 C 
BRANCH  20  21
ATOM     21  C   UNK A   0       6.946  -0.306  23.795  0.00  0.00    +0.000 C 
BRANCH  21  22
ATOM     22  C   UNK A   0       7.788  -1.397  24.453  0.00  0.00    +0.002 C 
BRANCH  22  23
ATOM     23  C   UNK A   0       8.476  -2.270  23.406  0.00  0.00    +0.022 C 
BRANCH  23  24
ATOM     24  C   UNK A   0       8.177  -3.747  23.644  0.00  0.00    +0.123 C 
BRANCH  24  25
ATOM     25  N   UNK A   0       7.316  -4.295  22.618  0.00  0.00    -0.337 N 
ATOM     26  C   UNK A   0       6.403  -3.595  21.882  0.00  0.00    +0.199 A 
ATOM     27  N   UNK A   0       5.776  -4.378  21.032  0.00  0.00    -0.244 NA
ATOM     28  C   UNK A   0       6.309  -5.626  21.230  0.00  0.00    +0.130 A 
ATOM     29  C   UNK A   0       7.273  -5.597  22.211  0.00  0.00    +0.106 A 
ENDBRANCH  24  25
ENDBRANCH  23  24
ENDBRANCH  22  23
ENDBRANCH  21  22
ENDBRANCH  20  21
ENDBRANCH  19  20
ENDBRANCH  18  19
ENDBRANCH  17  18
ENDBRANCH  16  17
ENDBRANCH   1  16
TORSDOF 17
ENDMDL
MODEL 3
REMARK VINA RESULT:      -5.5      1.548      2.164
REMARK  Name = 
REMARK  19 active torsions:
REMARK  status: ('A' for Active; 'I' for Inactive)
REMARK    1  A    between atoms: CA_2  and  CB_3
REMARK    2  A    between atoms: CA_2  and  N_7
REMARK    3  A    between atoms: CA_2  and  C_26
REMARK    4  A    between atoms: CB_3  and  CG_4
REMARK    5  A    between atoms: CG_4  and  CD1_5
REMARK    6  A    between atoms: CG_4  and  CD2_6
REMARK    7  A    between atoms: C_8  and  C_10
REMARK    8  A    between atoms: C_10  and  C_11
REMARK    9  A    between atoms: C_11  and  C_12
REMARK   10  A    between atoms: C_12  and  C_13
REMARK   11  A    between atoms: C_13  and  C_14
REMARK   12  A    between atoms: C_14  and  C_15
REMARK   13  A    between atoms: C_15  and  C_16
REMARK   14  A    between atoms: C_16  and  C_17
REMARK   15  A    between atoms: C_17  and  C_18
REMARK   16  A    between atoms: C_18  and  C_19
REMARK   17  A    between atoms: C_19  and  C_20
REMARK   18  A    between atoms: C_20  and  N_21
REMARK   19  A    between atoms: C_26  and  O_27
REMARK                            x       y       z     vdW  Elec       q    Type
REMARK                         _______ _______ _______ _____ _____    ______ ____
ROOT
ATOM      1  C   UNK A   0       9.894  -0.568  24.690  0.00  0.00    +0.009 C 
ENDROOT
BRANCH   1   2
ATOM      2  C   UNK A   0       9.048  -0.377  25.946  0.00  0.00    +0.096 C 
BRANCH   2   5
ATOM      3  N   LEU A   1       8.493  -2.679  25.447  0.00  0.00    -0.302 N 
ATOM      4  H   LEU A   1       9.386  -2.702  24.961  0.00  0.00    +0.150 HD
ATOM      5  C   UNK A   0       8.124  -1.562  26.154  0.00  0.00    +0.214 C 
ATOM      6  O   UNK A   0       7.132  -1.536  26.874  0.00  0.00    -0.276 OA
BRANCH   3   7
ATOM      7  CA  LEU A   1       7.757  -3.930  25.570  0.00  0.00    +0.182 C 
BRANCH   7   8
ATOM      8  C   LEU A   1       8.735  -5.107  25.650  0.00  0.00    +0.325 C 
ATOM      9  OXT LEU A   1       9.719  -5.220  24.929  0.00  0.00    -0.249 OA
BRANCH   8  10
ATOM     10  O   LEU A   1       8.441  -6.020  26.603  0.00  0.00    -0.479 OA
ATOM     11  H   LEU A   1       8.201  -5.642  27.469  0.00  0.00    +0.295 HD
ENDBRANCH   8  10
ENDBRANCH   7   8
BRANCH   7  12
ATOM     12  CB  LEU A   1       6.685  -4.055  24.477  0.00  0.00    +0.036 C 
BRANCH  12  13
ATOM     13  CG  LEU A   1       7.085  -3.624  23.048  0.00  0.00    -0.015 C 
ATOM     14  CD2 LEU A   1       6.096  -2.564  22.546  0.00  0.00    +0.007 C 
ATOM     15  CD1 LEU A   1       7.119  -4.778  22.046  0.00  0.00    +0.007 C 
ENDBRANCH  12  13
ENDBRANCH   7  12
ENDBRANCH   3   7
ENDBRANCH   2   5
ENDBRANCH   1   2
BRANCH   1  16
ATOM     16  C   UNK A   0      10.886   0.573  24.485  0.00  0.00    +0.000 C 
BRANCH  16  17
ATOM     17  C   UNK A   0      10.137   1.890  24.286  0.00  0.00    +0.000 C 
BRANCH  17  18
ATOM     18  C   UNK A   0      10.230   2.373  22.843  0.00  0.00    +0.000 C 
BRANCH  18  19
ATOM     19  C   UNK A   0       9.802   1.273  21.874  0.00  0.00    +0.000 C 
BRANCH  19  20
ATOM     20  C   UNK A   0       8.399   1.538  21.334  0.00  0.00    +0.000 C 
BRANCH  20  21
ATOM     21  C   UNK A   0       7.340   1.291  22.405  0.00  0.00    +0.000 C 
BRANCH  21  22
ATOM     22  C   UNK A   0       6.259   2.370  22.359  0.00  0.00    +0.002 C 
BRANCH  22  23
ATOM     23  C   UNK A   0       6.861   3.761  22.543  0.00  0.00    +0.022 C 
BRANCH  23  24
ATOM     24  C   UNK A   0       7.070   4.076  24.021  0.00  0.00    +0.123 C 
BRANCH  24  25
ATOM     25  N   UNK A   0       8.126   5.045  24.222  0.00  0.00    -0.337 N 
ATOM     26  C   UNK A   0       8.632   5.886  23.273  0.00  0.00    +0.199 A 
ATOM     27  N   UNK A   0       9.585   6.644  23.767  0.00  0.00    -0.244 NA
ATOM     28  C   UNK A   0       9.692   6.276  25.084  0.00  0.00    +0.130 A 
ATOM     29  C   UNK A   0       8.790   5.284  25.391  0.00  0.00    +0.106 A 
ENDBRANCH  24  25
ENDBRANCH  23  24
ENDBRANCH  22  23
ENDBRANCH  21  22
ENDBRANCH  20  21
ENDBRANCH  19  20
ENDBRANCH  18  19
ENDBRANCH  17  18
ENDBRANCH  16  17
ENDBRANCH   1  16
TORSDOF 17
ENDMDL
MODEL 4
REMARK VINA RESULT:      -5.5      1.578      2.152
REMARK  Name = 
REMARK  19 active torsions:
REMARK  status: ('A' for Active; 'I' for Inactive)
REMARK    1  A    between atoms: CA_2  and  CB_3
REMARK    2  A    between atoms: CA_2  and  N_7
REMARK    3  A    between atoms: CA_2  and  C_26
REMARK    4  A    between atoms: CB_3  and  CG_4
REMARK    5  A    between atoms: CG_4  and  CD1_5
REMARK    6  A    between atoms: CG_4  and  CD2_6
REMARK    7  A    between atoms: C_8  and  C_10
REMARK    8  A    between atoms: C_10  and  C_11
REMARK    9  A    between atoms: C_11  and  C_12
REMARK   10  A    between atoms: C_12  and  C_13
REMARK   11  A    between atoms: C_13  and  C_14
REMARK   12  A    between atoms: C_14  and  C_15
REMARK   13  A    between atoms: C_15  and  C_16
REMARK   14  A    between atoms: C_16  and  C_17
REMARK   15  A    between atoms: C_17  and  C_18
REMARK   16  A    between atoms: C_18  and  C_19
REMARK   17  A    between atoms: C_19  and  C_20
REMARK   18  A    between atoms: C_20  and  N_21
REMARK   19  A    between atoms: C_26  and  O_27
REMARK                            x       y       z     vdW  Elec       q    Type
REMARK                         _______ _______ _______ _____ _____    ______ ____
ROOT
ATOM      1  C   UNK A   0       7.710  -0.640  25.217  0.00  0.00    +0.009 C 
ENDROOT
BRANCH   1   2
ATOM      2  C   UNK A   0       6.928  -1.201  26.401  0.00  0.00    +0.096 C 
BRANCH   2   5
ATOM      3  N   LEU A   1       7.124  -3.486  25.630  0.00  0.00    -0.302 N 
ATOM      4  H   LEU A   1       8.126  -3.348  25.736  0.00  0.00    +0.150 HD
ATOM      5  C   UNK A   0       6.250  -2.504  26.026  0.00  0.00    +0.214 C 
ATOM      6  O   UNK A   0       5.037  -2.676  26.057  0.00  0.00    -0.276 OA
BRANCH   3   7
ATOM      7  CA  LEU A   1       6.657  -4.822  25.290  0.00  0.00    +0.182 C 
BRANCH   7   8
ATOM      8  C   LEU A   1       6.820  -5.756  26.495  0.00  0.00    +0.325 C 
ATOM      9  OXT LEU A   1       5.901  -6.413  26.970  0.00  0.00    -0.249 OA
BRANCH   8  10
ATOM     10  O   LEU A   1       8.074  -5.818  26.995  0.00  0.00    -0.479 OA
ATOM     11  H   LEU A   1       8.123  -5.841  27.969  0.00  0.00    +0.295 HD
ENDBRANCH   8  10
ENDBRANCH   7   8
BRANCH   7  12
ATOM     12  CB  LEU A   1       7.307  -5.325  23.992  0.00  0.00    +0.036 C 
BRANCH  12  13
ATOM     13  CG  LEU A   1       6.771  -4.740  22.666  0.00  0.00    -0.015 C 
ATOM     14  CD2 LEU A   1       5.288  -4.388  22.833  0.00  0.00    +0.007 C 
ATOM     15  CD1 LEU A   1       6.921  -5.686  21.475  0.00  0.00    +0.007 C 
ENDBRANCH  12  13
ENDBRANCH   7  12
ENDBRANCH   3   7
ENDBRANCH   2   5
ENDBRANCH   1   2
BRANCH   1  16
ATOM     16  C   UNK A   0       6.818  -0.385  24.005  0.00  0.00    +0.000 C 
BRANCH  16  17
ATOM     17  C   UNK A   0       7.437  -1.013  22.757  0.00  0.00    +0.000 C 
BRANCH  17  18
ATOM     18  C   UNK A   0       8.793  -1.639  23.060  0.00  0.00    +0.000 C 
BRANCH  18  19
ATOM     19  C   UNK A   0       9.895  -0.971  22.240  0.00  0.00    +0.000 C 
BRANCH  19  20
ATOM     20  C   UNK A   0       9.359   0.251  21.500  0.00  0.00    +0.000 C 
BRANCH  20  21
ATOM     21  C   UNK A   0      10.018   1.533  22.001  0.00  0.00    +0.000 C 
BRANCH  21  22
ATOM     22  C   UNK A   0      10.320   1.440  23.495  0.00  0.00    +0.002 C 
BRANCH  22  23
ATOM     23  C   UNK A   0       9.520   2.473  24.284  0.00  0.00    +0.022 C 
BRANCH  23  24
ATOM     24  C   UNK A   0       8.483   3.155  23.398  0.00  0.00    +0.123 C 
BRANCH  24  25
ATOM     25  N   UNK A   0       8.609   4.597  23.430  0.00  0.00    -0.337 N 
ATOM     26  C   UNK A   0       9.730   5.294  23.780  0.00  0.00    +0.199 A 
ATOM     27  N   UNK A   0       9.526   6.590  23.710  0.00  0.00    -0.244 NA
ATOM     28  C   UNK A   0       8.225   6.729  23.297  0.00  0.00    +0.130 A 
ATOM     29  C   UNK A   0       7.636   5.500  23.112  0.00  0.00    +0.106 A 
ENDBRANCH  24  25
ENDBRANCH  23  24
ENDBRANCH  22  23
ENDBRANCH  21  22
ENDBRANCH  20  21
ENDBRANCH  19  20
ENDBRANCH  18  19
ENDBRANCH  17  18
ENDBRANCH  16  17
ENDBRANCH   1  16
TORSDOF 17
ENDMDL
MODEL 5
REMARK VINA RESULT:      -5.5      1.638      2.943
REMARK  Name = 
REMARK  19 active torsions:
REMARK  status: ('A' for Active; 'I' for Inactive)
REMARK    1  A    between atoms: CA_2  and  CB_3
REMARK    2  A    between atoms: CA_2  and  N_7
REMARK    3  A    between atoms: CA_2  and  C_26
REMARK    4  A    between atoms: CB_3  and  CG_4
REMARK    5  A    between atoms: CG_4  and  CD1_5
REMARK    6  A    between atoms: CG_4  and  CD2_6
REMARK    7  A    between atoms: C_8  and  C_10
REMARK    8  A    between atoms: C_10  and  C_11
REMARK    9  A    between atoms: C_11  and  C_12
REMARK   10  A    between atoms: C_12  and  C_13
REMARK   11  A    between atoms: C_13  and  C_14
REMARK   12  A    between atoms: C_14  and  C_15
REMARK   13  A    between atoms: C_15  and  C_16
REMARK   14  A    between atoms: C_16  and  C_17
REMARK   15  A    between atoms: C_17  and  C_18
REMARK   16  A    between atoms: C_18  and  C_19
REMARK   17  A    between atoms: C_19  and  C_20
REMARK   18  A    between atoms: C_20  and  N_21
REMARK   19  A    between atoms: C_26  and  O_27
REMARK                            x       y       z     vdW  Elec       q    Type
REMARK                         _______ _______ _______ _____ _____    ______ ____
ROOT
ATOM      1  C   UNK A   0       5.493  -2.461  26.853  0.00  0.00    +0.009 C 
ENDROOT
BRANCH   1   2
ATOM      2  C   UNK A   0       4.744  -3.774  26.645  0.00  0.00    +0.096 C 
BRANCH   2   5
ATOM      3  N   LEU A   1       6.795  -4.363  25.506  0.00  0.00    -0.302 N 
ATOM      4  H   LEU A   1       6.993  -3.365  25.521  0.00  0.00    +0.150 HD
ATOM      5  C   UNK A   0       5.684  -4.853  26.144  0.00  0.00    +0.214 C 
ATOM      6  O   UNK A   0       5.478  -6.054  26.281  0.00  0.00    -0.276 OA
BRANCH   3   7
ATOM      7  CA  LEU A   1       7.838  -5.251  25.012  0.00  0.00    +0.182 C 
BRANCH   7   8
ATOM      8  C   LEU A   1       9.147  -4.992  25.764  0.00  0.00    +0.325 C 
ATOM      9  OXT LEU A   1       9.195  -4.559  26.910  0.00  0.00    -0.249 OA
BRANCH   8  10
ATOM     10  O   LEU A   1      10.267  -5.296  25.070  0.00  0.00    -0.479 OA
ATOM     11  H   LEU A   1      10.221  -5.095  24.116  0.00  0.00    +0.295 HD
ENDBRANCH   8  10
ENDBRANCH   7   8
BRANCH   7  12
ATOM     12  CB  LEU A   1       7.949  -5.183  23.481  0.00  0.00    +0.036 C 
BRANCH  12  13
ATOM     13  CG  LEU A   1       6.647  -4.914  22.694  0.00  0.00    -0.015 C 
ATOM     14  CD2 LEU A   1       6.534  -5.925  21.546  0.00  0.00    +0.007 C 
ATOM     15  CD1 LEU A   1       6.562  -3.502  22.115  0.00  0.00    +0.007 C 
ENDBRANCH  12  13
ENDBRANCH   7  12
ENDBRANCH   3   7
ENDBRANCH   2   5
ENDBRANCH   1   2
BRANCH   1  16
ATOM     16  C   UNK A   0       5.156  -1.429  25.780  0.00  0.00    +0.000 C 
BRANCH  16  17
ATOM     17  C   UNK A   0       6.419  -0.679  25.359  0.00  0.00    +0.000 C 
BRANCH  17  18
ATOM     18  C   UNK A   0       7.503  -0.764  26.428  0.00  0.00    +0.000 C 
BRANCH  18  19
ATOM     19  C   UNK A   0       8.841  -1.169  25.813  0.00  0.00    +0.000 C 
BRANCH  19  20
ATOM     20  C   UNK A   0       8.660  -1.631  24.369  0.00  0.00    +0.000 C 
BRANCH  20  21
ATOM     21  C   UNK A   0      10.001  -1.982  23.730  0.00  0.00    +0.000 C 
BRANCH  21  22
ATOM     22  C   UNK A   0      10.090  -1.422  22.312  0.00  0.00    +0.002 C 
BRANCH  22  23
ATOM     23  C   UNK A   0       8.916  -0.493  22.012  0.00  0.00    +0.022 C 
BRANCH  23  24
ATOM     24  C   UNK A   0       9.406   0.905  21.646  0.00  0.00    +0.123 C 
BRANCH  24  25
ATOM     25  N   UNK A   0       9.061   1.880  22.659  0.00  0.00    -0.337 N 
ATOM     26  C   UNK A   0       9.549   1.917  23.933  0.00  0.00    +0.199 A 
ATOM     27  N   UNK A   0       9.041   2.923  24.609  0.00  0.00    -0.244 NA
ATOM     28  C   UNK A   0       8.196   3.556  23.734  0.00  0.00    +0.130 A 
ATOM     29  C   UNK A   0       8.196   2.926  22.511  0.00  0.00    +0.106 A 
ENDBRANCH  24  25
ENDBRANCH  23  24
ENDBRANCH  22  23
ENDBRANCH  21  22
ENDBRANCH  20  21
ENDBRANCH  19  20
ENDBRANCH  18  19
ENDBRANCH  17  18
ENDBRANCH  16  17
ENDBRANCH   1  16
TORSDOF 17
ENDMDL
MODEL 6
REMARK VINA RESULT:      -5.4      3.868      8.104
REMARK  Name = 
REMARK  19 active torsions:
REMARK  status: ('A' for Active; 'I' for Inactive)
REMARK    1  A    between atoms: CA_2  and  CB_3
REMARK    2  A    between atoms: CA_2  and  N_7
REMARK    3  A    between atoms: CA_2  and  C_26
REMARK    4  A    between atoms: CB_3  and  CG_4
REMARK    5  A    between atoms: CG_4  and  CD1_5
REMARK    6  A    between atoms: CG_4  and  CD2_6
REMARK    7  A    between atoms: C_8  and  C_10
REMARK    8  A    between atoms: C_10  and  C_11
REMARK    9  A    between atoms: C_11  and  C_12
REMARK   10  A    between atoms: C_12  and  C_13
REMARK   11  A    between atoms: C_13  and  C_14
REMARK   12  A    between atoms: C_14  and  C_15
REMARK   13  A    between atoms: C_15  and  C_16
REMARK   14  A    between atoms: C_16  and  C_17
REMARK   15  A    between atoms: C_17  and  C_18
REMARK   16  A    between atoms: C_18  and  C_19
REMARK   17  A    between atoms: C_19  and  C_20
REMARK   18  A    between atoms: C_20  and  N_21
REMARK   19  A    between atoms: C_26  and  O_27
REMARK                            x       y       z     vdW  Elec       q    Type
REMARK                         _______ _______ _______ _____ _____    ______ ____
ROOT
ATOM      1  C   UNK A   0      10.186   1.605  22.244  0.00  0.00    +0.009 C 
ENDROOT
BRANCH   1   2
ATOM      2  C   UNK A   0       8.875   1.316  21.518  0.00  0.00    +0.096 C 
BRANCH   2   5
ATOM      3  N   LEU A   1       8.297   3.386  22.628  0.00  0.00    -0.302 N 
ATOM      4  H   LEU A   1       9.300   3.518  22.726  0.00  0.00    +0.150 HD
ATOM      5  C   UNK A   0       7.810   2.318  21.916  0.00  0.00    +0.214 C 
ATOM      6  O   UNK A   0       6.621   2.195  21.644  0.00  0.00    -0.276 OA
BRANCH   3   7
ATOM      7  CA  LEU A   1       7.427   4.478  23.043  0.00  0.00    +0.182 C 
BRANCH   7   8
ATOM      8  C   LEU A   1       7.963   5.808  22.503  0.00  0.00    +0.325 C 
ATOM      9  OXT LEU A   1       8.770   6.508  23.105  0.00  0.00    -0.249 OA
BRANCH   8  10
ATOM     10  O   LEU A   1       7.488   6.155  21.285  0.00  0.00    -0.479 OA
ATOM     11  H   LEU A   1       8.175   6.327  20.615  0.00  0.00    +0.295 HD
ENDBRANCH   8  10
ENDBRANCH   7   8
BRANCH   7  12
ATOM     12  CB  LEU A   1       7.182   4.449  24.559  0.00  0.00    +0.036 C 
BRANCH  12  13
ATOM     13  CG  LEU A   1       7.047   3.060  25.223  0.00  0.00    -0.015 C 
ATOM     14  CD2 LEU A   1       5.635   2.517  24.973  0.00  0.00    +0.007 C 
ATOM     15  CD1 LEU A   1       7.310   3.073  26.728  0.00  0.00    +0.007 C 
ENDBRANCH  12  13
ENDBRANCH   7  12
ENDBRANCH   3   7
ENDBRANCH   2   5
ENDBRANCH   1   2
BRANCH   1  16
ATOM     16  C   UNK A   0      10.526   0.528  23.269  0.00  0.00    +0.000 C 
BRANCH  16  17
ATOM     17  C   UNK A   0      10.146   1.001  24.672  0.00  0.00    +0.000 C 
BRANCH  17  18
ATOM     18  C   UNK A   0       9.239  -0.004  25.374  0.00  0.00    +0.000 C 
BRANCH  18  19
ATOM     19  C   UNK A   0       8.860  -1.144  24.430  0.00  0.00    +0.000 C 
BRANCH  19  20
ATOM     20  C   UNK A   0       7.370  -1.104  24.099  0.00  0.00    +0.000 C 
BRANCH  20  21
ATOM     21  C   UNK A   0       7.083  -1.788  22.765  0.00  0.00    +0.000 C 
BRANCH  21  22
ATOM     22  C   UNK A   0       5.809  -2.627  22.848  0.00  0.00    +0.002 C 
BRANCH  22  23
ATOM     23  C   UNK A   0       5.657  -3.263  24.227  0.00  0.00    +0.022 C 
BRANCH  23  24
ATOM     24  C   UNK A   0       6.304  -4.645  24.266  0.00  0.00    +0.123 C 
BRANCH  24  25
ATOM     25  N   UNK A   0       7.506  -4.656  25.071  0.00  0.00    -0.337 N 
ATOM     26  C   UNK A   0       7.620  -4.181  26.346  0.00  0.00    +0.199 A 
ATOM     27  N   UNK A   0       8.842  -4.333  26.804  0.00  0.00    -0.244 NA
ATOM     28  C   UNK A   0       9.538  -4.931  25.784  0.00  0.00    +0.130 A 
ATOM     29  C   UNK A   0       8.724  -5.145  24.696  0.00  0.00    +0.106 A 
ENDBRANCH  24  25
ENDBRANCH  23  24
ENDBRANCH  22  23
ENDBRANCH  21  22
ENDBRANCH  20  21
ENDBRANCH  19  20
ENDBRANCH  18  19
ENDBRANCH  17  18
ENDBRANCH  16  17
ENDBRANCH   1  16
TORSDOF 17
ENDMDL
MODEL 7
REMARK VINA RESULT:      -5.4      1.738      3.618
REMARK  Name = 
REMARK  19 active torsions:
REMARK  status: ('A' for Active; 'I' for Inactive)
REMARK    1  A    between atoms: CA_2  and  CB_3
REMARK    2  A    between atoms: CA_2  and  N_7
REMARK    3  A    between atoms: CA_2  and  C_26
REMARK    4  A    between atoms: CB_3  and  CG_4
REMARK    5  A    between atoms: CG_4  and  CD1_5
REMARK    6  A    between atoms: CG_4  and  CD2_6
REMARK    7  A    between atoms: C_8  and  C_10
REMARK    8  A    between atoms: C_10  and  C_11
REMARK    9  A    between atoms: C_11  and  C_12
REMARK   10  A    between atoms: C_12  and  C_13
REMARK   11  A    between atoms: C_13  and  C_14
REMARK   12  A    between atoms: C_14  and  C_15
REMARK   13  A    between atoms: C_15  and  C_16
REMARK   14  A    between atoms: C_16  and  C_17
REMARK   15  A    between atoms: C_17  and  C_18
REMARK   16  A    between atoms: C_18  and  C_19
REMARK   17  A    between atoms: C_19  and  C_20
REMARK   18  A    between atoms: C_20  and  N_21
REMARK   19  A    between atoms: C_26  and  O_27
REMARK                            x       y       z     vdW  Elec       q    Type
REMARK                         _______ _______ _______ _____ _____    ______ ____
ROOT
ATOM      1  C   UNK A   0       6.893  -1.010  25.517  0.00  0.00    +0.009 C 
ENDROOT
BRANCH   1   2
ATOM      2  C   UNK A   0       6.052  -1.908  26.420  0.00  0.00    +0.096 C 
BRANCH   2   5
ATOM      3  N   LEU A   1       7.087  -3.571  25.000  0.00  0.00    -0.302 N 
ATOM      4  H   LEU A   1       7.527  -2.781  24.535  0.00  0.00    +0.150 HD
ATOM      5  C   UNK A   0       6.320  -3.370  26.121  0.00  0.00    +0.214 C 
ATOM      6  O   UNK A   0       5.892  -4.295  26.801  0.00  0.00    -0.276 OA
BRANCH   3   7
ATOM      7  CA  LEU A   1       7.495  -4.908  24.593  0.00  0.00    +0.182 C 
BRANCH   7   8
ATOM      8  C   LEU A   1       8.815  -5.283  25.275  0.00  0.00    +0.325 C 
ATOM      9  OXT LEU A   1       9.917  -5.060  24.786  0.00  0.00    -0.249 OA
BRANCH   8  10
ATOM     10  O   LEU A   1       8.678  -5.872  26.484  0.00  0.00    -0.479 OA
ATOM     11  H   LEU A   1       8.699  -5.257  27.241  0.00  0.00    +0.295 HD
ENDBRANCH   8  10
ENDBRANCH   7   8
BRANCH   7  12
ATOM     12  CB  LEU A   1       7.497  -5.048  23.063  0.00  0.00    +0.036 C 
BRANCH  12  13
ATOM     13  CG  LEU A   1       6.460  -6.012  22.444  0.00  0.00    -0.015 C 
ATOM     14  CD2 LEU A   1       6.298  -5.690  20.954  0.00  0.00    +0.007 C 
ATOM     15  CD1 LEU A   1       5.087  -5.945  23.113  0.00  0.00    +0.007 C 
ENDBRANCH  12  13
ENDBRANCH   7  12
ENDBRANCH   3   7
ENDBRANCH   2   5
ENDBRANCH   1   2
BRANCH   1  16
ATOM     16  C   UNK A   0       6.087  -0.451  24.348  0.00  0.00    +0.000 C 
BRANCH  16  17
ATOM     17  C   UNK A   0       6.627   0.922  23.948  0.00  0.00    +0.000 C 
BRANCH  17  18
ATOM     18  C   UNK A   0       5.640   2.032  24.290  0.00  0.00    +0.000 C 
BRANCH  18  19
ATOM     19  C   UNK A   0       6.374   3.277  24.785  0.00  0.00    +0.000 C 
BRANCH  19  20
ATOM     20  C   UNK A   0       7.809   2.941  25.185  0.00  0.00    +0.000 C 
BRANCH  20  21
ATOM     21  C   UNK A   0       8.752   4.101  24.880  0.00  0.00    +0.000 C 
BRANCH  21  22
ATOM     22  C   UNK A   0       9.686   3.752  23.723  0.00  0.00    +0.002 C 
BRANCH  22  23
ATOM     23  C   UNK A   0      10.123   2.291  23.789  0.00  0.00    +0.022 C 
BRANCH  23  24
ATOM     24  C   UNK A   0      10.000   1.621  22.424  0.00  0.00    +0.123 C 
BRANCH  24  25
ATOM     25  N   UNK A   0       9.900   0.181  22.537  0.00  0.00    -0.337 N 
ATOM     26  C   UNK A   0       9.535  -0.676  21.540  0.00  0.00    +0.199 A 
ATOM     27  N   UNK A   0       9.539  -1.923  21.958  0.00  0.00    -0.244 NA
ATOM     28  C   UNK A   0       9.924  -1.861  23.273  0.00  0.00    +0.130 A 
ATOM     29  C   UNK A   0      10.159  -0.560  23.654  0.00  0.00    +0.106 A 
ENDBRANCH  24  25
ENDBRANCH  23  24
ENDBRANCH  22  23
ENDBRANCH  21  22
ENDBRANCH  20  21
ENDBRANCH  19  20
ENDBRANCH  18  19
ENDBRANCH  17  18
ENDBRANCH  16  17
ENDBRANCH   1  16
TORSDOF 17
ENDMDL
MODEL 8
REMARK VINA RESULT:      -5.4      2.448      3.407
REMARK  Name = 
REMARK  19 active torsions:
REMARK  status: ('A' for Active; 'I' for Inactive)
REMARK    1  A    between atoms: CA_2  and  CB_3
REMARK    2  A    between atoms: CA_2  and  N_7
REMARK    3  A    between atoms: CA_2  and  C_26
REMARK    4  A    between atoms: CB_3  and  CG_4
REMARK    5  A    between atoms: CG_4  and  CD1_5
REMARK    6  A    between atoms: CG_4  and  CD2_6
REMARK    7  A    between atoms: C_8  and  C_10
REMARK    8  A    between atoms: C_10  and  C_11
REMARK    9  A    between atoms: C_11  and  C_12
REMARK   10  A    between atoms: C_12  and  C_13
REMARK   11  A    between atoms: C_13  and  C_14
REMARK   12  A    between atoms: C_14  and  C_15
REMARK   13  A    between atoms: C_15  and  C_16
REMARK   14  A    between atoms: C_16  and  C_17
REMARK   15  A    between atoms: C_17  and  C_18
REMARK   16  A    between atoms: C_18  and  C_19
REMARK   17  A    between atoms: C_19  and  C_20
REMARK   18  A    between atoms: C_20  and  N_21
REMARK   19  A    between atoms: C_26  and  O_27
REMARK                            x       y       z     vdW  Elec       q    Type
REMARK                         _______ _______ _______ _____ _____    ______ ____
ROOT
ATOM      1  C   UNK A   0       6.430  -0.973  24.612  0.00  0.00    +0.009 C 
ENDROOT
BRANCH   1   2
ATOM      2  C   UNK A   0       6.894  -0.732  23.178  0.00  0.00    +0.096 C 
BRANCH   2   5
ATOM      3  N   LEU A   1       6.808  -3.132  22.887  0.00  0.00    -0.302 N 
ATOM      4  H   LEU A   1       5.894  -3.071  23.328  0.00  0.00    +0.150 HD
ATOM      5  C   UNK A   0       7.510  -1.989  22.596  0.00  0.00    +0.214 C 
ATOM      6  O   UNK A   0       8.543  -2.000  21.936  0.00  0.00    -0.276 OA
BRANCH   3   7
ATOM      7  CA  LEU A   1       7.219  -4.427  22.361  0.00  0.00    +0.182 C 
BRANCH   7   8
ATOM      8  C   LEU A   1       6.026  -5.126  21.701  0.00  0.00    +0.325 C 
ATOM      9  OXT LEU A   1       6.136  -5.917  20.771  0.00  0.00    -0.249 OA
BRANCH   8  10
ATOM     10  O   LEU A   1       4.824  -4.818  22.236  0.00  0.00    -0.479 OA
ATOM     11  H   LEU A   1       4.862  -4.216  23.003  0.00  0.00    +0.295 HD
ENDBRANCH   8  10
ENDBRANCH   7   8
BRANCH   7  12
ATOM     12  CB  LEU A   1       7.943  -5.258  23.431  0.00  0.00    +0.036 C 
BRANCH  12  13
ATOM     13  CG  LEU A   1       7.985  -4.678  24.862  0.00  0.00    -0.015 C 
ATOM     14  CD2 LEU A   1       9.382  -4.897  25.455  0.00  0.00    +0.007 C 
ATOM     15  CD1 LEU A   1       6.950  -5.293  25.803  0.00  0.00    +0.007 C 
ENDBRANCH  12  13
ENDBRANCH   7  12
ENDBRANCH   3   7
ENDBRANCH   2   5
ENDBRANCH   1   2
BRANCH   1  16
ATOM     16  C   UNK A   0       7.571  -0.847  25.615  0.00  0.00    +0.000 C 
BRANCH  16  17
ATOM     17  C   UNK A   0       8.501   0.296  25.211  0.00  0.00    +0.000 C 
BRANCH  17  18
ATOM     18  C   UNK A   0       9.959  -0.151  25.187  0.00  0.00    +0.000 C 
BRANCH  18  19
ATOM     19  C   UNK A   0      10.594   0.144  23.830  0.00  0.00    +0.000 C 
BRANCH  19  20
ATOM     20  C   UNK A   0      10.167   1.515  23.314  0.00  0.00    +0.000 C 
BRANCH  20  21
ATOM     21  C   UNK A   0       9.702   1.439  21.862  0.00  0.00    +0.000 C 
BRANCH  21  22
ATOM     22  C   UNK A   0       8.324   2.075  21.698  0.00  0.00    +0.002 C 
BRANCH  22  23
ATOM     23  C   UNK A   0       8.035   3.061  22.827  0.00  0.00    +0.022 C 
BRANCH  23  24
ATOM     24  C   UNK A   0       7.553   4.399  22.275  0.00  0.00    +0.123 C 
BRANCH  24  25
ATOM     25  N   UNK A   0       7.791   5.484  23.203  0.00  0.00    -0.337 N 
ATOM     26  C   UNK A   0       6.896   5.972  24.111  0.00  0.00    +0.199 A 
ATOM     27  N   UNK A   0       7.413   6.959  24.807  0.00  0.00    -0.244 NA
ATOM     28  C   UNK A   0       8.690   7.108  24.329  0.00  0.00    +0.130 A 
ATOM     29  C   UNK A   0       8.949   6.196  23.332  0.00  0.00    +0.106 A 
ENDBRANCH  24  25
ENDBRANCH  23  24
ENDBRANCH  22  23
ENDBRANCH  21  22
ENDBRANCH  20  21
ENDBRANCH  19  20
ENDBRANCH  18  19
ENDBRANCH  17  18
ENDBRANCH  16  17
ENDBRANCH   1  16
TORSDOF 17
ENDMDL
MODEL 9
REMARK VINA RESULT:      -5.4      2.724      3.757
REMARK  Name = 
REMARK  19 active torsions:
REMARK  status: ('A' for Active; 'I' for Inactive)
REMARK    1  A    between atoms: CA_2  and  CB_3
REMARK    2  A    between atoms: CA_2  and  N_7
REMARK    3  A    between atoms: CA_2  and  C_26
REMARK    4  A    between atoms: CB_3  and  CG_4
REMARK    5  A    between atoms: CG_4  and  CD1_5
REMARK    6  A    between atoms: CG_4  and  CD2_6
REMARK    7  A    between atoms: C_8  and  C_10
REMARK    8  A    between atoms: C_10  and  C_11
REMARK    9  A    between atoms: C_11  and  C_12
REMARK   10  A    between atoms: C_12  and  C_13
REMARK   11  A    between atoms: C_13  and  C_14
REMARK   12  A    between atoms: C_14  and  C_15
REMARK   13  A    between atoms: C_15  and  C_16
REMARK   14  A    between atoms: C_16  and  C_17
REMARK   15  A    between atoms: C_17  and  C_18
REMARK   16  A    between atoms: C_18  and  C_19
REMARK   17  A    between atoms: C_19  and  C_20
REMARK   18  A    between atoms: C_20  and  N_21
REMARK   19  A    between atoms: C_26  and  O_27
REMARK                            x       y       z     vdW  Elec       q    Type
REMARK                         _______ _______ _______ _____ _____    ______ ____
ROOT
ATOM      1  C   UNK A   0       8.133  -0.089  25.221  0.00  0.00    +0.009 C 
ENDROOT
BRANCH   1   2
ATOM      2  C   UNK A   0       7.955  -0.997  24.007  0.00  0.00    +0.096 C 
BRANCH   2   5
ATOM      3  N   LEU A   1       8.173  -3.398  23.811  0.00  0.00    -0.302 N 
ATOM      4  H   LEU A   1       8.988  -3.195  23.238  0.00  0.00    +0.150 HD
ATOM      5  C   UNK A   0       7.498  -2.378  24.434  0.00  0.00    +0.214 C 
ATOM      6  O   UNK A   0       6.605  -2.580  25.249  0.00  0.00    -0.276 OA
BRANCH   3   7
ATOM      7  CA  LEU A   1       7.909  -4.792  24.141  0.00  0.00    +0.182 C 
BRANCH   7   8
ATOM      8  C   LEU A   1       8.934  -5.291  25.165  0.00  0.00    +0.325 C 
ATOM      9  OXT LEU A   1      10.143  -5.120  25.052  0.00  0.00    -0.249 OA
BRANCH   8  10
ATOM     10  O   LEU A   1       8.401  -5.930  26.231  0.00  0.00    -0.479 OA
ATOM     11  H   LEU A   1       7.646  -5.471  26.645  0.00  0.00    +0.295 HD
ENDBRANCH   8  10
ENDBRANCH   7   8
BRANCH   7  12
ATOM     12  CB  LEU A   1       7.793  -5.652  22.873  0.00  0.00    +0.036 C 
BRANCH  12  13
ATOM     13  CG  LEU A   1       6.369  -6.035  22.413  0.00  0.00    -0.015 C 
ATOM     14  CD2 LEU A   1       6.201  -5.667  20.934  0.00  0.00    +0.007 C 
ATOM     15  CD1 LEU A   1       5.261  -5.356  23.217  0.00  0.00    +0.007 C 
ENDBRANCH  12  13
ENDBRANCH   7  12
ENDBRANCH   3   7
ENDBRANCH   2   5
ENDBRANCH   1   2
BRANCH   1  16
ATOM     16  C   UNK A   0       9.603   0.163  25.542  0.00  0.00    +0.000 C 
BRANCH  16  17
ATOM     17  C   UNK A   0      10.428   0.164  24.256  0.00  0.00    +0.000 C 
BRANCH  17  18
ATOM     18  C   UNK A   0      11.059   1.527  23.997  0.00  0.00    +0.000 C 
BRANCH  18  19
ATOM     19  C   UNK A   0      10.305   2.274  22.898  0.00  0.00    +0.000 C 
BRANCH  19  20
ATOM     20  C   UNK A   0       9.885   1.323  21.781  0.00  0.00    +0.000 C 
BRANCH  20  21
ATOM     21  C   UNK A   0       8.413   1.509  21.423  0.00  0.00    +0.000 C 
BRANCH  21  22
ATOM     22  C   UNK A   0       7.852   2.772  22.072  0.00  0.00    +0.002 C 
BRANCH  22  23
ATOM     23  C   UNK A   0       6.500   2.501  22.728  0.00  0.00    +0.022 C 
BRANCH  23  24
ATOM     24  C   UNK A   0       5.509   3.620  22.422  0.00  0.00    +0.123 C 
BRANCH  24  25
ATOM     25  N   UNK A   0       4.224   3.389  23.047  0.00  0.00    -0.337 N 
ATOM     26  C   UNK A   0       4.022   2.862  24.290  0.00  0.00    +0.199 A 
ATOM     27  N   UNK A   0       2.740   2.776  24.569  0.00  0.00    -0.244 NA
ATOM     28  C   UNK A   0       2.097   3.269  23.462  0.00  0.00    +0.130 A 
ATOM     29  C   UNK A   0       3.002   3.660  22.503  0.00  0.00    +0.106 A 
ENDBRANCH  24  25
ENDBRANCH  23  24
ENDBRANCH  22  23
ENDBRANCH  21  22
ENDBRANCH  20  21
ENDBRANCH  19  20
ENDBRANCH  18  19
ENDBRANCH  17  18
ENDBRANCH  16  17
ENDBRANCH   1  16
TORSDOF 17
ENDMDL
