MODEL 1
REMARK VINA RESULT:      -6.0      0.000      0.000
REMARK  Name = 
REMARK  15 active torsions:
REMARK  status: ('A' for Active; 'I' for Inactive)
REMARK    1  A    between atoms: CG2_1  and  CB_2
REMARK    2  A    between atoms: CB_2  and  OG1_4
REMARK    3  A    between atoms: CB_2  and  CA_5
REMARK    4  A    between atoms: CA_5  and  N_7
REMARK    5  A    between atoms: CA_5  and  C_23
REMARK    6  A    between atoms: N_7  and  C_8
REMARK    7  A    between atoms: C_8  and  C_9
REMARK    8  A    between atoms: C_10  and  O_11
REMARK    9  A    between atoms: C_12  and  C_13
REMARK   10  A    between atoms: C_16  and  C_17
REMARK   11  A    between atoms: C_17  and  O_18
REMARK   12  A    between atoms: O_18  and  P_19
REMARK   13  A    between atoms: P_19  and  O_20
REMARK   14  A    between atoms: P_19  and  O_21
REMARK   15  A    between atoms: C_23  and  O_24
REMARK                            x       y       z     vdW  Elec       q    Type
REMARK                         _______ _______ _______ _____ _____    ______ ____
ROOT
ATOM      1  C   UNK A   0       8.071  -1.387  24.643  0.00  0.00    +0.016 A 
ATOM      2  C   UNK A   0       7.955  -1.697  23.271  0.00  0.00    +0.005 A 
ATOM      3  C   UNK A   0       8.884  -1.120  22.401  0.00  0.00    +0.117 A 
ATOM      4  N   UNK A   0       9.905  -0.320  22.777  0.00  0.00    -0.256 NA
ATOM      5  C   UNK A   0      10.026  -0.048  24.096  0.00  0.00    +0.080 A 
ATOM      6  C   UNK A   0      11.183   0.823  24.479  0.00  0.00    +0.069 C 
ATOM      7  C   UNK A   0       9.139  -0.562  25.041  0.00  0.00    +0.142 A 
ENDROOT
BRANCH   7   8
ATOM      8  O   UNK A   0       9.339  -0.264  26.364  0.00  0.00    -0.505 OA
ATOM      9  H   UNK A   0      10.292  -0.132  26.483  0.00  0.00    +0.292 HD
ENDBRANCH   7   8
BRANCH   1  10
ATOM     10  C   UNK A   0       7.124  -1.958  25.673  0.00  0.00    +0.121 C 
BRANCH  10  11
ATOM     11  N   THR A   1       7.750  -2.956  26.538  0.00  0.00    -0.298 NA
ATOM     12  H   THR A   1       8.735  -2.744  26.694  0.00  0.00    +0.123 HD
BRANCH  11  13
ATOM     13  CA  THR A   1       7.548  -4.351  26.072  0.00  0.00    +0.192 C 
BRANCH  13  15
ATOM     14  CG2 THR A   1       5.694  -6.112  26.379  0.00  0.00    +0.040 C 
ATOM     15  CB  THR A   1       6.745  -5.242  27.068  0.00  0.00    +0.139 C 
BRANCH  15  16
ATOM     16  OG1 THR A   1       7.648  -6.114  27.770  0.00  0.00    -0.390 OA
ATOM     17  HG1 THR A   1       8.315  -6.421  27.123  0.00  0.00    +0.210 HD
ENDBRANCH  15  16
ENDBRANCH  13  15
BRANCH  13  18
ATOM     18  C   THR A   1       8.914  -4.984  25.671  0.00  0.00    +0.324 C 
ATOM     19  OXT THR A   1       9.163  -5.479  24.575  0.00  0.00    -0.249 OA
BRANCH  18  20
ATOM     20  O   THR A   1       9.843  -4.994  26.657  0.00  0.00    -0.479 OA
ATOM     21  H   THR A   1      10.391  -4.171  26.660  0.00  0.00    +0.295 HD
ENDBRANCH  18  20
ENDBRANCH  13  18
ENDBRANCH  11  13
ENDBRANCH  10  11
ENDBRANCH   1  10
BRANCH   2  22
ATOM     22  C   UNK A   0       6.859  -2.563  22.697  0.00  0.00    +0.209 C 
BRANCH  22  23
ATOM     23  O   UNK A   0       7.408  -3.762  22.175  0.00  0.00    -0.282 OA
BRANCH  23  24
ATOM     24  P   UNK A   0       6.427  -5.021  22.104  0.00  0.00    +0.473 P 
ATOM     25  O   UNK A   0       5.318  -5.052  23.096  0.00  0.00    -0.228 OA
BRANCH  24  26
ATOM     26  O   UNK A   0       7.443  -6.246  22.201  0.00  0.00    -0.303 OA
ATOM     27  H   UNK A   0       8.067  -6.255  21.454  0.00  0.00    +0.222 HD
ENDBRANCH  24  26
BRANCH  24  28
ATOM     28  O   UNK A   0       5.979  -5.048  20.575  0.00  0.00    -0.303 OA
ATOM     29  H   UNK A   0       6.110  -4.196  20.122  0.00  0.00    +0.222 HD
ENDBRANCH  24  28
ENDBRANCH  23  24
ENDBRANCH  22  23
ENDBRANCH   2  22
TORSDOF 13
ENDMDL
MODEL 2
REMARK VINA RESULT:      -5.8      2.332      3.998
REMARK  Name = 
REMARK  15 active torsions:
REMARK  status: ('A' for Active; 'I' for Inactive)
REMARK    1  A    between atoms: CG2_1  and  CB_2
REMARK    2  A    between atoms: CB_2  and  OG1_4
REMARK    3  A    between atoms: CB_2  and  CA_5
REMARK    4  A    between atoms: CA_5  and  N_7
REMARK    5  A    between atoms: CA_5  and  C_23
REMARK    6  A    between atoms: N_7  and  C_8
REMARK    7  A    between atoms: C_8  and  C_9
REMARK    8  A    between atoms: C_10  and  O_11
REMARK    9  A    between atoms: C_12  and  C_13
REMARK   10  A    between atoms: C_16  and  C_17
REMARK   11  A    between atoms: C_17  and  O_18
REMARK   12  A    between atoms: O_18  and  P_19
REMARK   13  A    between atoms: P_19  and  O_20
REMARK   14  A    between atoms: P_19  and  O_21
REMARK   15  A    between atoms: C_23  and  O_24
REMARK                            x       y       z     vdW  Elec       q    Type
REMARK                         _______ _______ _______ _____ _____    ______ ____
ROOT
ATOM      1  C   UNK A   0       7.157  -1.392  24.343  0.00  0.00    +0.016 A 
ATOM      2  C   UNK A   0       7.892  -1.623  25.526  0.00  0.00    +0.005 A 
ATOM      3  C   UNK A   0       8.831  -0.657  25.898  0.00  0.00    +0.117 A 
ATOM      4  N   UNK A   0       9.061   0.496  25.234  0.00  0.00    -0.256 NA
ATOM      5  C   UNK A   0       8.335   0.723  24.116  0.00  0.00    +0.080 A 
ATOM      6  C   UNK A   0       8.601   2.023  23.418  0.00  0.00    +0.069 C 
ATOM      7  C   UNK A   0       7.386  -0.187  23.653  0.00  0.00    +0.142 A 
ENDROOT
BRANCH   7   8
ATOM      8  O   UNK A   0       6.670   0.122  22.526  0.00  0.00    -0.505 OA
ATOM      9  H   UNK A   0       7.066   0.923  22.151  0.00  0.00    +0.292 HD
ENDBRANCH   7   8
BRANCH   1  10
ATOM     10  C   UNK A   0       6.113  -2.367  23.848  0.00  0.00    +0.121 C 
BRANCH  10  11
ATOM     11  N   THR A   1       6.578  -3.188  22.733  0.00  0.00    -0.298 NA
ATOM     12  H   THR A   1       6.875  -2.610  21.948  0.00  0.00    +0.123 HD
BRANCH  11  13
ATOM     13  CA  THR A   1       5.605  -4.230  22.321  0.00  0.00    +0.192 C 
BRANCH  13  15
ATOM     14  CG2 THR A   1       3.740  -5.841  23.072  0.00  0.00    +0.040 C 
ATOM     15  CB  THR A   1       4.896  -4.944  23.513  0.00  0.00    +0.139 C 
BRANCH  15  16
ATOM     16  OG1 THR A   1       5.846  -5.762  24.217  0.00  0.00    -0.390 OA
ATOM     17  HG1 THR A   1       5.429  -6.637  24.353  0.00  0.00    +0.210 HD
ENDBRANCH  15  16
ENDBRANCH  13  15
BRANCH  13  18
ATOM     18  C   THR A   1       6.280  -5.234  21.339  0.00  0.00    +0.324 C 
ATOM     19  OXT THR A   1       5.928  -5.425  20.178  0.00  0.00    -0.249 OA
BRANCH  18  20
ATOM     20  O   THR A   1       7.301  -5.946  21.874  0.00  0.00    -0.479 OA
ATOM     21  H   THR A   1       8.181  -5.546  21.670  0.00  0.00    +0.295 HD
ENDBRANCH  18  20
ENDBRANCH  13  18
ENDBRANCH  11  13
ENDBRANCH  10  11
ENDBRANCH   1  10
BRANCH   2  22
ATOM     22  C   UNK A   0       7.756  -2.870  26.367  0.00  0.00    +0.209 C 
BRANCH  22  23
ATOM     23  O   UNK A   0       8.981  -3.584  26.381  0.00  0.00    -0.282 OA
BRANCH  23  24
ATOM     24  P   UNK A   0       9.032  -4.925  25.512  0.00  0.00    +0.473 P 
ATOM     25  O   UNK A   0       8.673  -4.794  24.074  0.00  0.00    -0.228 OA
BRANCH  24  26
ATOM     26  O   UNK A   0       8.091  -5.905  26.348  0.00  0.00    -0.303 OA
ATOM     27  H   UNK A   0       7.178  -5.572  26.395  0.00  0.00    +0.222 HD
ENDBRANCH  24  26
BRANCH  24  28
ATOM     28  O   UNK A   0      10.492  -5.493  25.805  0.00  0.00    -0.303 OA
ATOM     29  H   UNK A   0      11.027  -5.606  25.000  0.00  0.00    +0.222 HD
ENDBRANCH  24  28
ENDBRANCH  23  24
ENDBRANCH  22  23
ENDBRANCH   2  22
TORSDOF 13
ENDMDL
MODEL 3
REMARK VINA RESULT:      -5.8      2.465      3.806
REMARK  Name = 
REMARK  15 active torsions:
REMARK  status: ('A' for Active; 'I' for Inactive)
REMARK    1  A    between atoms: CG2_1  and  CB_2
REMARK    2  A    between atoms: CB_2  and  OG1_4
REMARK    3  A    between atoms: CB_2  and  CA_5
REMARK    4  A    between atoms: CA_5  and  N_7
REMARK    5  A    between atoms: CA_5  and  C_23
REMARK    6  A    between atoms: N_7  and  C_8
REMARK    7  A    between atoms: C_8  and  C_9
REMARK    8  A    between atoms: C_10  and  O_11
REMARK    9  A    between atoms: C_12  and  C_13
REMARK   10  A    between atoms: C_16  and  C_17
REMARK   11  A    between atoms: C_17  and  O_18
REMARK   12  A    between atoms: O_18  and  P_19
REMARK   13  A    between atoms: P_19  and  O_20
REMARK   14  A    between atoms: P_19  and  O_21
REMARK   15  A    between atoms: C_23  and  O_24
REMARK                            x       y       z     vdW  Elec       q    Type
REMARK                         _______ _______ _______ _____ _____    ______ ____
ROOT
ATOM      1  C   UNK A   0       7.752  -1.243  23.293  0.00  0.00    +0.016 A 
ATOM      2  C   UNK A   0       9.073  -1.718  23.442  0.00  0.00    +0.005 A 
ATOM      3  C   UNK A   0      10.110  -0.860  23.068  0.00  0.00    +0.117 A 
ATOM      4  N   UNK A   0       9.947   0.400  22.611  0.00  0.00    -0.256 NA
ATOM      5  C   UNK A   0       8.680   0.858  22.496  0.00  0.00    +0.080 A 
ATOM      6  C   UNK A   0       8.537   2.268  22.008  0.00  0.00    +0.069 C 
ATOM      7  C   UNK A   0       7.577   0.072  22.827  0.00  0.00    +0.142 A 
ENDROOT
BRANCH   7   8
ATOM      8  O   UNK A   0       6.322   0.611  22.708  0.00  0.00    -0.505 OA
ATOM      9  H   UNK A   0       5.779  -0.039  22.236  0.00  0.00    +0.292 HD
ENDBRANCH   7   8
BRANCH   1  10
ATOM     10  C   UNK A   0       6.554  -2.085  23.670  0.00  0.00    +0.121 C 
BRANCH  10  11
ATOM     11  N   THR A   1       5.778  -2.528  22.514  0.00  0.00    -0.298 NA
ATOM     12  H   THR A   1       5.120  -1.810  22.213  0.00  0.00    +0.123 HD
BRANCH  11  13
ATOM     13  CA  THR A   1       5.115  -3.841  22.715  0.00  0.00    +0.192 C 
BRANCH  13  15
ATOM     14  CG2 THR A   1       3.283  -4.222  24.485  0.00  0.00    +0.040 C 
ATOM     15  CB  THR A   1       4.784  -4.162  24.205  0.00  0.00    +0.139 C 
BRANCH  15  16
ATOM     16  OG1 THR A   1       5.351  -5.436  24.560  0.00  0.00    -0.390 OA
ATOM     17  HG1 THR A   1       5.357  -5.985  23.749  0.00  0.00    +0.210 HD
ENDBRANCH  15  16
ENDBRANCH  13  15
BRANCH  13  18
ATOM     18  C   THR A   1       5.943  -4.969  22.030  0.00  0.00    +0.324 C 
ATOM     19  OXT THR A   1       7.157  -4.936  21.846  0.00  0.00    -0.249 OA
BRANCH  18  20
ATOM     20  O   THR A   1       5.210  -6.021  21.593  0.00  0.00    -0.479 OA
ATOM     21  H   THR A   1       5.722  -6.602  20.978  0.00  0.00    +0.295 HD
ENDBRANCH  18  20
ENDBRANCH  13  18
ENDBRANCH  11  13
ENDBRANCH  10  11
ENDBRANCH   1  10
BRANCH   2  22
ATOM     22  C   UNK A   0       9.415  -3.107  23.926  0.00  0.00    +0.209 C 
BRANCH  22  23
ATOM     23  O   UNK A   0       9.157  -3.218  25.315  0.00  0.00    -0.282 OA
BRANCH  23  24
ATOM     24  P   UNK A   0       8.844  -4.685  25.866  0.00  0.00    +0.473 P 
ATOM     25  O   UNK A   0       8.122  -4.763  27.165  0.00  0.00    -0.228 OA
BRANCH  24  26
ATOM     26  O   UNK A   0      10.289  -5.361  25.864  0.00  0.00    -0.303 OA
ATOM     27  H   UNK A   0      10.253  -6.285  26.168  0.00  0.00    +0.222 HD
ENDBRANCH  24  26
BRANCH  24  28
ATOM     28  O   UNK A   0       8.117  -5.389  24.635  0.00  0.00    -0.303 OA
ATOM     29  H   UNK A   0       7.629  -4.764  24.071  0.00  0.00    +0.222 HD
ENDBRANCH  24  28
ENDBRANCH  23  24
ENDBRANCH  22  23
ENDBRANCH   2  22
TORSDOF 13
ENDMDL
MODEL 4
REMARK VINA RESULT:      -5.6      1.250      2.304
REMARK  Name = 
REMARK  15 active torsions:
REMARK  status: ('A' for Active; 'I' for Inactive)
REMARK    1  A    between atoms: CG2_1  and  CB_2
REMARK    2  A    between atoms: CB_2  and  OG1_4
REMARK    3  A    between atoms: CB_2  and  CA_5
REMARK    4  A    between atoms: CA_5  and  N_7
REMARK    5  A    between atoms: CA_5  and  C_23
REMARK    6  A    between atoms: N_7  and  C_8
REMARK    7  A    between atoms: C_8  and  C_9
REMARK    8  A    between atoms: C_10  and  O_11
REMARK    9  A    between atoms: C_12  and  C_13
REMARK   10  A    between atoms: C_16  and  C_17
REMARK   11  A    between atoms: C_17  and  O_18
REMARK   12  A    between atoms: O_18  and  P_19
REMARK   13  A    between atoms: P_19  and  O_20
REMARK   14  A    between atoms: P_19  and  O_21
REMARK   15  A    between atoms: C_23  and  O_24
REMARK                            x       y       z     vdW  Elec       q    Type
REMARK                         _______ _______ _______ _____ _____    ______ ____
ROOT
ATOM      1  C   UNK A   0       7.619  -2.022  24.119  0.00  0.00    +0.016 A 
ATOM      2  C   UNK A   0       7.823  -2.252  22.741  0.00  0.00    +0.005 A 
ATOM      3  C   UNK A   0       8.921  -1.629  22.141  0.00  0.00    +0.117 A 
ATOM      4  N   UNK A   0       9.819  -0.854  22.785  0.00  0.00    -0.256 NA
ATOM      5  C   UNK A   0       9.633  -0.659  24.110  0.00  0.00    +0.080 A 
ATOM      6  C   UNK A   0      10.663   0.186  24.797  0.00  0.00    +0.069 C 
ATOM      7  C   UNK A   0       8.559  -1.224  24.797  0.00  0.00    +0.142 A 
ENDROOT
BRANCH   7   8
ATOM      8  O   UNK A   0       8.447  -1.003  26.145  0.00  0.00    -0.505 OA
ATOM      9  H   UNK A   0       9.348  -0.943  26.497  0.00  0.00    +0.292 HD
ENDBRANCH   7   8
BRANCH   1  10
ATOM     10  C   UNK A   0       6.467  -2.648  24.871  0.00  0.00    +0.121 C 
BRANCH  10  11
ATOM     11  N   THR A   1       6.429  -4.104  24.753  0.00  0.00    -0.298 NA
ATOM     12  H   THR A   1       5.571  -4.416  24.299  0.00  0.00    +0.123 HD
BRANCH  11  13
ATOM     13  CA  THR A   1       6.667  -4.807  26.039  0.00  0.00    +0.192 C 
BRANCH  13  15
ATOM     14  CG2 THR A   1       8.980  -5.396  25.072  0.00  0.00    +0.040 C 
ATOM     15  CB  THR A   1       8.170  -5.099  26.333  0.00  0.00    +0.139 C 
BRANCH  15  16
ATOM     16  OG1 THR A   1       8.763  -3.961  26.982  0.00  0.00    -0.390 OA
ATOM     17  HG1 THR A   1       8.395  -3.920  27.888  0.00  0.00    +0.210 HD
ENDBRANCH  15  16
ENDBRANCH  13  15
BRANCH  13  18
ATOM     18  C   THR A   1       5.782  -6.087  26.120  0.00  0.00    +0.324 C 
ATOM     19  OXT THR A   1       5.664  -6.797  27.116  0.00  0.00    -0.249 OA
BRANCH  18  20
ATOM     20  O   THR A   1       5.148  -6.409  24.967  0.00  0.00    -0.479 OA
ATOM     21  H   THR A   1       4.719  -5.625  24.545  0.00  0.00    +0.295 HD
ENDBRANCH  18  20
ENDBRANCH  13  18
ENDBRANCH  11  13
ENDBRANCH  10  11
ENDBRANCH   1  10
BRANCH   2  22
ATOM     22  C   UNK A   0       6.897  -3.081  21.883  0.00  0.00    +0.209 C 
BRANCH  22  23
ATOM     23  O   UNK A   0       7.248  -4.452  21.970  0.00  0.00    -0.282 OA
BRANCH  23  24
ATOM     24  P   UNK A   0       6.142  -5.501  21.491  0.00  0.00    +0.473 P 
ATOM     25  O   UNK A   0       5.953  -5.637  20.021  0.00  0.00    -0.228 OA
BRANCH  24  26
ATOM     26  O   UNK A   0       4.849  -5.015  22.287  0.00  0.00    -0.303 OA
ATOM     27  H   UNK A   0       4.939  -4.096  22.592  0.00  0.00    +0.222 HD
ENDBRANCH  24  26
BRANCH  24  28
ATOM     28  O   UNK A   0       6.553  -6.837  22.255  0.00  0.00    -0.303 OA
ATOM     29  H   UNK A   0       6.993  -6.671  23.107  0.00  0.00    +0.222 HD
ENDBRANCH  24  28
ENDBRANCH  23  24
ENDBRANCH  22  23
ENDBRANCH   2  22
TORSDOF 13
ENDMDL
MODEL 5
REMARK VINA RESULT:      -5.5      2.700      5.855
REMARK  Name = 
REMARK  15 active torsions:
REMARK  status: ('A' for Active; 'I' for Inactive)
REMARK    1  A    between atoms: CG2_1  and  CB_2
REMARK    2  A    between atoms: CB_2  and  OG1_4
REMARK    3  A    between atoms: CB_2  and  CA_5
REMARK    4  A    between atoms: CA_5  and  N_7
REMARK    5  A    between atoms: CA_5  and  C_23
REMARK    6  A    between atoms: N_7  and  C_8
REMARK    7  A    between atoms: C_8  and  C_9
REMARK    8  A    between atoms: C_10  and  O_11
REMARK    9  A    between atoms: C_12  and  C_13
REMARK   10  A    between atoms: C_16  and  C_17
REMARK   11  A    between atoms: C_17  and  O_18
REMARK   12  A    between atoms: O_18  and  P_19
REMARK   13  A    between atoms: P_19  and  O_20
REMARK   14  A    between atoms: P_19  and  O_21
REMARK   15  A    between atoms: C_23  and  O_24
REMARK                            x       y       z     vdW  Elec       q    Type
REMARK                         _______ _______ _______ _____ _____    ______ ____
ROOT
ATOM      1  C   UNK A   0       6.906  -3.775  24.153  0.00  0.00    +0.016 A 
ATOM      2  C   UNK A   0       6.217  -4.588  25.078  0.00  0.00    +0.005 A 
ATOM      3  C   UNK A   0       5.546  -5.707  24.576  0.00  0.00    +0.117 A 
ATOM      4  N   UNK A   0       5.537  -6.089  23.282  0.00  0.00    -0.256 NA
ATOM      5  C   UNK A   0       6.222  -5.320  22.404  0.00  0.00    +0.080 A 
ATOM      6  C   UNK A   0       6.210  -5.788  20.980  0.00  0.00    +0.069 C 
ATOM      7  C   UNK A   0       6.909  -4.175  22.804  0.00  0.00    +0.142 A 
ENDROOT
BRANCH   7   8
ATOM      8  O   UNK A   0       7.602  -3.458  21.863  0.00  0.00    -0.505 OA
ATOM      9  H   UNK A   0       6.945  -3.071  21.264  0.00  0.00    +0.292 HD
ENDBRANCH   7   8
BRANCH   1  10
ATOM     10  C   UNK A   0       7.669  -2.544  24.585  0.00  0.00    +0.121 C 
BRANCH  10  11
ATOM     11  N   THR A   1       9.107  -2.646  24.345  0.00  0.00    -0.298 NA
ATOM     12  H   THR A   1       9.542  -3.308  24.986  0.00  0.00    +0.123 HD
BRANCH  11  13
ATOM     13  CA  THR A   1       9.800  -1.334  24.343  0.00  0.00    +0.192 C 
BRANCH  13  15
ATOM     14  CG2 THR A   1       9.012  -0.691  26.709  0.00  0.00    +0.040 C 
ATOM     15  CB  THR A   1       9.125  -0.258  25.248  0.00  0.00    +0.139 C 
BRANCH  15  16
ATOM     16  OG1 THR A   1       9.892   0.957  25.205  0.00  0.00    -0.390 OA
ATOM     17  HG1 THR A   1       9.797   1.328  24.304  0.00  0.00    +0.210 HD
ENDBRANCH  15  16
ENDBRANCH  13  15
BRANCH  13  18
ATOM     18  C   THR A   1      10.006  -0.840  22.880  0.00  0.00    +0.324 C 
ATOM     19  OXT THR A   1      10.037   0.339  22.534  0.00  0.00    -0.249 OA
BRANCH  18  20
ATOM     20  O   THR A   1      10.118  -1.829  21.961  0.00  0.00    -0.479 OA
ATOM     21  H   THR A   1      11.014  -2.246  21.968  0.00  0.00    +0.295 HD
ENDBRANCH  18  20
ENDBRANCH  13  18
ENDBRANCH  11  13
ENDBRANCH  10  11
ENDBRANCH   1  10
BRANCH   2  22
ATOM     22  C   UNK A   0       6.122  -4.283  26.554  0.00  0.00    +0.209 C 
BRANCH  22  23
ATOM     23  O   UNK A   0       5.353  -5.277  27.210  0.00  0.00    -0.282 OA
BRANCH  23  24
ATOM     24  P   UNK A   0       6.051  -6.020  28.440  0.00  0.00    +0.473 P 
ATOM     25  O   UNK A   0       5.926  -5.360  29.768  0.00  0.00    -0.228 OA
BRANCH  24  26
ATOM     26  O   UNK A   0       7.549  -6.198  27.922  0.00  0.00    -0.303 OA
ATOM     27  H   UNK A   0       7.691  -5.744  27.073  0.00  0.00    +0.222 HD
ENDBRANCH  24  26
BRANCH  24  28
ATOM     28  O   UNK A   0       5.465  -7.499  28.353  0.00  0.00    -0.303 OA
ATOM     29  H   UNK A   0       5.095  -7.815  29.196  0.00  0.00    +0.222 HD
ENDBRANCH  24  28
ENDBRANCH  23  24
ENDBRANCH  22  23
ENDBRANCH   2  22
TORSDOF 13
ENDMDL
MODEL 6
REMARK VINA RESULT:      -5.5      2.573      3.938
REMARK  Name = 
REMARK  15 active torsions:
REMARK  status: ('A' for Active; 'I' for Inactive)
REMARK    1  A    between atoms: CG2_1  and  CB_2
REMARK    2  A    between atoms: CB_2  and  OG1_4
REMARK    3  A    between atoms: CB_2  and  CA_5
REMARK    4  A    between atoms: CA_5  and  N_7
REMARK    5  A    between atoms: CA_5  and  C_23
REMARK    6  A    between atoms: N_7  and  C_8
REMARK    7  A    between atoms: C_8  and  C_9
REMARK    8  A    between atoms: C_10  and  O_11
REMARK    9  A    between atoms: C_12  and  C_13
REMARK   10  A    between atoms: C_16  and  C_17
REMARK   11  A    between atoms: C_17  and  O_18
REMARK   12  A    between atoms: O_18  and  P_19
REMARK   13  A    between atoms: P_19  and  O_20
REMARK   14  A    between atoms: P_19  and  O_21
REMARK   15  A    between atoms: C_23  and  O_24
REMARK                            x       y       z     vdW  Elec       q    Type
REMARK                         _______ _______ _______ _____ _____    ______ ____
ROOT
ATOM      1  C   UNK A   0       7.871  -1.034  23.360  0.00  0.00    +0.016 A 
ATOM      2  C   UNK A   0       8.871  -1.429  24.275  0.00  0.00    +0.005 A 
ATOM      3  C   UNK A   0       9.315  -0.473  25.193  0.00  0.00    +0.117 A 
ATOM      4  N   UNK A   0       8.836   0.785  25.294  0.00  0.00    -0.256 NA
ATOM      5  C   UNK A   0       7.860   1.148  24.432  0.00  0.00    +0.080 A 
ATOM      6  C   UNK A   0       7.337   2.543  24.590  0.00  0.00    +0.069 C 
ATOM      7  C   UNK A   0       7.361   0.272  23.469  0.00  0.00    +0.142 A 
ENDROOT
BRANCH   7   8
ATOM      8  O   UNK A   0       6.354   0.702  22.644  0.00  0.00    -0.505 OA
ATOM      9  H   UNK A   0       6.290   1.663  22.754  0.00  0.00    +0.292 HD
ENDBRANCH   7   8
BRANCH   1  10
ATOM     10  C   UNK A   0       7.313  -1.987  22.327  0.00  0.00    +0.121 C 
BRANCH  10  11
ATOM     11  N   THR A   1       5.965  -2.453  22.645  0.00  0.00    -0.298 NA
ATOM     12  H   THR A   1       5.376  -1.687  22.969  0.00  0.00    +0.123 HD
BRANCH  11  13
ATOM     13  CA  THR A   1       5.944  -3.606  23.579  0.00  0.00    +0.192 C 
BRANCH  13  15
ATOM     14  CG2 THR A   1       5.906  -5.309  21.648  0.00  0.00    +0.040 C 
ATOM     15  CB  THR A   1       5.294  -4.892  22.985  0.00  0.00    +0.139 C 
BRANCH  15  16
ATOM     16  OG1 THR A   1       5.461  -5.985  23.906  0.00  0.00    -0.390 OA
ATOM     17  HG1 THR A   1       6.419  -6.181  23.952  0.00  0.00    +0.210 HD
ENDBRANCH  15  16
ENDBRANCH  13  15
BRANCH  13  18
ATOM     18  C   THR A   1       5.303  -3.183  24.935  0.00  0.00    +0.324 C 
ATOM     19  OXT THR A   1       4.410  -2.349  25.059  0.00  0.00    -0.249 OA
BRANCH  18  20
ATOM     20  O   THR A   1       5.836  -3.787  26.024  0.00  0.00    -0.479 OA
ATOM     21  H   THR A   1       5.794  -4.773  25.962  0.00  0.00    +0.295 HD
ENDBRANCH  18  20
ENDBRANCH  13  18
ENDBRANCH  11  13
ENDBRANCH  10  11
ENDBRANCH   1  10
BRANCH   2  22
ATOM     22  C   UNK A   0       9.515  -2.795  24.276  0.00  0.00    +0.209 C 
BRANCH  22  23
ATOM     23  O   UNK A   0       8.942  -3.604  25.290  0.00  0.00    -0.282 OA
BRANCH  23  24
ATOM     24  P   UNK A   0       9.075  -5.185  25.099  0.00  0.00    +0.473 P 
ATOM     25  O   UNK A   0       8.642  -5.731  23.784  0.00  0.00    -0.228 OA
BRANCH  24  26
ATOM     26  O   UNK A   0       8.266  -5.745  26.354  0.00  0.00    -0.303 OA
ATOM     27  H   UNK A   0       8.823  -5.791  27.149  0.00  0.00    +0.222 HD
ENDBRANCH  24  26
BRANCH  24  28
ATOM     28  O   UNK A   0      10.592  -5.473  25.494  0.00  0.00    -0.303 OA
ATOM     29  H   UNK A   0      11.124  -5.809  24.751  0.00  0.00    +0.222 HD
ENDBRANCH  24  28
ENDBRANCH  23  24
ENDBRANCH  22  23
ENDBRANCH   2  22
TORSDOF 13
ENDMDL
MODEL 7
REMARK VINA RESULT:      -5.5      1.801      2.675
REMARK  Name = 
REMARK  15 active torsions:
REMARK  status: ('A' for Active; 'I' for Inactive)
REMARK    1  A    between atoms: CG2_1  and  CB_2
REMARK    2  A    between atoms: CB_2  and  OG1_4
REMARK    3  A    between atoms: CB_2  and  CA_5
REMARK    4  A    between atoms: CA_5  and  N_7
REMARK    5  A    between atoms: CA_5  and  C_23
REMARK    6  A    between atoms: N_7  and  C_8
REMARK    7  A    between atoms: C_8  and  C_9
REMARK    8  A    between atoms: C_10  and  O_11
REMARK    9  A    between atoms: C_12  and  C_13
REMARK   10  A    between atoms: C_16  and  C_17
REMARK   11  A    between atoms: C_17  and  O_18
REMARK   12  A    between atoms: O_18  and  P_19
REMARK   13  A    between atoms: P_19  and  O_20
REMARK   14  A    between atoms: P_19  and  O_21
REMARK   15  A    between atoms: C_23  and  O_24
REMARK                            x       y       z     vdW  Elec       q    Type
REMARK                         _______ _______ _______ _____ _____    ______ ____
ROOT
ATOM      1  C   UNK A   0       8.790  -1.856  24.831  0.00  0.00    +0.016 A 
ATOM      2  C   UNK A   0       8.782  -2.405  23.531  0.00  0.00    +0.005 A 
ATOM      3  C   UNK A   0       9.441  -1.690  22.527  0.00  0.00    +0.117 A 
ATOM      4  N   UNK A   0      10.113  -0.534  22.713  0.00  0.00    -0.256 NA
ATOM      5  C   UNK A   0      10.139  -0.027  23.966  0.00  0.00    +0.080 A 
ATOM      6  C   UNK A   0      10.914   1.244  24.140  0.00  0.00    +0.069 C 
ATOM      7  C   UNK A   0       9.499  -0.658  25.032  0.00  0.00    +0.142 A 
ENDROOT
BRANCH   7   8
ATOM      8  O   UNK A   0       9.588  -0.098  26.281  0.00  0.00    -0.505 OA
ATOM      9  H   UNK A   0       8.688   0.147  26.545  0.00  0.00    +0.292 HD
ENDBRANCH   7   8
BRANCH   1  10
ATOM     10  C   UNK A   0       8.114  -2.547  25.994  0.00  0.00    +0.121 C 
BRANCH  10  11
ATOM     11  N   THR A   1       6.892  -1.873  26.428  0.00  0.00    -0.298 NA
ATOM     12  H   THR A   1       7.032  -1.389  27.314  0.00  0.00    +0.123 HD
BRANCH  11  13
ATOM     13  CA  THR A   1       5.706  -2.766  26.462  0.00  0.00    +0.192 C 
BRANCH  13  15
ATOM     14  CG2 THR A   1       6.084  -4.925  27.813  0.00  0.00    +0.040 C 
ATOM     15  CB  THR A   1       6.055  -4.285  26.426  0.00  0.00    +0.139 C 
BRANCH  15  16
ATOM     16  OG1 THR A   1       5.075  -4.984  25.638  0.00  0.00    -0.390 OA
ATOM     17  HG1 THR A   1       5.476  -5.150  24.760  0.00  0.00    +0.210 HD
ENDBRANCH  15  16
ENDBRANCH  13  15
BRANCH  13  18
ATOM     18  C   THR A   1       4.697  -2.357  25.348  0.00  0.00    +0.324 C 
ATOM     19  OXT THR A   1       3.512  -2.677  25.322  0.00  0.00    -0.249 OA
BRANCH  18  20
ATOM     20  O   THR A   1       5.234  -1.625  24.342  0.00  0.00    -0.479 OA
ATOM     21  H   THR A   1       5.343  -2.153  23.514  0.00  0.00    +0.295 HD
ENDBRANCH  18  20
ENDBRANCH  13  18
ENDBRANCH  11  13
ENDBRANCH  10  11
ENDBRANCH   1  10
BRANCH   2  22
ATOM     22  C   UNK A   0       8.062  -3.681  23.164  0.00  0.00    +0.209 C 
BRANCH  22  23
ATOM     23  O   UNK A   0       6.770  -3.384  22.661  0.00  0.00    -0.282 OA
BRANCH  23  24
ATOM     24  P   UNK A   0       5.893  -4.628  22.174  0.00  0.00    +0.473 P 
ATOM     25  O   UNK A   0       5.948  -4.948  20.722  0.00  0.00    -0.228 OA
BRANCH  24  26
ATOM     26  O   UNK A   0       4.442  -4.251  22.719  0.00  0.00    -0.303 OA
ATOM     27  H   UNK A   0       3.742  -4.558  22.118  0.00  0.00    +0.222 HD
ENDBRANCH  24  26
BRANCH  24  28
ATOM     28  O   UNK A   0       6.350  -5.800  23.152  0.00  0.00    -0.303 OA
ATOM     29  H   UNK A   0       6.551  -5.491  24.053  0.00  0.00    +0.222 HD
ENDBRANCH  24  28
ENDBRANCH  23  24
ENDBRANCH  22  23
ENDBRANCH   2  22
TORSDOF 13
ENDMDL
MODEL 8
REMARK VINA RESULT:      -5.3      2.625      5.090
REMARK  Name = 
REMARK  15 active torsions:
REMARK  status: ('A' for Active; 'I' for Inactive)
REMARK    1  A    between atoms: CG2_1  and  CB_2
REMARK    2  A    between atoms: CB_2  and  OG1_4
REMARK    3  A    between atoms: CB_2  and  CA_5
REMARK    4  A    between atoms: CA_5  and  N_7
REMARK    5  A    between atoms: CA_5  and  C_23
REMARK    6  A    between atoms: N_7  and  C_8
REMARK    7  A    between atoms: C_8  and  C_9
REMARK    8  A    between atoms: C_10  and  O_11
REMARK    9  A    between atoms: C_12  and  C_13
REMARK   10  A    between atoms: C_16  and  C_17
REMARK   11  A    between atoms: C_17  and  O_18
REMARK   12  A    between atoms: O_18  and  P_19
REMARK   13  A    between atoms: P_19  and  O_20
REMARK   14  A    between atoms: P_19  and  O_21
REMARK   15  A    between atoms: C_23  and  O_24
REMARK                            x       y       z     vdW  Elec       q    Type
REMARK                         _______ _______ _______ _____ _____    ______ ____
ROOT
ATOM      1  C   UNK A   0       8.228  -3.914  24.930  0.00  0.00    +0.016 A 
ATOM      2  C   UNK A   0       7.421  -3.809  26.084  0.00  0.00    +0.005 A 
ATOM      3  C   UNK A   0       7.456  -2.600  26.784  0.00  0.00    +0.117 A 
ATOM      4  N   UNK A   0       8.174  -1.515  26.421  0.00  0.00    -0.256 NA
ATOM      5  C   UNK A   0       8.923  -1.614  25.301  0.00  0.00    +0.080 A 
ATOM      6  C   UNK A   0       9.687  -0.384  24.915  0.00  0.00    +0.069 C 
ATOM      7  C   UNK A   0       8.968  -2.783  24.542  0.00  0.00    +0.142 A 
ENDROOT
BRANCH   7   8
ATOM      8  O   UNK A   0       9.732  -2.803  23.404  0.00  0.00    -0.505 OA
ATOM      9  H   UNK A   0      10.163  -3.671  23.369  0.00  0.00    +0.292 HD
ENDBRANCH   7   8
BRANCH   1  10
ATOM     10  C   UNK A   0       8.264  -5.174  24.094  0.00  0.00    +0.121 C 
BRANCH  10  11
ATOM     11  N   THR A   1       7.552  -5.040  22.825  0.00  0.00    -0.298 NA
ATOM     12  H   THR A   1       8.062  -4.442  22.176  0.00  0.00    +0.123 HD
BRANCH  11  13
ATOM     13  CA  THR A   1       6.139  -4.614  22.983  0.00  0.00    +0.192 C 
BRANCH  13  15
ATOM     14  CG2 THR A   1       3.689  -5.355  23.269  0.00  0.00    +0.040 C 
ATOM     15  CB  THR A   1       5.111  -5.784  22.908  0.00  0.00    +0.139 C 
BRANCH  15  16
ATOM     16  OG1 THR A   1       5.085  -6.317  21.572  0.00  0.00    -0.390 OA
ATOM     17  HG1 THR A   1       5.959  -6.726  21.408  0.00  0.00    +0.210 HD
ENDBRANCH  15  16
ENDBRANCH  13  15
BRANCH  13  18
ATOM     18  C   THR A   1       5.812  -3.465  21.982  0.00  0.00    +0.324 C 
ATOM     19  OXT THR A   1       5.589  -3.621  20.784  0.00  0.00    -0.249 OA
BRANCH  18  20
ATOM     20  O   THR A   1       5.826  -2.224  22.524  0.00  0.00    -0.479 OA
ATOM     21  H   THR A   1       6.317  -1.577  21.960  0.00  0.00    +0.295 HD
ENDBRANCH  18  20
ENDBRANCH  13  18
ENDBRANCH  11  13
ENDBRANCH  10  11
ENDBRANCH   1  10
BRANCH   2  22
ATOM     22  C   UNK A   0       6.577  -4.939  26.624  0.00  0.00    +0.209 C 
BRANCH  22  23
ATOM     23  O   UNK A   0       6.933  -5.215  27.968  0.00  0.00    -0.282 OA
BRANCH  23  24
ATOM     24  P   UNK A   0       5.865  -6.030  28.833  0.00  0.00    +0.473 P 
ATOM     25  O   UNK A   0       5.755  -7.486  28.547  0.00  0.00    -0.228 OA
BRANCH  24  26
ATOM     26  O   UNK A   0       4.526  -5.199  28.587  0.00  0.00    -0.303 OA
ATOM     27  H   UNK A   0       4.658  -4.493  27.930  0.00  0.00    +0.222 HD
ENDBRANCH  24  26
BRANCH  24  28
ATOM     28  O   UNK A   0       6.249  -5.654  30.333  0.00  0.00    -0.303 OA
ATOM     29  H   UNK A   0       5.593  -5.079  30.765  0.00  0.00    +0.222 HD
ENDBRANCH  24  28
ENDBRANCH  23  24
ENDBRANCH  22  23
ENDBRANCH   2  22
TORSDOF 13
ENDMDL
MODEL 9
REMARK VINA RESULT:      -5.3      2.784      5.814
REMARK  Name = 
REMARK  15 active torsions:
REMARK  status: ('A' for Active; 'I' for Inactive)
REMARK    1  A    between atoms: CG2_1  and  CB_2
REMARK    2  A    between atoms: CB_2  and  OG1_4
REMARK    3  A    between atoms: CB_2  and  CA_5
REMARK    4  A    between atoms: CA_5  and  N_7
REMARK    5  A    between atoms: CA_5  and  C_23
REMARK    6  A    between atoms: N_7  and  C_8
REMARK    7  A    between atoms: C_8  and  C_9
REMARK    8  A    between atoms: C_10  and  O_11
REMARK    9  A    between atoms: C_12  and  C_13
REMARK   10  A    between atoms: C_16  and  C_17
REMARK   11  A    between atoms: C_17  and  O_18
REMARK   12  A    between atoms: O_18  and  P_19
REMARK   13  A    between atoms: P_19  and  O_20
REMARK   14  A    between atoms: P_19  and  O_21
REMARK   15  A    between atoms: C_23  and  O_24
REMARK                            x       y       z     vdW  Elec       q    Type
REMARK                         _______ _______ _______ _____ _____    ______ ____
ROOT
ATOM      1  C   UNK A   0       8.109  -0.543  25.359  0.00  0.00    +0.016 A 
ATOM      2  C   UNK A   0       7.617  -1.659  24.650  0.00  0.00    +0.005 A 
ATOM      3  C   UNK A   0       6.234  -1.862  24.650  0.00  0.00    +0.117 A 
ATOM      4  N   UNK A   0       5.333  -1.052  25.245  0.00  0.00    -0.256 NA
ATOM      5  C   UNK A   0       5.809   0.030  25.901  0.00  0.00    +0.080 A 
ATOM      6  C   UNK A   0       4.778   0.919  26.529  0.00  0.00    +0.069 C 
ATOM      7  C   UNK A   0       7.173   0.310  25.972  0.00  0.00    +0.142 A 
ENDROOT
BRANCH   7   8
ATOM      8  O   UNK A   0       7.582   1.439  26.634  0.00  0.00    -0.505 OA
ATOM      9  H   UNK A   0       6.854   1.703  27.217  0.00  0.00    +0.292 HD
ENDBRANCH   7   8
BRANCH   1  10
ATOM     10  C   UNK A   0       9.586  -0.225  25.422  0.00  0.00    +0.121 C 
BRANCH  10  11
ATOM     11  N   THR A   1       9.902   1.128  24.969  0.00  0.00    -0.298 NA
ATOM     12  H   THR A   1       9.703   1.816  25.695  0.00  0.00    +0.123 HD
BRANCH  11  13
ATOM     13  CA  THR A   1       9.265   1.481  23.676  0.00  0.00    +0.192 C 
BRANCH  13  15
ATOM     14  CG2 THR A   1       9.637  -0.031  21.625  0.00  0.00    +0.040 C 
ATOM     15  CB  THR A   1      10.145   1.165  22.428  0.00  0.00    +0.139 C 
BRANCH  15  16
ATOM     16  OG1 THR A   1      10.167   2.307  21.554  0.00  0.00    -0.390 OA
ATOM     17  HG1 THR A   1      10.998   2.793  21.733  0.00  0.00    +0.210 HD
ENDBRANCH  15  16
ENDBRANCH  13  15
BRANCH  13  18
ATOM     18  C   THR A   1       8.779   2.961  23.706  0.00  0.00    +0.324 C 
ATOM     19  OXT THR A   1       9.511   3.943  23.612  0.00  0.00    -0.249 OA
BRANCH  18  20
ATOM     20  O   THR A   1       7.445   3.114  23.887  0.00  0.00    -0.479 OA
ATOM     21  H   THR A   1       7.083   2.475  24.549  0.00  0.00    +0.295 HD
ENDBRANCH  18  20
ENDBRANCH  13  18
ENDBRANCH  11  13
ENDBRANCH  10  11
ENDBRANCH   1  10
BRANCH   2  22
ATOM     22  C   UNK A   0       8.500  -2.662  23.947  0.00  0.00    +0.209 C 
BRANCH  22  23
ATOM     23  O   UNK A   0       9.258  -3.395  24.896  0.00  0.00    -0.282 OA
BRANCH  23  24
ATOM     24  P   UNK A   0       8.845  -4.924  25.108  0.00  0.00    +0.473 P 
ATOM     25  O   UNK A   0       7.844  -5.196  26.175  0.00  0.00    -0.228 OA
BRANCH  24  26
ATOM     26  O   UNK A   0      10.259  -5.628  25.325  0.00  0.00    -0.303 OA
ATOM     27  H   UNK A   0      10.474  -6.234  24.594  0.00  0.00    +0.222 HD
ENDBRANCH  24  26
BRANCH  24  28
ATOM     28  O   UNK A   0       8.430  -5.396  23.644  0.00  0.00    -0.303 OA
ATOM     29  H   UNK A   0       7.952  -6.244  23.636  0.00  0.00    +0.222 HD
ENDBRANCH  24  28
ENDBRANCH  23  24
ENDBRANCH  22  23
ENDBRANCH   2  22
TORSDOF 13
ENDMDL
