MODEL 1
REMARK VINA RESULT:      -6.3      0.000      0.000
REMARK  Name = 
REMARK  7 active torsions:
REMARK  status: ('A' for Active; 'I' for Inactive)
REMARK    1  A    between atoms: C_2  and  S_3
REMARK    2  A    between atoms: N_6  and  S_8
REMARK    3  A    between atoms: S_8  and  C_11
REMARK    4  A    between atoms: C_14  and  O_15
REMARK    5  A    between atoms: O_15  and  C_16
REMARK    6  A    between atoms: C_16  and  C_17
REMARK    7  A    between atoms: C_18  and  C_19
REMARK                            x       y       z     vdW  Elec       q    Type
REMARK                         _______ _______ _______ _____ _____    ______ ____
ROOT
ATOM      1  C   UNL     1       9.468  -2.247  24.398  0.00  0.00    +0.106 A 
ATOM      2  C   UNL     1       9.855  -2.256  23.056  0.00  0.00    +0.032 A 
ATOM      3  C   UNL     1      10.103  -1.048  22.396  0.00  0.00    +0.047 A 
ATOM      4  C   UNL     1       9.986   0.163  23.085  0.00  0.00    +0.122 A 
ATOM      5  C   UNL     1       9.647   0.156  24.440  0.00  0.00    +0.047 A 
ATOM      6  C   UNL     1       9.410  -1.045  25.109  0.00  0.00    +0.032 A 
ENDROOT
BRANCH   1   7
ATOM      7  S   UNL     1       9.043  -3.777  25.205  0.00  0.00    +0.061 S 
ATOM      8  O   UNL     1      10.062  -4.746  24.864  0.00  0.00    -0.153 OA
ATOM      9  O   UNL     1       8.721  -3.470  26.583  0.00  0.00    -0.153 OA
BRANCH   7  12
ATOM     10  C   UNL     1       6.903  -4.564  22.177  0.00  0.00    +0.060 C 
ATOM     11  C   UNL     1       7.678  -5.222  23.320  0.00  0.00    +0.123 C 
ATOM     12  N   UNL     1       7.613  -4.232  24.424  0.00  0.00    -0.176 NA
ATOM     13  C   UNL     1       6.621  -3.186  24.087  0.00  0.00    +0.110 C 
ATOM     14  C   UNL     1       5.840  -3.762  22.910  0.00  0.00    +0.032 C 
BRANCH  10  15
ATOM     15  S   UNL     1       6.194  -5.751  21.002  0.00  0.00    -0.173 S 
ATOM     16  H   UNL     1       7.188  -5.702  20.101  0.00  0.00    +0.102 HD
ENDBRANCH  10  15
ENDBRANCH   7  12
ENDBRANCH   1   7
BRANCH   4  17
ATOM     17  O   UNL     1      10.126   1.410  22.536  0.00  0.00    -0.480 OA
BRANCH  17  18
ATOM     18  C   UNL     1       9.873   2.501  23.414  0.00  0.00    +0.317 C 
BRANCH  18  19
ATOM     19  C   UNL     1      11.009   3.508  23.328  0.00  0.00    -0.062 C 
ATOM     20  C   UNL     1      11.984   4.371  23.255  0.00  0.00    -0.102 C 
ATOM     21  C   UNL     1      13.120   5.376  23.169  0.00  0.00    +0.106 C 
ENDBRANCH  18  19
ENDBRANCH  17  18
ENDBRANCH   4  17
TORSDOF 6
ENDMDL
MODEL 2
REMARK VINA RESULT:      -6.2      1.616      2.458
REMARK  Name = 
REMARK  7 active torsions:
REMARK  status: ('A' for Active; 'I' for Inactive)
REMARK    1  A    between atoms: C_2  and  S_3
REMARK    2  A    between atoms: N_6  and  S_8
REMARK    3  A    between atoms: S_8  and  C_11
REMARK    4  A    between atoms: C_14  and  O_15
REMARK    5  A    between atoms: O_15  and  C_16
REMARK    6  A    between atoms: C_16  and  C_17
REMARK    7  A    between atoms: C_18  and  C_19
REMARK                            x       y       z     vdW  Elec       q    Type
REMARK                         _______ _______ _______ _____ _____    ______ ____
ROOT
ATOM      1  C   UNL     1       9.338  -2.415  24.693  0.00  0.00    +0.106 A 
ATOM      2  C   UNL     1       9.061  -1.286  25.468  0.00  0.00    +0.032 A 
ATOM      3  C   UNL     1       9.401  -0.016  24.992  0.00  0.00    +0.047 A 
ATOM      4  C   UNL     1       9.997   0.124  23.736  0.00  0.00    +0.122 A 
ATOM      5  C   UNL     1      10.225  -1.008  22.949  0.00  0.00    +0.047 A 
ATOM      6  C   UNL     1       9.876  -2.278  23.411  0.00  0.00    +0.032 A 
ENDROOT
BRANCH   1   7
ATOM      7  S   UNL     1       9.008  -4.039  25.348  0.00  0.00    +0.061 S 
ATOM      8  O   UNL     1      10.075  -4.910  24.905  0.00  0.00    -0.153 OA
ATOM      9  O   UNL     1       8.687  -3.888  26.751  0.00  0.00    -0.153 OA
BRANCH   7  12
ATOM     10  C   UNL     1       6.867  -4.613  22.273  0.00  0.00    +0.060 C 
ATOM     11  C   UNL     1       7.703  -5.345  23.324  0.00  0.00    +0.123 C 
ATOM     12  N   UNL     1       7.596  -4.495  24.535  0.00  0.00    -0.176 NA
ATOM     13  C   UNL     1       6.533  -3.484  24.331  0.00  0.00    +0.110 C 
ATOM     14  C   UNL     1       5.769  -3.972  23.105  0.00  0.00    +0.032 C 
BRANCH  10  15
ATOM     15  S   UNL     1       6.215  -5.702  20.976  0.00  0.00    -0.173 S 
ATOM     16  H   UNL     1       5.192  -4.916  20.603  0.00  0.00    +0.102 HD
ENDBRANCH  10  15
ENDBRANCH   7  12
ENDBRANCH   1   7
BRANCH   4  17
ATOM     17  O   UNL     1      10.445   1.298  23.191  0.00  0.00    -0.480 OA
BRANCH  17  18
ATOM     18  C   UNL     1       9.919   1.624  21.909  0.00  0.00    +0.317 C 
BRANCH  18  19
ATOM     19  C   UNL     1       8.524   2.208  22.057  0.00  0.00    -0.062 C 
ATOM     20  C   UNL     1       7.327   2.709  22.185  0.00  0.00    -0.102 C 
ATOM     21  C   UNL     1       5.932   3.293  22.333  0.00  0.00    +0.106 C 
ENDBRANCH  18  19
ENDBRANCH  17  18
ENDBRANCH   4  17
TORSDOF 6
ENDMDL
MODEL 3
REMARK VINA RESULT:      -6.1      1.459      2.031
REMARK  Name = 
REMARK  7 active torsions:
REMARK  status: ('A' for Active; 'I' for Inactive)
REMARK    1  A    between atoms: C_2  and  S_3
REMARK    2  A    between atoms: N_6  and  S_8
REMARK    3  A    between atoms: S_8  and  C_11
REMARK    4  A    between atoms: C_14  and  O_15
REMARK    5  A    between atoms: O_15  and  C_16
REMARK    6  A    between atoms: C_16  and  C_17
REMARK    7  A    between atoms: C_18  and  C_19
REMARK                            x       y       z     vdW  Elec       q    Type
REMARK                         _______ _______ _______ _____ _____    ______ ____
ROOT
ATOM      1  C   UNL     1       8.906  -2.838  24.929  0.00  0.00    +0.106 A 
ATOM      2  C   UNL     1       8.562  -1.955  25.956  0.00  0.00    +0.032 A 
ATOM      3  C   UNL     1       9.022  -0.635  25.920  0.00  0.00    +0.047 A 
ATOM      4  C   UNL     1       9.805  -0.195  24.850  0.00  0.00    +0.122 A 
ATOM      5  C   UNL     1      10.100  -1.073  23.804  0.00  0.00    +0.047 A 
ATOM      6  C   UNL     1       9.634  -2.388  23.825  0.00  0.00    +0.032 A 
ENDROOT
BRANCH   1   7
ATOM      7  S   UNL     1       8.414  -4.547  25.031  0.00  0.00    +0.061 S 
ATOM      8  O   UNL     1       9.538  -5.348  24.597  0.00  0.00    -0.153 OA
ATOM      9  O   UNL     1       7.796  -4.748  26.325  0.00  0.00    -0.153 OA
BRANCH   7  12
ATOM     10  C   UNL     1       5.238  -5.962  23.520  0.00  0.00    +0.060 C 
ATOM     11  C   UNL     1       5.788  -4.753  24.280  0.00  0.00    +0.123 C 
ATOM     12  N   UNL     1       7.207  -4.665  23.853  0.00  0.00    -0.176 NA
ATOM     13  C   UNL     1       7.426  -5.562  22.695  0.00  0.00    +0.110 C 
ATOM     14  C   UNL     1       6.023  -5.925  22.219  0.00  0.00    +0.032 C 
BRANCH  10  15
ATOM     15  S   UNL     1       3.445  -5.900  23.256  0.00  0.00    -0.173 S 
ATOM     16  H   UNL     1       3.089  -6.466  24.420  0.00  0.00    +0.102 HD
ENDBRANCH  10  15
ENDBRANCH   7  12
ENDBRANCH   1   7
BRANCH   4  17
ATOM     17  O   UNL     1      10.378   1.044  24.735  0.00  0.00    -0.480 OA
BRANCH  17  18
ATOM     18  C   UNL     1      10.034   1.777  23.565  0.00  0.00    +0.317 C 
BRANCH  18  19
ATOM     19  C   UNL     1      10.908   3.015  23.456  0.00  0.00    -0.062 C 
ATOM     20  C   UNL     1      11.658   4.078  23.363  0.00  0.00    -0.102 C 
ATOM     21  C   UNL     1      12.532   5.316  23.254  0.00  0.00    +0.106 C 
ENDBRANCH  18  19
ENDBRANCH  17  18
ENDBRANCH   4  17
TORSDOF 6
ENDMDL
MODEL 4
REMARK VINA RESULT:      -6.0      1.833      2.591
REMARK  Name = 
REMARK  7 active torsions:
REMARK  status: ('A' for Active; 'I' for Inactive)
REMARK    1  A    between atoms: C_2  and  S_3
REMARK    2  A    between atoms: N_6  and  S_8
REMARK    3  A    between atoms: S_8  and  C_11
REMARK    4  A    between atoms: C_14  and  O_15
REMARK    5  A    between atoms: O_15  and  C_16
REMARK    6  A    between atoms: C_16  and  C_17
REMARK    7  A    between atoms: C_18  and  C_19
REMARK                            x       y       z     vdW  Elec       q    Type
REMARK                         _______ _______ _______ _____ _____    ______ ____
ROOT
ATOM      1  C   UNL     1       9.233  -2.504  24.443  0.00  0.00    +0.106 A 
ATOM      2  C   UNL     1       9.831  -2.360  23.189  0.00  0.00    +0.032 A 
ATOM      3  C   UNL     1      10.267  -1.100  22.768  0.00  0.00    +0.047 A 
ATOM      4  C   UNL     1      10.122   0.008  23.608  0.00  0.00    +0.122 A 
ATOM      5  C   UNL     1       9.567  -0.159  24.880  0.00  0.00    +0.047 A 
ATOM      6  C   UNL     1       9.142  -1.415  25.313  0.00  0.00    +0.032 A 
ENDROOT
BRANCH   1   7
ATOM      7  S   UNL     1       8.577  -4.087  24.932  0.00  0.00    +0.061 S 
ATOM      8  O   UNL     1       9.625  -5.067  24.746  0.00  0.00    -0.153 OA
ATOM      9  O   UNL     1       7.922  -3.913  26.211  0.00  0.00    -0.153 OA
BRANCH   7  12
ATOM     10  C   UNL     1       5.385  -5.666  23.630  0.00  0.00    +0.060 C 
ATOM     11  C   UNL     1       5.956  -4.357  24.181  0.00  0.00    +0.123 C 
ATOM     12  N   UNL     1       7.382  -4.378  23.770  0.00  0.00    -0.176 NA
ATOM     13  C   UNL     1       7.593  -5.464  22.787  0.00  0.00    +0.110 C 
ATOM     14  C   UNL     1       6.188  -5.871  22.356  0.00  0.00    +0.032 C 
BRANCH  10  15
ATOM     15  S   UNL     1       3.598  -5.608  23.328  0.00  0.00    -0.173 S 
ATOM     16  H   UNL     1       3.293  -6.769  23.929  0.00  0.00    +0.102 HD
ENDBRANCH  10  15
ENDBRANCH   7  12
ENDBRANCH   1   7
BRANCH   4  17
ATOM     17  O   UNL     1      10.436   1.302  23.286  0.00  0.00    -0.480 OA
BRANCH  17  18
ATOM     18  C   UNL     1       9.985   1.746  22.011  0.00  0.00    +0.317 C 
BRANCH  18  19
ATOM     19  C   UNL     1       8.553   2.243  22.115  0.00  0.00    -0.062 C 
ATOM     20  C   UNL     1       7.323   2.670  22.204  0.00  0.00    -0.102 C 
ATOM     21  C   UNL     1       5.891   3.167  22.307  0.00  0.00    +0.106 C 
ENDBRANCH  18  19
ENDBRANCH  17  18
ENDBRANCH   4  17
TORSDOF 6
ENDMDL
MODEL 5
REMARK VINA RESULT:      -5.8      3.428      7.826
REMARK  Name = 
REMARK  7 active torsions:
REMARK  status: ('A' for Active; 'I' for Inactive)
REMARK    1  A    between atoms: C_2  and  S_3
REMARK    2  A    between atoms: N_6  and  S_8
REMARK    3  A    between atoms: S_8  and  C_11
REMARK    4  A    between atoms: C_14  and  O_15
REMARK    5  A    between atoms: O_15  and  C_16
REMARK    6  A    between atoms: C_16  and  C_17
REMARK    7  A    between atoms: C_18  and  C_19
REMARK                            x       y       z     vdW  Elec       q    Type
REMARK                         _______ _______ _______ _____ _____    ______ ____
ROOT
ATOM      1  C   UNL     1       8.877   0.154  23.463  0.00  0.00    +0.106 A 
ATOM      2  C   UNL     1       8.564  -0.349  24.728  0.00  0.00    +0.032 A 
ATOM      3  C   UNL     1       8.919  -1.659  25.063  0.00  0.00    +0.047 A 
ATOM      4  C   UNL     1       9.604  -2.456  24.141  0.00  0.00    +0.122 A 
ATOM      5  C   UNL     1       9.955  -1.925  22.897  0.00  0.00    +0.047 A 
ATOM      6  C   UNL     1       9.616  -0.614  22.561  0.00  0.00    +0.032 A 
ENDROOT
BRANCH   1   7
ATOM      7  S   UNL     1       8.325   1.783  22.998  0.00  0.00    +0.061 S 
ATOM      8  O   UNL     1       8.524   1.918  21.571  0.00  0.00    -0.153 OA
ATOM      9  O   UNL     1       7.029   1.996  23.605  0.00  0.00    -0.153 OA
BRANCH   7  12
ATOM     10  C   UNL     1       9.884   5.131  23.852  0.00  0.00    +0.060 C 
ATOM     11  C   UNL     1       8.953   4.050  24.402  0.00  0.00    +0.123 C 
ATOM     12  N   UNL     1       9.436   2.795  23.775  0.00  0.00    -0.176 NA
ATOM     13  C   UNL     1      10.746   3.043  23.131  0.00  0.00    +0.110 C 
ATOM     14  C   UNL     1      11.200   4.388  23.687  0.00  0.00    +0.032 C 
BRANCH  10  15
ATOM     15  S   UNL     1      10.033   6.582  24.931  0.00  0.00    -0.173 S 
ATOM     16  H   UNL     1      10.989   7.210  24.230  0.00  0.00    +0.102 HD
ENDBRANCH  10  15
ENDBRANCH   7  12
ENDBRANCH   1   7
BRANCH   4  17
ATOM     17  O   UNL     1       9.939  -3.772  24.317  0.00  0.00    -0.480 OA
BRANCH  17  18
ATOM     18  C   UNL     1       8.901  -4.613  24.805  0.00  0.00    +0.317 C 
BRANCH  18  19
ATOM     19  C   UNL     1       8.024  -5.073  23.652  0.00  0.00    -0.062 C 
ATOM     20  C   UNL     1       7.271  -5.468  22.662  0.00  0.00    -0.102 C 
ATOM     21  C   UNL     1       6.395  -5.927  21.510  0.00  0.00    +0.106 C 
ENDBRANCH  18  19
ENDBRANCH  17  18
ENDBRANCH   4  17
TORSDOF 6
ENDMDL
MODEL 6
REMARK VINA RESULT:      -5.7      2.133      2.470
REMARK  Name = 
REMARK  7 active torsions:
REMARK  status: ('A' for Active; 'I' for Inactive)
REMARK    1  A    between atoms: C_2  and  S_3
REMARK    2  A    between atoms: N_6  and  S_8
REMARK    3  A    between atoms: S_8  and  C_11
REMARK    4  A    between atoms: C_14  and  O_15
REMARK    5  A    between atoms: O_15  and  C_16
REMARK    6  A    between atoms: C_16  and  C_17
REMARK    7  A    between atoms: C_18  and  C_19
REMARK                            x       y       z     vdW  Elec       q    Type
REMARK                         _______ _______ _______ _____ _____    ______ ____
ROOT
ATOM      1  C   UNL     1       8.728  -2.714  24.040  0.00  0.00    +0.106 A 
ATOM      2  C   UNL     1       9.205  -2.027  22.922  0.00  0.00    +0.032 A 
ATOM      3  C   UNL     1       9.633  -0.703  23.050  0.00  0.00    +0.047 A 
ATOM      4  C   UNL     1       9.603  -0.075  24.298  0.00  0.00    +0.122 A 
ATOM      5  C   UNL     1       9.171  -0.788  25.419  0.00  0.00    +0.047 A 
ATOM      6  C   UNL     1       8.755  -2.115  25.302  0.00  0.00    +0.032 A 
ENDROOT
BRANCH   1   7
ATOM      7  S   UNL     1       8.078  -4.363  23.855  0.00  0.00    +0.061 S 
ATOM      8  O   UNL     1       7.539  -4.468  22.516  0.00  0.00    -0.153 OA
ATOM      9  O   UNL     1       9.081  -5.286  24.342  0.00  0.00    -0.153 OA
BRANCH   7  12
ATOM     10  C   UNL     1       5.421  -6.039  25.977  0.00  0.00    +0.060 C 
ATOM     11  C   UNL     1       6.789  -5.359  26.058  0.00  0.00    +0.123 C 
ATOM     12  N   UNL     1       6.780  -4.382  24.940  0.00  0.00    -0.176 NA
ATOM     13  C   UNL     1       5.404  -4.260  24.408  0.00  0.00    +0.110 C 
ATOM     14  C   UNL     1       4.524  -4.925  25.461  0.00  0.00    +0.032 C 
BRANCH  10  15
ATOM     15  S   UNL     1       4.852  -6.716  27.561  0.00  0.00    -0.173 S 
ATOM     16  H   UNL     1       4.002  -5.723  27.867  0.00  0.00    +0.102 HD
ENDBRANCH  10  15
ENDBRANCH   7  12
ENDBRANCH   1   7
BRANCH   4  17
ATOM     17  O   UNL     1       9.921   1.235  24.542  0.00  0.00    -0.480 OA
BRANCH  17  18
ATOM     18  C   UNL     1       9.645   2.144  23.481  0.00  0.00    +0.317 C 
BRANCH  18  19
ATOM     19  C   UNL     1      10.755   3.178  23.386  0.00  0.00    -0.062 C 
ATOM     20  C   UNL     1      11.708   4.065  23.305  0.00  0.00    -0.102 C 
ATOM     21  C   UNL     1      12.817   5.099  23.210  0.00  0.00    +0.106 C 
ENDBRANCH  18  19
ENDBRANCH  17  18
ENDBRANCH   4  17
TORSDOF 6
ENDMDL
MODEL 7
REMARK VINA RESULT:      -5.6      3.384      7.453
REMARK  Name = 
REMARK  7 active torsions:
REMARK  status: ('A' for Active; 'I' for Inactive)
REMARK    1  A    between atoms: C_2  and  S_3
REMARK    2  A    between atoms: N_6  and  S_8
REMARK    3  A    between atoms: S_8  and  C_11
REMARK    4  A    between atoms: C_14  and  O_15
REMARK    5  A    between atoms: O_15  and  C_16
REMARK    6  A    between atoms: C_16  and  C_17
REMARK    7  A    between atoms: C_18  and  C_19
REMARK                            x       y       z     vdW  Elec       q    Type
REMARK                         _______ _______ _______ _____ _____    ______ ____
ROOT
ATOM      1  C   UNL     1       9.235   0.164  22.861  0.00  0.00    +0.106 A 
ATOM      2  C   UNL     1       9.361  -0.872  21.932  0.00  0.00    +0.032 A 
ATOM      3  C   UNL     1       9.579  -2.180  22.376  0.00  0.00    +0.047 A 
ATOM      4  C   UNL     1       9.647  -2.453  23.745  0.00  0.00    +0.122 A 
ATOM      5  C   UNL     1       9.470  -1.417  24.665  0.00  0.00    +0.047 A 
ATOM      6  C   UNL     1       9.239  -0.111  24.231  0.00  0.00    +0.032 A 
ENDROOT
BRANCH   1   7
ATOM      7  S   UNL     1       9.071   1.845  22.294  0.00  0.00    +0.061 S 
ATOM      8  O   UNL     1      10.392   2.312  21.935  0.00  0.00    -0.153 OA
ATOM      9  O   UNL     1       7.973   1.883  21.352  0.00  0.00    -0.153 OA
BRANCH   7  12
ATOM     10  C   UNL     1       7.153   4.496  24.208  0.00  0.00    +0.060 C 
ATOM     11  C   UNL     1       7.155   3.003  23.872  0.00  0.00    +0.123 C 
ATOM     12  N   UNL     1       8.590   2.670  23.690  0.00  0.00    -0.176 NA
ATOM     13  C   UNL     1       9.419   3.797  24.174  0.00  0.00    +0.110 C 
ATOM     14  C   UNL     1       8.456   4.669  24.972  0.00  0.00    +0.032 C 
BRANCH  10  15
ATOM     15  S   UNL     1       5.706   5.023  25.167  0.00  0.00    -0.173 S 
ATOM     16  H   UNL     1       6.269   6.102  25.732  0.00  0.00    +0.102 HD
ENDBRANCH  10  15
ENDBRANCH   7  12
ENDBRANCH   1   7
BRANCH   4  17
ATOM     17  O   UNL     1       9.931  -3.672  24.303  0.00  0.00    -0.480 OA
BRANCH  17  18
ATOM     18  C   UNL     1       8.815  -4.385  24.824  0.00  0.00    +0.317 C 
BRANCH  18  19
ATOM     19  C   UNL     1       7.979  -4.941  23.683  0.00  0.00    -0.062 C 
ATOM     20  C   UNL     1       7.261  -5.417  22.704  0.00  0.00    -0.102 C 
ATOM     21  C   UNL     1       6.425  -5.972  21.563  0.00  0.00    +0.106 C 
ENDBRANCH  18  19
ENDBRANCH  17  18
ENDBRANCH   4  17
TORSDOF 6
ENDMDL
MODEL 8
REMARK VINA RESULT:      -5.6      2.142      2.772
REMARK  Name = 
REMARK  7 active torsions:
REMARK  status: ('A' for Active; 'I' for Inactive)
REMARK    1  A    between atoms: C_2  and  S_3
REMARK    2  A    between atoms: N_6  and  S_8
REMARK    3  A    between atoms: S_8  and  C_11
REMARK    4  A    between atoms: C_14  and  O_15
REMARK    5  A    between atoms: O_15  and  C_16
REMARK    6  A    between atoms: C_16  and  C_17
REMARK    7  A    between atoms: C_18  and  C_19
REMARK                            x       y       z     vdW  Elec       q    Type
REMARK                         _______ _______ _______ _____ _____    ______ ____
ROOT
ATOM      1  C   UNL     1       8.761   0.131  23.100  0.00  0.00    +0.106 A 
ATOM      2  C   UNL     1       8.341   0.796  24.254  0.00  0.00    +0.032 A 
ATOM      3  C   UNL     1       8.010   2.153  24.192  0.00  0.00    +0.047 A 
ATOM      4  C   UNL     1       8.080   2.836  22.974  0.00  0.00    +0.122 A 
ATOM      5  C   UNL     1       8.454   2.147  21.817  0.00  0.00    +0.047 A 
ATOM      6  C   UNL     1       8.772   0.790  21.869  0.00  0.00    +0.032 A 
ENDROOT
BRANCH   1   7
ATOM      7  S   UNL     1       9.289  -1.568  23.203  0.00  0.00    +0.061 S 
ATOM      8  O   UNL     1       9.902  -1.909  21.937  0.00  0.00    -0.153 OA
ATOM      9  O   UNL     1       9.997  -1.731  24.455  0.00  0.00    -0.153 OA
BRANCH   7  12
ATOM     10  C   UNL     1       6.741  -4.153  22.109  0.00  0.00    +0.060 C 
ATOM     11  C   UNL     1       7.832  -3.887  23.148  0.00  0.00    +0.123 C 
ATOM     12  N   UNL     1       7.828  -2.413  23.316  0.00  0.00    -0.176 NA
ATOM     13  C   UNL     1       6.626  -1.849  22.660  0.00  0.00    +0.110 C 
ATOM     14  C   UNL     1       5.730  -3.055  22.397  0.00  0.00    +0.032 C 
BRANCH  10  15
ATOM     15  S   UNL     1       6.019  -5.814  22.222  0.00  0.00    -0.173 S 
ATOM     16  H   UNL     1       4.908  -5.557  21.515  0.00  0.00    +0.102 HD
ENDBRANCH  10  15
ENDBRANCH   7  12
ENDBRANCH   1   7
BRANCH   4  17
ATOM     17  O   UNL     1       7.858   4.176  22.795  0.00  0.00    -0.480 OA
BRANCH  17  18
ATOM     18  C   UNL     1       8.252   5.015  23.874  0.00  0.00    +0.317 C 
BRANCH  18  19
ATOM     19  C   UNL     1       9.749   5.272  23.807  0.00  0.00    -0.062 C 
ATOM     20  C   UNL     1      11.034   5.491  23.750  0.00  0.00    -0.102 C 
ATOM     21  C   UNL     1      12.530   5.747  23.683  0.00  0.00    +0.106 C 
ENDBRANCH  18  19
ENDBRANCH  17  18
ENDBRANCH   4  17
TORSDOF 6
ENDMDL
MODEL 9
REMARK VINA RESULT:      -5.5      2.481      3.655
REMARK  Name = 
REMARK  7 active torsions:
REMARK  status: ('A' for Active; 'I' for Inactive)
REMARK    1  A    between atoms: C_2  and  S_3
REMARK    2  A    between atoms: N_6  and  S_8
REMARK    3  A    between atoms: S_8  and  C_11
REMARK    4  A    between atoms: C_14  and  O_15
REMARK    5  A    between atoms: O_15  and  C_16
REMARK    6  A    between atoms: C_16  and  C_17
REMARK    7  A    between atoms: C_18  and  C_19
REMARK                            x       y       z     vdW  Elec       q    Type
REMARK                         _______ _______ _______ _____ _____    ______ ____
ROOT
ATOM      1  C   UNL     1       9.548  -0.236  23.140  0.00  0.00    +0.106 A 
ATOM      2  C   UNL     1       9.524   0.375  24.396  0.00  0.00    +0.032 A 
ATOM      3  C   UNL     1       9.823   1.736  24.512  0.00  0.00    +0.047 A 
ATOM      4  C   UNL     1      10.124   2.487  23.372  0.00  0.00    +0.122 A 
ATOM      5  C   UNL     1      10.096   1.875  22.116  0.00  0.00    +0.047 A 
ATOM      6  C   UNL     1       9.786   0.521  21.991  0.00  0.00    +0.032 A 
ENDROOT
BRANCH   1   7
ATOM      7  S   UNL     1       9.278  -1.992  23.007  0.00  0.00    +0.061 S 
ATOM      8  O   UNL     1       8.432  -2.215  21.855  0.00  0.00    -0.153 OA
ATOM      9  O   UNL     1      10.564  -2.644  23.139  0.00  0.00    -0.153 OA
BRANCH   7  12
ATOM     10  C   UNL     1       7.526  -4.297  25.455  0.00  0.00    +0.060 C 
ATOM     11  C   UNL     1       8.795  -3.464  25.267  0.00  0.00    +0.123 C 
ATOM     12  N   UNL     1       8.372  -2.342  24.392  0.00  0.00    -0.176 NA
ATOM     13  C   UNL     1       6.894  -2.323  24.300  0.00  0.00    +0.110 C 
ATOM     14  C   UNL     1       6.428  -3.247  25.421  0.00  0.00    +0.032 C 
BRANCH  10  15
ATOM     15  S   UNL     1       7.516  -5.270  26.986  0.00  0.00    -0.173 S 
ATOM     16  H   UNL     1       8.125  -6.359  26.491  0.00  0.00    +0.102 HD
ENDBRANCH  10  15
ENDBRANCH   7  12
ENDBRANCH   1   7
BRANCH   4  17
ATOM     17  O   UNL     1      10.506   3.802  23.360  0.00  0.00    -0.480 OA
BRANCH  17  18
ATOM     18  C   UNL     1       9.683   4.691  24.106  0.00  0.00    +0.317 C 
BRANCH  18  19
ATOM     19  C   UNL     1       8.256   4.635  23.583  0.00  0.00    -0.062 C 
ATOM     20  C   UNL     1       7.033   4.587  23.134  0.00  0.00    -0.102 C 
ATOM     21  C   UNL     1       5.608   4.531  22.611  0.00  0.00    +0.106 C 
ENDBRANCH  18  19
ENDBRANCH  17  18
ENDBRANCH   4  17
TORSDOF 6
ENDMDL
