MODEL 1
REMARK VINA RESULT:      -5.9      0.000      0.000
REMARK  Name = 
REMARK  8 active torsions:
REMARK  status: ('A' for Active; 'I' for Inactive)
REMARK    1  A    between atoms: C_1  and  C_2
REMARK    2  A    between atoms: N_4  and  CA_5
REMARK    3  A    between atoms: CA_5  and  C_7
REMARK    4  A    between atoms: CA_5  and  C_9
REMARK    5  A    between atoms: C_7  and  O_8
REMARK    6  A    between atoms: C_9  and  O_11
REMARK    7  A    between atoms: C_9  and  C_12
REMARK    8  A    between atoms: C_15  and  N_18
REMARK                            x       y       z     vdW  Elec       q    Type
REMARK                         _______ _______ _______ _____ _____    ______ ____
ROOT
ATOM      1  C   UNL     1       9.050  -3.858  25.323  0.00  0.00    +0.167 C 
ENDROOT
BRANCH   1   2
ATOM      2  C   UNL     1       9.351  -2.495  24.725  0.00  0.00    -0.017 A 
ATOM      3  C   UNL     1       9.977  -2.385  23.470  0.00  0.00    +0.013 A 
ATOM      4  C   UNL     1      10.247  -1.133  22.913  0.00  0.00    +0.084 A 
ATOM      5  C   UNL     1       9.904   0.024  23.619  0.00  0.00    +0.273 A 
ATOM      6  C   UNL     1       9.297  -0.066  24.877  0.00  0.00    +0.084 A 
ATOM      7  C   UNL     1       9.026  -1.323  25.425  0.00  0.00    +0.013 A 
BRANCH   5   8
ATOM      8  N   UNL     1      10.189   1.342  23.037  0.00  0.00    +0.080 N 
ATOM      9  O   UNL     1      10.024   1.482  21.817  0.00  0.00    +0.041 OA
ATOM     10  O   UNL     1      10.567   2.240  23.802  0.00  0.00    -0.576 OA
ENDBRANCH   5   8
ENDBRANCH   1   2
BRANCH   1  11
ATOM     11  O   UNL     1      10.068  -4.730  24.830  0.00  0.00    -0.385 OA
ATOM     12  H   UNL     1       9.719  -5.204  24.050  0.00  0.00    +0.210 HD
ENDBRANCH   1  11
BRANCH   1  13
ATOM     13  CA  UNL     1       7.606  -4.359  25.016  0.00  0.00    +0.131 C 
BRANCH  13  16
ATOM     14  C   UNL     1       7.068  -5.740  21.493  0.00  0.00    +0.109 C 
ATOM     15  C   UNL     1       7.070  -4.730  22.606  0.00  0.00    +0.210 C 
ATOM     16  N   UNL     1       7.545  -5.200  23.804  0.00  0.00    -0.308 N 
ATOM     17  H   UNL     1       7.797  -6.179  23.892  0.00  0.00    +0.149 HD
ATOM     18  O   UNL     1       6.748  -3.559  22.445  0.00  0.00    -0.276 OA
ENDBRANCH  13  16
BRANCH  13  19
ATOM     19  C   UNL     1       7.021  -5.151  26.201  0.00  0.00    +0.181 C 
BRANCH  19  20
ATOM     20  O   UNL     1       8.039  -5.898  26.869  0.00  0.00    -0.393 OA
ATOM     21  H   UNL     1       7.765  -6.833  26.882  0.00  0.00    +0.209 HD
ENDBRANCH  19  20
ENDBRANCH  13  19
ENDBRANCH   1  13
TORSDOF 7
ENDMDL
MODEL 2
REMARK VINA RESULT:      -5.9      0.026      1.143
REMARK  Name = 
REMARK  8 active torsions:
REMARK  status: ('A' for Active; 'I' for Inactive)
REMARK    1  A    between atoms: C_1  and  C_2
REMARK    2  A    between atoms: N_4  and  CA_5
REMARK    3  A    between atoms: CA_5  and  C_7
REMARK    4  A    between atoms: CA_5  and  C_9
REMARK    5  A    between atoms: C_7  and  O_8
REMARK    6  A    between atoms: C_9  and  O_11
REMARK    7  A    between atoms: C_9  and  C_12
REMARK    8  A    between atoms: C_15  and  N_18
REMARK                            x       y       z     vdW  Elec       q    Type
REMARK                         _______ _______ _______ _____ _____    ______ ____
ROOT
ATOM      1  C   UNL     1       9.052  -3.851  25.309  0.00  0.00    +0.167 C 
ENDROOT
BRANCH   1   2
ATOM      2  C   UNL     1       9.354  -2.488  24.712  0.00  0.00    -0.017 A 
ATOM      3  C   UNL     1       9.016  -1.311  25.406  0.00  0.00    +0.013 A 
ATOM      4  C   UNL     1       9.300  -0.056  24.864  0.00  0.00    +0.084 A 
ATOM      5  C   UNL     1       9.914   0.032  23.611  0.00  0.00    +0.273 A 
ATOM      6  C   UNL     1      10.240  -1.128  22.897  0.00  0.00    +0.084 A 
ATOM      7  C   UNL     1       9.957  -2.381  23.449  0.00  0.00    +0.013 A 
BRANCH   5   8
ATOM      8  N   UNL     1      10.212   1.351  23.037  0.00  0.00    +0.080 N 
ATOM      9  O   UNL     1      10.031   1.505  21.820  0.00  0.00    +0.041 OA
ATOM     10  O   UNL     1      10.615   2.235  23.804  0.00  0.00    -0.576 OA
ENDBRANCH   5   8
ENDBRANCH   1   2
BRANCH   1  11
ATOM     11  O   UNL     1      10.070  -4.723  24.818  0.00  0.00    -0.385 OA
ATOM     12  H   UNL     1      10.925  -4.451  25.206  0.00  0.00    +0.210 HD
ENDBRANCH   1  11
BRANCH   1  13
ATOM     13  CA  UNL     1       7.608  -4.352  24.999  0.00  0.00    +0.131 C 
BRANCH  13  16
ATOM     14  C   UNL     1       7.051  -5.727  21.476  0.00  0.00    +0.109 C 
ATOM     15  C   UNL     1       7.046  -4.723  22.595  0.00  0.00    +0.210 C 
ATOM     16  N   UNL     1       7.548  -5.188  23.783  0.00  0.00    -0.308 N 
ATOM     17  H   UNL     1       7.824  -6.162  23.863  0.00  0.00    +0.149 HD
ATOM     18  O   UNL     1       6.695  -3.559  22.445  0.00  0.00    -0.276 OA
ENDBRANCH  13  16
BRANCH  13  19
ATOM     19  C   UNL     1       7.022  -5.149  26.180  0.00  0.00    +0.181 C 
BRANCH  19  20
ATOM     20  O   UNL     1       8.043  -5.888  26.854  0.00  0.00    -0.393 OA
ATOM     21  H   UNL     1       8.684  -5.249  27.217  0.00  0.00    +0.209 HD
ENDBRANCH  19  20
ENDBRANCH  13  19
ENDBRANCH   1  13
TORSDOF 7
ENDMDL
MODEL 3
REMARK VINA RESULT:      -5.7      4.041      8.320
REMARK  Name = 
REMARK  8 active torsions:
REMARK  status: ('A' for Active; 'I' for Inactive)
REMARK    1  A    between atoms: C_1  and  C_2
REMARK    2  A    between atoms: N_4  and  CA_5
REMARK    3  A    between atoms: CA_5  and  C_7
REMARK    4  A    between atoms: CA_5  and  C_9
REMARK    5  A    between atoms: C_7  and  O_8
REMARK    6  A    between atoms: C_9  and  O_11
REMARK    7  A    between atoms: C_9  and  C_12
REMARK    8  A    between atoms: C_15  and  N_18
REMARK                            x       y       z     vdW  Elec       q    Type
REMARK                         _______ _______ _______ _____ _____    ______ ____
ROOT
ATOM      1  C   UNL     1       8.803   4.259  23.555  0.00  0.00    +0.167 C 
ENDROOT
BRANCH   1   2
ATOM      2  C   UNL     1       9.169   2.788  23.462  0.00  0.00    -0.017 A 
ATOM      3  C   UNL     1       9.329   2.168  22.208  0.00  0.00    +0.013 A 
ATOM      4  C   UNL     1       9.675   0.818  22.118  0.00  0.00    +0.084 A 
ATOM      5  C   UNL     1       9.850   0.072  23.287  0.00  0.00    +0.273 A 
ATOM      6  C   UNL     1       9.676   0.667  24.542  0.00  0.00    +0.084 A 
ATOM      7  C   UNL     1       9.335   2.020  24.624  0.00  0.00    +0.013 A 
BRANCH   5   8
ATOM      8  N   UNL     1      10.211  -1.350  23.195  0.00  0.00    +0.080 N 
ATOM      9  O   UNL     1      10.768  -1.738  22.159  0.00  0.00    +0.041 OA
ATOM     10  O   UNL     1       9.946  -2.074  24.164  0.00  0.00    -0.576 OA
ENDBRANCH   5   8
ENDBRANCH   1   2
BRANCH   1  11
ATOM     11  O   UNL     1       8.269   4.607  22.277  0.00  0.00    -0.385 OA
ATOM     12  H   UNL     1       8.893   5.216  21.836  0.00  0.00    +0.210 HD
ENDBRANCH   1  11
BRANCH   1  13
ATOM     13  CA  UNL     1       9.995   5.163  23.993  0.00  0.00    +0.131 C 
BRANCH  13  16
ATOM     14  C   UNL     1      13.316   5.573  22.146  0.00  0.00    +0.109 C 
ATOM     15  C   UNL     1      12.355   5.591  23.302  0.00  0.00    +0.210 C 
ATOM     16  N   UNL     1      11.079   5.194  22.992  0.00  0.00    -0.308 N 
ATOM     17  H   UNL     1      10.842   4.982  22.028  0.00  0.00    +0.149 HD
ATOM     18  O   UNL     1      12.694   5.863  24.447  0.00  0.00    -0.276 OA
ENDBRANCH  13  16
BRANCH  13  19
ATOM     19  C   UNL     1       9.534   6.607  24.273  0.00  0.00    +0.181 C 
BRANCH  19  20
ATOM     20  O   UNL     1      10.110   7.101  25.483  0.00  0.00    -0.393 OA
ATOM     21  H   UNL     1      10.535   6.352  25.940  0.00  0.00    +0.209 HD
ENDBRANCH  19  20
ENDBRANCH  13  19
ENDBRANCH   1  13
TORSDOF 7
ENDMDL
MODEL 4
REMARK VINA RESULT:      -5.7      2.853      3.206
REMARK  Name = 
REMARK  8 active torsions:
REMARK  status: ('A' for Active; 'I' for Inactive)
REMARK    1  A    between atoms: C_1  and  C_2
REMARK    2  A    between atoms: N_4  and  CA_5
REMARK    3  A    between atoms: CA_5  and  C_7
REMARK    4  A    between atoms: CA_5  and  C_9
REMARK    5  A    between atoms: C_7  and  O_8
REMARK    6  A    between atoms: C_9  and  O_11
REMARK    7  A    between atoms: C_9  and  C_12
REMARK    8  A    between atoms: C_15  and  N_18
REMARK                            x       y       z     vdW  Elec       q    Type
REMARK                         _______ _______ _______ _____ _____    ______ ____
ROOT
ATOM      1  C   UNL     1       9.485  -1.722  22.623  0.00  0.00    +0.167 C 
ENDROOT
BRANCH   1   2
ATOM      2  C   UNL     1       9.803  -0.258  22.876  0.00  0.00    -0.017 A 
ATOM      3  C   UNL     1       9.630   0.699  21.859  0.00  0.00    +0.013 A 
ATOM      4  C   UNL     1       9.913   2.046  22.089  0.00  0.00    +0.084 A 
ATOM      5  C   UNL     1      10.388   2.446  23.342  0.00  0.00    +0.273 A 
ATOM      6  C   UNL     1      10.585   1.505  24.360  0.00  0.00    +0.084 A 
ATOM      7  C   UNL     1      10.294   0.159  24.122  0.00  0.00    +0.013 A 
BRANCH   5   8
ATOM      8  N   UNL     1      10.690   3.863  23.588  0.00  0.00    +0.080 N 
ATOM      9  O   UNL     1       9.791   4.569  24.065  0.00  0.00    +0.041 OA
ATOM     10  O   UNL     1      11.829   4.265  23.314  0.00  0.00    -0.576 OA
ENDBRANCH   5   8
ENDBRANCH   1   2
BRANCH   1  11
ATOM     11  O   UNL     1      10.137  -2.053  21.396  0.00  0.00    -0.385 OA
ATOM     12  H   UNL     1      10.794  -2.753  21.573  0.00  0.00    +0.210 HD
ENDBRANCH   1  11
BRANCH   1  13
ATOM     13  CA  UNL     1       7.956  -2.025  22.611  0.00  0.00    +0.131 C 
BRANCH  13  16
ATOM     14  C   UNL     1       6.350  -5.406  21.839  0.00  0.00    +0.109 C 
ATOM     15  C   UNL     1       6.466  -3.911  21.936  0.00  0.00    +0.210 C 
ATOM     16  N   UNL     1       7.665  -3.461  22.427  0.00  0.00    -0.308 N 
ATOM     17  H   UNL     1       8.357  -4.130  22.748  0.00  0.00    +0.149 HD
ATOM     18  O   UNL     1       5.594  -3.147  21.539  0.00  0.00    -0.276 OA
ENDBRANCH  13  16
BRANCH  13  19
ATOM     19  C   UNL     1       7.275  -1.541  23.906  0.00  0.00    +0.181 C 
BRANCH  19  20
ATOM     20  O   UNL     1       6.027  -0.909  23.621  0.00  0.00    -0.393 OA
ATOM     21  H   UNL     1       5.321  -1.571  23.743  0.00  0.00    +0.209 HD
ENDBRANCH  19  20
ENDBRANCH  13  19
ENDBRANCH   1  13
TORSDOF 7
ENDMDL
MODEL 5
REMARK VINA RESULT:      -5.5      1.376      3.394
REMARK  Name = 
REMARK  8 active torsions:
REMARK  status: ('A' for Active; 'I' for Inactive)
REMARK    1  A    between atoms: C_1  and  C_2
REMARK    2  A    between atoms: N_4  and  CA_5
REMARK    3  A    between atoms: CA_5  and  C_7
REMARK    4  A    between atoms: CA_5  and  C_9
REMARK    5  A    between atoms: C_7  and  O_8
REMARK    6  A    between atoms: C_9  and  O_11
REMARK    7  A    between atoms: C_9  and  C_12
REMARK    8  A    between atoms: C_15  and  N_18
REMARK                            x       y       z     vdW  Elec       q    Type
REMARK                         _______ _______ _______ _____ _____    ______ ____
ROOT
ATOM      1  C   UNL     1       6.948  -3.191  22.149  0.00  0.00    +0.167 C 
ENDROOT
BRANCH   1   2
ATOM      2  C   UNL     1       7.882  -2.077  22.590  0.00  0.00    -0.017 A 
ATOM      3  C   UNL     1       7.597  -1.316  23.739  0.00  0.00    +0.013 A 
ATOM      4  C   UNL     1       8.458  -0.298  24.153  0.00  0.00    +0.084 A 
ATOM      5  C   UNL     1       9.609  -0.023  23.409  0.00  0.00    +0.273 A 
ATOM      6  C   UNL     1       9.899  -0.757  22.253  0.00  0.00    +0.084 A 
ATOM      7  C   UNL     1       9.035  -1.779  21.848  0.00  0.00    +0.013 A 
BRANCH   5   8
ATOM      8  N   UNL     1      10.516   1.050  23.840  0.00  0.00    +0.080 N 
ATOM      9  O   UNL     1      11.371   0.774  24.693  0.00  0.00    +0.041 OA
ATOM     10  O   UNL     1      10.379   2.164  23.318  0.00  0.00    -0.576 OA
ENDBRANCH   5   8
ENDBRANCH   1   2
BRANCH   1  11
ATOM     11  O   UNL     1       5.678  -2.880  22.723  0.00  0.00    -0.385 OA
ATOM     12  H   UNL     1       5.825  -2.378  23.548  0.00  0.00    +0.210 HD
ENDBRANCH   1  11
BRANCH   1  13
ATOM     13  CA  UNL     1       7.464  -4.612  22.526  0.00  0.00    +0.131 C 
BRANCH  13  16
ATOM     14  C   UNL     1       7.979  -5.304  26.250  0.00  0.00    +0.109 C 
ATOM     15  C   UNL     1       8.350  -4.962  24.834  0.00  0.00    +0.210 C 
ATOM     16  N   UNL     1       7.293  -4.915  23.961  0.00  0.00    -0.308 N 
ATOM     17  H   UNL     1       6.365  -5.166  24.286  0.00  0.00    +0.149 HD
ATOM     18  O   UNL     1       9.491  -4.673  24.494  0.00  0.00    -0.276 OA
ENDBRANCH  13  16
BRANCH  13  19
ATOM     19  C   UNL     1       6.759  -5.706  21.700  0.00  0.00    +0.181 C 
BRANCH  19  20
ATOM     20  O   UNL     1       5.923  -5.127  20.697  0.00  0.00    -0.393 OA
ATOM     21  H   UNL     1       6.494  -4.632  20.080  0.00  0.00    +0.209 HD
ENDBRANCH  19  20
ENDBRANCH  13  19
ENDBRANCH   1  13
TORSDOF 7
ENDMDL
MODEL 6
REMARK VINA RESULT:      -5.5      3.043      7.373
REMARK  Name = 
REMARK  8 active torsions:
REMARK  status: ('A' for Active; 'I' for Inactive)
REMARK    1  A    between atoms: C_1  and  C_2
REMARK    2  A    between atoms: N_4  and  CA_5
REMARK    3  A    between atoms: CA_5  and  C_7
REMARK    4  A    between atoms: CA_5  and  C_9
REMARK    5  A    between atoms: C_7  and  O_8
REMARK    6  A    between atoms: C_9  and  O_11
REMARK    7  A    between atoms: C_9  and  C_12
REMARK    8  A    between atoms: C_15  and  N_18
REMARK                            x       y       z     vdW  Elec       q    Type
REMARK                         _______ _______ _______ _____ _____    ______ ____
ROOT
ATOM      1  C   UNL     1       8.870   1.985  21.792  0.00  0.00    +0.167 C 
ENDROOT
BRANCH   1   2
ATOM      2  C   UNL     1       8.888   0.576  22.357  0.00  0.00    -0.017 A 
ATOM      3  C   UNL     1       8.408   0.318  23.655  0.00  0.00    +0.013 A 
ATOM      4  C   UNL     1       8.415  -0.977  24.176  0.00  0.00    +0.084 A 
ATOM      5  C   UNL     1       8.918  -2.028  23.403  0.00  0.00    +0.273 A 
ATOM      6  C   UNL     1       9.417  -1.788  22.117  0.00  0.00    +0.084 A 
ATOM      7  C   UNL     1       9.402  -0.489  21.601  0.00  0.00    +0.013 A 
BRANCH   5   8
ATOM      8  N   UNL     1       8.929  -3.392  23.948  0.00  0.00    +0.080 N 
ATOM      9  O   UNL     1      10.009  -3.840  24.360  0.00  0.00    +0.041 OA
ATOM     10  O   UNL     1       7.856  -4.010  23.975  0.00  0.00    -0.576 OA
ENDBRANCH   5   8
ENDBRANCH   1   2
BRANCH   1  11
ATOM     11  O   UNL     1      10.235   2.319  21.540  0.00  0.00    -0.385 OA
ATOM     12  H   UNL     1      10.559   2.876  22.274  0.00  0.00    +0.210 HD
ENDBRANCH   1  11
BRANCH   1  13
ATOM     13  CA  UNL     1       8.145   3.009  22.717  0.00  0.00    +0.131 C 
BRANCH  13  16
ATOM     14  C   UNL     1      10.011   5.898  24.385  0.00  0.00    +0.109 C 
ATOM     15  C   UNL     1       9.144   4.674  24.287  0.00  0.00    +0.210 C 
ATOM     16  N   UNL     1       8.977   4.192  23.013  0.00  0.00    -0.308 N 
ATOM     17  H   UNL     1       9.375   4.701  22.230  0.00  0.00    +0.149 HD
ATOM     18  O   UNL     1       8.682   4.103  25.266  0.00  0.00    -0.276 OA
ENDBRANCH  13  16
BRANCH  13  19
ATOM     19  C   UNL     1       6.812   3.480  22.101  0.00  0.00    +0.181 C 
BRANCH  19  20
ATOM     20  O   UNL     1       6.882   4.856  21.725  0.00  0.00    -0.393 OA
ATOM     21  H   UNL     1       7.794   5.041  21.434  0.00  0.00    +0.209 HD
ENDBRANCH  19  20
ENDBRANCH  13  19
ENDBRANCH   1  13
TORSDOF 7
ENDMDL
MODEL 7
REMARK VINA RESULT:      -5.4      2.283      3.039
REMARK  Name = 
REMARK  8 active torsions:
REMARK  status: ('A' for Active; 'I' for Inactive)
REMARK    1  A    between atoms: C_1  and  C_2
REMARK    2  A    between atoms: N_4  and  CA_5
REMARK    3  A    between atoms: CA_5  and  C_7
REMARK    4  A    between atoms: CA_5  and  C_9
REMARK    5  A    between atoms: C_7  and  O_8
REMARK    6  A    between atoms: C_9  and  O_11
REMARK    7  A    between atoms: C_9  and  C_12
REMARK    8  A    between atoms: C_15  and  N_18
REMARK                            x       y       z     vdW  Elec       q    Type
REMARK                         _______ _______ _______ _____ _____    ______ ____
ROOT
ATOM      1  C   UNL     1       6.110  -5.044  25.824  0.00  0.00    +0.167 C 
ENDROOT
BRANCH   1   2
ATOM      2  C   UNL     1       7.154  -4.118  25.224  0.00  0.00    -0.017 A 
ATOM      3  C   UNL     1       8.491  -4.538  25.088  0.00  0.00    +0.013 A 
ATOM      4  C   UNL     1       9.452  -3.694  24.528  0.00  0.00    +0.084 A 
ATOM      5  C   UNL     1       9.084  -2.411  24.112  0.00  0.00    +0.273 A 
ATOM      6  C   UNL     1       7.763  -1.969  24.256  0.00  0.00    +0.084 A 
ATOM      7  C   UNL     1       6.806  -2.823  24.813  0.00  0.00    +0.013 A 
BRANCH   5   8
ATOM      8  N   UNL     1      10.093  -1.519  23.525  0.00  0.00    +0.080 N 
ATOM      9  O   UNL     1      10.368  -0.478  24.137  0.00  0.00    +0.041 OA
ATOM     10  O   UNL     1      10.617  -1.867  22.458  0.00  0.00    -0.576 OA
ENDBRANCH   5   8
ENDBRANCH   1   2
BRANCH   1  11
ATOM     11  O   UNL     1       6.842  -6.058  26.513  0.00  0.00    -0.385 OA
ATOM     12  H   UNL     1       6.283  -6.409  27.232  0.00  0.00    +0.210 HD
ENDBRANCH   1  11
BRANCH   1  13
ATOM     13  CA  UNL     1       5.112  -5.611  24.769  0.00  0.00    +0.131 C 
BRANCH  13  16
ATOM     14  C   UNL     1       6.241  -5.745  21.120  0.00  0.00    +0.109 C 
ATOM     15  C   UNL     1       5.488  -5.259  22.326  0.00  0.00    +0.210 C 
ATOM     16  N   UNL     1       5.768  -5.935  23.487  0.00  0.00    -0.308 N 
ATOM     17  H   UNL     1       6.390  -6.736  23.461  0.00  0.00    +0.149 HD
ATOM     18  O   UNL     1       4.741  -4.289  22.300  0.00  0.00    -0.276 OA
ENDBRANCH  13  16
BRANCH  13  19
ATOM     19  C   UNL     1       4.394  -6.870  25.293  0.00  0.00    +0.181 C 
BRANCH  19  20
ATOM     20  O   UNL     1       4.075  -7.758  24.221  0.00  0.00    -0.393 OA
ATOM     21  H   UNL     1       3.193  -7.515  23.884  0.00  0.00    +0.209 HD
ENDBRANCH  19  20
ENDBRANCH  13  19
ENDBRANCH   1  13
TORSDOF 7
ENDMDL
MODEL 8
REMARK VINA RESULT:      -5.4      1.380      1.715
REMARK  Name = 
REMARK  8 active torsions:
REMARK  status: ('A' for Active; 'I' for Inactive)
REMARK    1  A    between atoms: C_1  and  C_2
REMARK    2  A    between atoms: N_4  and  CA_5
REMARK    3  A    between atoms: CA_5  and  C_7
REMARK    4  A    between atoms: CA_5  and  C_9
REMARK    5  A    between atoms: C_7  and  O_8
REMARK    6  A    between atoms: C_9  and  O_11
REMARK    7  A    between atoms: C_9  and  C_12
REMARK    8  A    between atoms: C_15  and  N_18
REMARK                            x       y       z     vdW  Elec       q    Type
REMARK                         _______ _______ _______ _____ _____    ______ ____
ROOT
ATOM      1  C   UNL     1       8.335  -4.546  26.472  0.00  0.00    +0.167 C 
ENDROOT
BRANCH   1   2
ATOM      2  C   UNL     1       8.818  -3.333  25.695  0.00  0.00    -0.017 A 
ATOM      3  C   UNL     1       9.530  -3.490  24.492  0.00  0.00    +0.013 A 
ATOM      4  C   UNL     1       9.968  -2.378  23.770  0.00  0.00    +0.084 A 
ATOM      5  C   UNL     1       9.708  -1.094  24.258  0.00  0.00    +0.273 A 
ATOM      6  C   UNL     1       9.017  -0.918  25.463  0.00  0.00    +0.084 A 
ATOM      7  C   UNL     1       8.577  -2.038  26.177  0.00  0.00    +0.013 A 
BRANCH   5   8
ATOM      8  N   UNL     1      10.169   0.079  23.503  0.00  0.00    +0.080 N 
ATOM      9  O   UNL     1      10.923   0.876  24.080  0.00  0.00    +0.041 OA
ATOM     10  O   UNL     1       9.786   0.196  22.331  0.00  0.00    -0.576 OA
ENDBRANCH   5   8
ENDBRANCH   1   2
BRANCH   1  11
ATOM     11  O   UNL     1       9.116  -5.644  25.999  0.00  0.00    -0.385 OA
ATOM     12  H   UNL     1       8.967  -5.740  25.038  0.00  0.00    +0.210 HD
ENDBRANCH   1  11
BRANCH   1  13
ATOM     13  CA  UNL     1       6.799  -4.783  26.349  0.00  0.00    +0.131 C 
BRANCH  13  16
ATOM     14  C   UNL     1       5.562  -5.694  22.849  0.00  0.00    +0.109 C 
ATOM     15  C   UNL     1       5.887  -4.817  24.025  0.00  0.00    +0.210 C 
ATOM     16  N   UNL     1       6.431  -5.476  25.098  0.00  0.00    -0.308 N 
ATOM     17  H   UNL     1       6.522  -6.486  25.070  0.00  0.00    +0.149 HD
ATOM     18  O   UNL     1       5.752  -3.600  24.007  0.00  0.00    -0.276 OA
ENDBRANCH  13  16
BRANCH  13  19
ATOM     19  C   UNL     1       6.256  -5.592  27.543  0.00  0.00    +0.181 C 
BRANCH  19  20
ATOM     20  O   UNL     1       7.310  -6.294  28.204  0.00  0.00    -0.393 OA
ATOM     21  H   UNL     1       8.139  -5.806  28.049  0.00  0.00    +0.209 HD
ENDBRANCH  19  20
ENDBRANCH  13  19
ENDBRANCH   1  13
TORSDOF 7
ENDMDL
MODEL 9
REMARK VINA RESULT:      -5.3      2.068      6.654
REMARK  Name = 
REMARK  8 active torsions:
REMARK  status: ('A' for Active; 'I' for Inactive)
REMARK    1  A    between atoms: C_1  and  C_2
REMARK    2  A    between atoms: N_4  and  CA_5
REMARK    3  A    between atoms: CA_5  and  C_7
REMARK    4  A    between atoms: CA_5  and  C_9
REMARK    5  A    between atoms: C_7  and  O_8
REMARK    6  A    between atoms: C_9  and  O_11
REMARK    7  A    between atoms: C_9  and  C_12
REMARK    8  A    between atoms: C_15  and  N_18
REMARK                            x       y       z     vdW  Elec       q    Type
REMARK                         _______ _______ _______ _____ _____    ______ ____
ROOT
ATOM      1  C   UNL     1      10.403   0.044  24.039  0.00  0.00    +0.167 C 
ENDROOT
BRANCH   1   2
ATOM      2  C   UNL     1       9.692  -1.184  24.580  0.00  0.00    -0.017 A 
ATOM      3  C   UNL     1       8.876  -1.094  25.723  0.00  0.00    +0.013 A 
ATOM      4  C   UNL     1       8.214  -2.219  26.219  0.00  0.00    +0.084 A 
ATOM      5  C   UNL     1       8.376  -3.451  25.579  0.00  0.00    +0.273 A 
ATOM      6  C   UNL     1       9.198  -3.564  24.451  0.00  0.00    +0.084 A 
ATOM      7  C   UNL     1       9.853  -2.431  23.958  0.00  0.00    +0.013 A 
BRANCH   5   8
ATOM      8  N   UNL     1       7.682  -4.638  26.099  0.00  0.00    +0.080 N 
ATOM      9  O   UNL     1       7.944  -4.998  27.255  0.00  0.00    +0.041 OA
ATOM     10  O   UNL     1       6.869  -5.202  25.354  0.00  0.00    -0.576 OA
ENDBRANCH   5   8
ENDBRANCH   1   2
BRANCH   1  11
ATOM     11  O   UNL     1      10.911   0.733  25.182  0.00  0.00    -0.385 OA
ATOM     12  H   UNL     1      11.069   0.080  25.891  0.00  0.00    +0.210 HD
ENDBRANCH   1  11
BRANCH   1  13
ATOM     13  CA  UNL     1       9.493   0.934  23.137  0.00  0.00    +0.131 C 
BRANCH  13  16
ATOM     14  C   UNL     1       9.748   4.640  24.034  0.00  0.00    +0.109 C 
ATOM     15  C   UNL     1       9.273   3.217  24.122  0.00  0.00    +0.210 C 
ATOM     16  N   UNL     1       9.847   2.365  23.213  0.00  0.00    -0.308 N 
ATOM     17  H   UNL     1      10.484   2.734  22.515  0.00  0.00    +0.149 HD
ATOM     18  O   UNL     1       8.495   2.825  24.983  0.00  0.00    -0.276 OA
ENDBRANCH  13  16
BRANCH  13  19
ATOM     19  C   UNL     1       9.550   0.485  21.664  0.00  0.00    +0.181 C 
BRANCH  19  20
ATOM     20  O   UNL     1       8.764   1.346  20.838  0.00  0.00    -0.393 OA
ATOM     21  H   UNL     1       7.891   1.448  21.257  0.00  0.00    +0.209 HD
ENDBRANCH  19  20
ENDBRANCH  13  19
ENDBRANCH   1  13
TORSDOF 7
ENDMDL
