MODEL 1
REMARK VINA RESULT:      -7.1      0.000      0.000
REMARK  Name = 
REMARK  9 active torsions:
REMARK  status: ('A' for Active; 'I' for Inactive)
REMARK    1  A    between atoms: C_2  and  C_3
REMARK    2  A    between atoms: C_2  and  C_4
REMARK    3  A    between atoms: C_2  and  N_6
REMARK    4  A    between atoms: C_4  and  C_5
REMARK    5  A    between atoms: C_10  and  C_12
REMARK    6  A    between atoms: N_14  and  C_15
REMARK    7  A    between atoms: C_16  and  C_17
REMARK    8  A    between atoms: C_20  and  C_22
REMARK    9  A    between atoms: N_24  and  C_25
REMARK                            x       y       z     vdW  Elec       q    Type
REMARK                         _______ _______ _______ _____ _____    ______ ____
ROOT
ATOM      1  C   UNL     1       9.622   0.516  24.292  0.00  0.00    +0.256 C 
ATOM      2  N   UNL     1       8.879   1.562  23.757  0.00  0.00    -0.281 N 
ATOM      3  H   UNL     1       8.290   1.324  22.974  0.00  0.00    +0.155 HD
ATOM      4  O   UNL     1      10.565   0.673  25.060  0.00  0.00    -0.269 OA
ENDROOT
BRANCH   1   9
ATOM      5  N   UNL     1       7.288  -3.600  22.293  0.00  0.00    -0.321 N 
ATOM      6  H   UNL     1       7.000  -3.370  21.349  0.00  0.00    +0.148 HD
ATOM      7  C   UNL     1       8.150  -2.763  22.900  0.00  0.00    +0.159 A 
ATOM      8  S   UNL     1       7.847  -1.072  22.851  0.00  0.00    -0.048 S 
ATOM      9  C   UNL     1       9.230  -0.795  23.821  0.00  0.00    +0.095 A 
ATOM     10  C   UNL     1       9.870  -1.998  24.048  0.00  0.00    +0.133 A 
ATOM     11  N   UNL     1       9.227  -3.117  23.559  0.00  0.00    -0.233 NA
BRANCH   5  12
ATOM     12  C   UNL     1       7.245  -5.005  22.658  0.00  0.00    +0.069 C 
ATOM     13  C   UNL     1       6.931  -5.848  21.426  0.00  0.00    +0.028 C 
BRANCH  12  14
ATOM     14  C   UNL     1       6.162  -5.201  23.736  0.00  0.00    +0.018 C 
ATOM     15  C   UNL     1       6.733  -5.325  25.146  0.00  0.00    +0.005 C 
ENDBRANCH  12  14
ENDBRANCH   5  12
ENDBRANCH   1   9
BRANCH   2  16
ATOM     16  C   UNL     1       9.147   2.924  23.998  0.00  0.00    +0.037 A 
ATOM     17  C   UNL     1      10.424   3.429  23.723  0.00  0.00    +0.036 A 
ATOM     18  C   UNL     1      10.701   4.788  23.885  0.00  0.00    +0.038 A 
ATOM     19  C   UNL     1       9.710   5.633  24.388  0.00  0.00    +0.013 A 
ATOM     20  C   UNL     1       8.449   5.124  24.702  0.00  0.00    +0.006 A 
ATOM     21  C   UNL     1       8.151   3.760  24.512  0.00  0.00    -0.029 A 
ATOM     22  C   UNL     1       6.737   3.320  24.785  0.00  0.00    +0.045 C 
BRANCH  18  23
ATOM     23  C   UNL     1      12.030   5.365  23.531  0.00  0.00    +0.244 C 
ATOM     24  N   UNL     1      12.405   5.253  22.209  0.00  0.00    -0.314 N 
ATOM     25  H   UNL     1      11.761   4.857  21.534  0.00  0.00    +0.149 HD
ATOM     26  C   UNL     1      13.636   5.800  21.703  0.00  0.00    +0.128 C 
ATOM     27  O   UNL     1      12.698   5.927  24.386  0.00  0.00    -0.270 OA
ENDBRANCH  18  23
ENDBRANCH   2  16
TORSDOF 5
ENDMDL
MODEL 2
REMARK VINA RESULT:      -7.1      3.637      9.932
REMARK  Name = 
REMARK  9 active torsions:
REMARK  status: ('A' for Active; 'I' for Inactive)
REMARK    1  A    between atoms: C_2  and  C_3
REMARK    2  A    between atoms: C_2  and  C_4
REMARK    3  A    between atoms: C_2  and  N_6
REMARK    4  A    between atoms: C_4  and  C_5
REMARK    5  A    between atoms: C_10  and  C_12
REMARK    6  A    between atoms: N_14  and  C_15
REMARK    7  A    between atoms: C_16  and  C_17
REMARK    8  A    between atoms: C_20  and  C_22
REMARK    9  A    between atoms: N_24  and  C_25
REMARK                            x       y       z     vdW  Elec       q    Type
REMARK                         _______ _______ _______ _____ _____    ______ ____
ROOT
ATOM      1  C   UNL     1       8.235  -3.984  24.425  0.00  0.00    +0.256 C 
ATOM      2  N   UNL     1       6.863  -3.921  24.638  0.00  0.00    -0.281 N 
ATOM      3  H   UNL     1       6.490  -3.001  24.812  0.00  0.00    +0.155 HD
ATOM      4  O   UNL     1       8.884  -5.024  24.457  0.00  0.00    -0.269 OA
ENDROOT
BRANCH   1   9
ATOM      5  N   UNL     1       9.530   0.981  24.165  0.00  0.00    -0.321 N 
ATOM      6  H   UNL     1       9.433   1.380  25.092  0.00  0.00    +0.148 HD
ATOM      7  C   UNL     1       9.502  -0.361  24.061  0.00  0.00    +0.159 A 
ATOM      8  S   UNL     1       8.264  -1.236  24.871  0.00  0.00    -0.048 S 
ATOM      9  C   UNL     1       8.865  -2.698  24.214  0.00  0.00    +0.095 A 
ATOM     10  C   UNL     1      10.011  -2.429  23.491  0.00  0.00    +0.133 A 
ATOM     11  N   UNL     1      10.342  -1.095  23.372  0.00  0.00    -0.233 NA
BRANCH   5  12
ATOM     12  C   UNL     1      10.251   1.780  23.190  0.00  0.00    +0.069 C 
ATOM     13  C   UNL     1      10.246   3.243  23.619  0.00  0.00    +0.028 C 
BRANCH  12  14
ATOM     14  C   UNL     1       9.568   1.617  21.818  0.00  0.00    +0.018 C 
ATOM     15  C   UNL     1       8.185   2.257  21.755  0.00  0.00    +0.005 C 
ENDBRANCH  12  14
ENDBRANCH   5  12
ENDBRANCH   1   9
BRANCH   2  16
ATOM     16  C   UNL     1       6.064  -5.035  24.961  0.00  0.00    +0.037 A 
ATOM     17  C   UNL     1       5.969  -5.447  26.295  0.00  0.00    +0.036 A 
ATOM     18  C   UNL     1       5.130  -6.504  26.656  0.00  0.00    +0.038 A 
ATOM     19  C   UNL     1       4.433  -7.193  25.662  0.00  0.00    +0.013 A 
ATOM     20  C   UNL     1       4.558  -6.811  24.326  0.00  0.00    +0.006 A 
ATOM     21  C   UNL     1       5.378  -5.726  23.956  0.00  0.00    -0.029 A 
ATOM     22  C   UNL     1       5.375  -5.324  22.505  0.00  0.00    +0.045 C 
BRANCH  18  23
ATOM     23  C   UNL     1       4.956  -6.916  28.079  0.00  0.00    +0.244 C 
ATOM     24  N   UNL     1       3.776  -6.529  28.679  0.00  0.00    -0.314 N 
ATOM     25  H   UNL     1       3.066  -6.053  28.136  0.00  0.00    +0.149 HD
ATOM     26  C   UNL     1       3.440  -6.890  30.031  0.00  0.00    +0.128 C 
ATOM     27  O   UNL     1       5.816  -7.587  28.629  0.00  0.00    -0.270 OA
ENDBRANCH  18  23
ENDBRANCH   2  16
TORSDOF 5
ENDMDL
MODEL 3
REMARK VINA RESULT:      -7.0      1.389      1.907
REMARK  Name = 
REMARK  9 active torsions:
REMARK  status: ('A' for Active; 'I' for Inactive)
REMARK    1  A    between atoms: C_2  and  C_3
REMARK    2  A    between atoms: C_2  and  C_4
REMARK    3  A    between atoms: C_2  and  N_6
REMARK    4  A    between atoms: C_4  and  C_5
REMARK    5  A    between atoms: C_10  and  C_12
REMARK    6  A    between atoms: N_14  and  C_15
REMARK    7  A    between atoms: C_16  and  C_17
REMARK    8  A    between atoms: C_20  and  C_22
REMARK    9  A    between atoms: N_24  and  C_25
REMARK                            x       y       z     vdW  Elec       q    Type
REMARK                         _______ _______ _______ _____ _____    ______ ____
ROOT
ATOM      1  C   UNL     1       8.412   1.279  22.717  0.00  0.00    +0.256 C 
ATOM      2  N   UNL     1       8.564   2.050  23.863  0.00  0.00    -0.281 N 
ATOM      3  H   UNL     1       8.179   1.657  24.708  0.00  0.00    +0.155 HD
ATOM      4  O   UNL     1       8.582   1.706  21.580  0.00  0.00    -0.269 OA
ENDROOT
BRANCH   1   9
ATOM      5  N   UNL     1       7.867  -3.810  23.161  0.00  0.00    -0.321 N 
ATOM      6  H   UNL     1       8.681  -4.172  23.646  0.00  0.00    +0.148 HD
ATOM      7  C   UNL     1       7.678  -2.478  23.177  0.00  0.00    +0.159 A 
ATOM      8  S   UNL     1       8.999  -1.441  22.811  0.00  0.00    -0.048 S 
ATOM      9  C   UNL     1       7.975  -0.078  22.966  0.00  0.00    +0.095 A 
ATOM     10  C   UNL     1       6.721  -0.500  23.363  0.00  0.00    +0.133 A 
ATOM     11  N   UNL     1       6.547  -1.867  23.439  0.00  0.00    -0.233 NA
BRANCH   5  12
ATOM     12  C   UNL     1       6.738  -4.713  23.031  0.00  0.00    +0.069 C 
ATOM     13  C   UNL     1       6.408  -5.325  24.389  0.00  0.00    +0.028 C 
BRANCH  12  14
ATOM     14  C   UNL     1       7.102  -5.814  22.016  0.00  0.00    +0.018 C 
ATOM     15  C   UNL     1       6.150  -5.873  20.825  0.00  0.00    +0.005 C 
ENDBRANCH  12  14
ENDBRANCH   5  12
ENDBRANCH   1   9
BRANCH   2  16
ATOM     16  C   UNL     1       8.887   3.421  23.854  0.00  0.00    +0.037 A 
ATOM     17  C   UNL     1      10.229   3.808  23.756  0.00  0.00    +0.036 A 
ATOM     18  C   UNL     1      10.575   5.159  23.674  0.00  0.00    +0.038 A 
ATOM     19  C   UNL     1       9.574   6.128  23.758  0.00  0.00    +0.013 A 
ATOM     20  C   UNL     1       8.240   5.746  23.898  0.00  0.00    +0.006 A 
ATOM     21  C   UNL     1       7.877   4.385  23.949  0.00  0.00    -0.029 A 
ATOM     22  C   UNL     1       6.407   4.065  24.003  0.00  0.00    +0.045 C 
BRANCH  18  23
ATOM     23  C   UNL     1      11.990   5.596  23.496  0.00  0.00    +0.244 C 
ATOM     24  N   UNL     1      12.493   5.507  22.215  0.00  0.00    -0.314 N 
ATOM     25  H   UNL     1      11.889   5.222  21.454  0.00  0.00    +0.149 HD
ATOM     26  C   UNL     1      13.825   5.934  21.875  0.00  0.00    +0.128 C 
ATOM     27  O   UNL     1      12.618   6.034  24.449  0.00  0.00    -0.270 OA
ENDBRANCH  18  23
ENDBRANCH   2  16
TORSDOF 5
ENDMDL
MODEL 4
REMARK VINA RESULT:      -6.9      2.859      9.376
REMARK  Name = 
REMARK  9 active torsions:
REMARK  status: ('A' for Active; 'I' for Inactive)
REMARK    1  A    between atoms: C_2  and  C_3
REMARK    2  A    between atoms: C_2  and  C_4
REMARK    3  A    between atoms: C_2  and  N_6
REMARK    4  A    between atoms: C_4  and  C_5
REMARK    5  A    between atoms: C_10  and  C_12
REMARK    6  A    between atoms: N_14  and  C_15
REMARK    7  A    between atoms: C_16  and  C_17
REMARK    8  A    between atoms: C_20  and  C_22
REMARK    9  A    between atoms: N_24  and  C_25
REMARK                            x       y       z     vdW  Elec       q    Type
REMARK                         _______ _______ _______ _____ _____    ______ ____
ROOT
ATOM      1  C   UNL     1       9.122  -2.431  23.828  0.00  0.00    +0.256 C 
ATOM      2  N   UNL     1       7.744  -2.496  23.996  0.00  0.00    -0.281 N 
ATOM      3  H   UNL     1       7.276  -1.611  24.119  0.00  0.00    +0.155 HD
ATOM      4  O   UNL     1       9.868  -3.400  23.925  0.00  0.00    -0.269 OA
ENDROOT
BRANCH   1   9
ATOM      5  N   UNL     1      10.899   2.383  24.081  0.00  0.00    -0.321 N 
ATOM      6  H   UNL     1      11.684   2.395  24.721  0.00  0.00    +0.148 HD
ATOM      7  C   UNL     1      10.457   1.182  23.663  0.00  0.00    +0.159 A 
ATOM      8  S   UNL     1      10.197  -0.062  24.820  0.00  0.00    -0.048 S 
ATOM      9  C   UNL     1       9.629  -1.098  23.581  0.00  0.00    +0.095 A 
ATOM     10  C   UNL     1       9.753  -0.455  22.365  0.00  0.00    +0.133 A 
ATOM     11  N   UNL     1      10.182   0.855  22.423  0.00  0.00    -0.233 NA
BRANCH   5  12
ATOM     12  C   UNL     1      10.724   3.562  23.251  0.00  0.00    +0.069 C 
ATOM     13  C   UNL     1      11.997   4.401  23.274  0.00  0.00    +0.028 C 
BRANCH  12  14
ATOM     14  C   UNL     1       9.532   4.374  23.794  0.00  0.00    +0.018 C 
ATOM     15  C   UNL     1       9.765   5.881  23.757  0.00  0.00    +0.005 C 
ENDBRANCH  12  14
ENDBRANCH   5  12
ENDBRANCH   1   9
BRANCH   2  16
ATOM     16  C   UNL     1       7.047  -3.671  24.341  0.00  0.00    +0.037 A 
ATOM     17  C   UNL     1       7.057  -4.108  25.671  0.00  0.00    +0.036 A 
ATOM     18  C   UNL     1       6.319  -5.229  26.057  0.00  0.00    +0.038 A 
ATOM     19  C   UNL     1       5.620  -5.953  25.091  0.00  0.00    +0.013 A 
ATOM     20  C   UNL     1       5.642  -5.544  23.757  0.00  0.00    +0.006 A 
ATOM     21  C   UNL     1       6.358  -4.396  23.363  0.00  0.00    -0.029 A 
ATOM     22  C   UNL     1       6.245  -3.975  21.922  0.00  0.00    +0.045 C 
BRANCH  18  23
ATOM     23  C   UNL     1       6.254  -5.673  27.480  0.00  0.00    +0.244 C 
ATOM     24  N   UNL     1       4.995  -5.723  28.041  0.00  0.00    -0.314 N 
ATOM     25  H   UNL     1       4.181  -5.528  27.471  0.00  0.00    +0.149 HD
ATOM     26  C   UNL     1       4.764  -6.176  29.387  0.00  0.00    +0.128 C 
ATOM     27  O   UNL     1       7.277  -5.998  28.064  0.00  0.00    -0.270 OA
ENDBRANCH  18  23
ENDBRANCH   2  16
TORSDOF 5
ENDMDL
MODEL 5
REMARK VINA RESULT:      -6.5      4.247     10.479
REMARK  Name = 
REMARK  9 active torsions:
REMARK  status: ('A' for Active; 'I' for Inactive)
REMARK    1  A    between atoms: C_2  and  C_3
REMARK    2  A    between atoms: C_2  and  C_4
REMARK    3  A    between atoms: C_2  and  N_6
REMARK    4  A    between atoms: C_4  and  C_5
REMARK    5  A    between atoms: C_10  and  C_12
REMARK    6  A    between atoms: N_14  and  C_15
REMARK    7  A    between atoms: C_16  and  C_17
REMARK    8  A    between atoms: C_20  and  C_22
REMARK    9  A    between atoms: N_24  and  C_25
REMARK                            x       y       z     vdW  Elec       q    Type
REMARK                         _______ _______ _______ _____ _____    ______ ____
ROOT
ATOM      1  C   UNL     1       6.674  -4.505  23.655  0.00  0.00    +0.256 C 
ATOM      2  N   UNL     1       5.484  -4.328  24.351  0.00  0.00    -0.281 N 
ATOM      3  H   UNL     1       5.453  -3.531  24.968  0.00  0.00    +0.155 HD
ATOM      4  O   UNL     1       6.976  -5.542  23.074  0.00  0.00    -0.269 OA
ENDROOT
BRANCH   1   9
ATOM      5  N   UNL     1       8.934   0.107  23.602  0.00  0.00    -0.321 N 
ATOM      6  H   UNL     1       8.400   0.726  24.202  0.00  0.00    +0.148 HD
ATOM      7  C   UNL     1       8.676  -1.211  23.683  0.00  0.00    +0.159 A 
ATOM      8  S   UNL     1       7.043  -1.746  23.651  0.00  0.00    -0.048 S 
ATOM      9  C   UNL     1       7.573  -3.372  23.714  0.00  0.00    +0.095 A 
ATOM     10  C   UNL     1       8.948  -3.394  23.837  0.00  0.00    +0.133 A 
ATOM     11  N   UNL     1       9.572  -2.164  23.774  0.00  0.00    -0.233 NA
BRANCH   5  12
ATOM     12  C   UNL     1      10.247   0.577  23.195  0.00  0.00    +0.069 C 
ATOM     13  C   UNL     1      11.041   1.013  24.422  0.00  0.00    +0.028 C 
BRANCH  12  14
ATOM     14  C   UNL     1      10.067   1.757  22.220  0.00  0.00    +0.018 C 
ATOM     15  C   UNL     1       8.691   1.789  21.562  0.00  0.00    +0.005 C 
ENDBRANCH  12  14
ENDBRANCH   5  12
ENDBRANCH   1   9
BRANCH   2  16
ATOM     16  C   UNL     1       4.507  -5.331  24.511  0.00  0.00    +0.037 A 
ATOM     17  C   UNL     1       3.489  -5.452  23.557  0.00  0.00    +0.036 A 
ATOM     18  C   UNL     1       2.547  -6.479  23.650  0.00  0.00    +0.038 A 
ATOM     19  C   UNL     1       2.588  -7.348  24.742  0.00  0.00    +0.013 A 
ATOM     20  C   UNL     1       3.576  -7.202  25.716  0.00  0.00    +0.006 A 
ATOM     21  C   UNL     1       4.550  -6.189  25.614  0.00  0.00    -0.029 A 
ATOM     22  C   UNL     1       5.634  -6.168  26.659  0.00  0.00    +0.045 C 
BRANCH  18  23
ATOM     23  C   UNL     1       1.497  -6.676  22.609  0.00  0.00    +0.244 C 
ATOM     24  N   UNL     1       1.557  -7.861  21.906  0.00  0.00    -0.314 N 
ATOM     25  H   UNL     1       2.246  -8.560  22.155  0.00  0.00    +0.149 HD
ATOM     26  C   UNL     1       0.589  -8.217  20.903  0.00  0.00    +0.128 C 
ATOM     27  O   UNL     1       0.632  -5.828  22.447  0.00  0.00    -0.270 OA
ENDBRANCH  18  23
ENDBRANCH   2  16
TORSDOF 5
ENDMDL
MODEL 6
REMARK VINA RESULT:      -6.4      2.804      4.115
REMARK  Name = 
REMARK  9 active torsions:
REMARK  status: ('A' for Active; 'I' for Inactive)
REMARK    1  A    between atoms: C_2  and  C_3
REMARK    2  A    between atoms: C_2  and  C_4
REMARK    3  A    between atoms: C_2  and  N_6
REMARK    4  A    between atoms: C_4  and  C_5
REMARK    5  A    between atoms: C_10  and  C_12
REMARK    6  A    between atoms: N_14  and  C_15
REMARK    7  A    between atoms: C_16  and  C_17
REMARK    8  A    between atoms: C_20  and  C_22
REMARK    9  A    between atoms: N_24  and  C_25
REMARK                            x       y       z     vdW  Elec       q    Type
REMARK                         _______ _______ _______ _____ _____    ______ ____
ROOT
ATOM      1  C   UNL     1       8.375  -1.311  25.584  0.00  0.00    +0.256 C 
ATOM      2  N   UNL     1       7.935  -0.783  24.376  0.00  0.00    -0.281 N 
ATOM      3  H   UNL     1       7.261  -1.341  23.874  0.00  0.00    +0.155 HD
ATOM      4  O   UNL     1       9.363  -0.905  26.186  0.00  0.00    -0.269 OA
ENDROOT
BRANCH   1   9
ATOM      5  N   UNL     1       6.266  -5.894  26.551  0.00  0.00    -0.321 N 
ATOM      6  H   UNL     1       7.013  -6.545  26.768  0.00  0.00    +0.148 HD
ATOM      7  C   UNL     1       6.571  -4.584  26.531  0.00  0.00    +0.159 A 
ATOM      8  S   UNL     1       7.970  -4.064  25.679  0.00  0.00    -0.048 S 
ATOM      9  C   UNL     1       7.600  -2.437  26.060  0.00  0.00    +0.095 A 
ATOM     10  C   UNL     1       6.485  -2.407  26.875  0.00  0.00    +0.133 A 
ATOM     11  N   UNL     1       5.879  -3.627  27.102  0.00  0.00    -0.233 NA
BRANCH   5  12
ATOM     12  C   UNL     1       4.917  -6.333  26.862  0.00  0.00    +0.069 C 
ATOM     13  C   UNL     1       4.915  -7.095  28.183  0.00  0.00    +0.028 C 
BRANCH  12  14
ATOM     14  C   UNL     1       4.415  -7.234  25.718  0.00  0.00    +0.018 C 
ATOM     15  C   UNL     1       4.545  -6.587  24.342  0.00  0.00    +0.005 C 
ENDBRANCH  12  14
ENDBRANCH   5  12
ENDBRANCH   1   9
BRANCH   2  16
ATOM     16  C   UNL     1       8.594   0.249  23.680  0.00  0.00    +0.037 A 
ATOM     17  C   UNL     1       8.509   1.562  24.160  0.00  0.00    +0.036 A 
ATOM     18  C   UNL     1       9.208   2.595  23.532  0.00  0.00    +0.038 A 
ATOM     19  C   UNL     1       9.942   2.321  22.377  0.00  0.00    +0.013 A 
ATOM     20  C   UNL     1       9.993   1.022  21.872  0.00  0.00    +0.006 A 
ATOM     21  C   UNL     1       9.317  -0.034  22.517  0.00  0.00    -0.029 A 
ATOM     22  C   UNL     1       9.508  -1.418  21.957  0.00  0.00    +0.045 C 
BRANCH  18  23
ATOM     23  C   UNL     1       9.195   3.988  24.066  0.00  0.00    +0.244 C 
ATOM     24  N   UNL     1       9.760   4.951  23.257  0.00  0.00    -0.314 N 
ATOM     25  H   UNL     1      10.093   4.701  22.333  0.00  0.00    +0.149 HD
ATOM     26  C   UNL     1       9.781   6.345  23.610  0.00  0.00    +0.128 C 
ATOM     27  O   UNL     1       8.671   4.223  25.145  0.00  0.00    -0.270 OA
ENDBRANCH  18  23
ENDBRANCH   2  16
TORSDOF 5
ENDMDL
MODEL 7
REMARK VINA RESULT:      -6.3      3.414     10.005
REMARK  Name = 
REMARK  9 active torsions:
REMARK  status: ('A' for Active; 'I' for Inactive)
REMARK    1  A    between atoms: C_2  and  C_3
REMARK    2  A    between atoms: C_2  and  C_4
REMARK    3  A    between atoms: C_2  and  N_6
REMARK    4  A    between atoms: C_4  and  C_5
REMARK    5  A    between atoms: C_10  and  C_12
REMARK    6  A    between atoms: N_14  and  C_15
REMARK    7  A    between atoms: C_16  and  C_17
REMARK    8  A    between atoms: C_20  and  C_22
REMARK    9  A    between atoms: N_24  and  C_25
REMARK                            x       y       z     vdW  Elec       q    Type
REMARK                         _______ _______ _______ _____ _____    ______ ____
ROOT
ATOM      1  C   UNL     1       7.485  -3.024  23.491  0.00  0.00    +0.256 C 
ATOM      2  N   UNL     1       6.452  -3.101  24.418  0.00  0.00    -0.281 N 
ATOM      3  H   UNL     1       6.379  -2.324  25.057  0.00  0.00    +0.155 HD
ATOM      4  O   UNL     1       7.875  -3.976  22.824  0.00  0.00    -0.269 OA
ENDROOT
BRANCH   1   9
ATOM      5  N   UNL     1       9.699   1.535  24.334  0.00  0.00    -0.321 N 
ATOM      6  H   UNL     1      10.475   1.394  24.971  0.00  0.00    +0.148 HD
ATOM      7  C   UNL     1       9.152   0.441  23.771  0.00  0.00    +0.159 A 
ATOM      8  S   UNL     1       8.764  -0.906  24.767  0.00  0.00    -0.048 S 
ATOM      9  C   UNL     1       8.117  -1.724  23.410  0.00  0.00    +0.095 A 
ATOM     10  C   UNL     1       8.313  -0.952  22.282  0.00  0.00    +0.133 A 
ATOM     11  N   UNL     1       8.861   0.296  22.501  0.00  0.00    -0.233 NA
BRANCH   5  12
ATOM     12  C   UNL     1       9.643   2.818  23.656  0.00  0.00    +0.069 C 
ATOM     13  C   UNL     1      11.053   3.381  23.503  0.00  0.00    +0.028 C 
BRANCH  12  14
ATOM     14  C   UNL     1       8.766   3.776  24.484  0.00  0.00    +0.018 C 
ATOM     15  C   UNL     1       8.399   5.054  23.736  0.00  0.00    +0.005 C 
ENDBRANCH  12  14
ENDBRANCH   5  12
ENDBRANCH   1   9
BRANCH   2  16
ATOM     16  C   UNL     1       5.762  -4.288  24.733  0.00  0.00    +0.037 A 
ATOM     17  C   UNL     1       4.623  -4.634  23.997  0.00  0.00    +0.036 A 
ATOM     18  C   UNL     1       3.958  -5.838  24.240  0.00  0.00    +0.038 A 
ATOM     19  C   UNL     1       4.401  -6.668  25.271  0.00  0.00    +0.013 A 
ATOM     20  C   UNL     1       5.512  -6.305  26.033  0.00  0.00    +0.006 A 
ATOM     21  C   UNL     1       6.208  -5.107  25.776  0.00  0.00    -0.029 A 
ATOM     22  C   UNL     1       7.451  -4.846  26.584  0.00  0.00    +0.045 C 
BRANCH  18  23
ATOM     23  C   UNL     1       2.786  -6.265  23.422  0.00  0.00    +0.244 C 
ATOM     24  N   UNL     1       2.486  -7.611  23.451  0.00  0.00    -0.314 N 
ATOM     25  H   UNL     1       3.011  -8.231  24.056  0.00  0.00    +0.149 HD
ATOM     26  C   UNL     1       1.359  -8.169  22.753  0.00  0.00    +0.128 C 
ATOM     27  O   UNL     1       2.136  -5.433  22.807  0.00  0.00    -0.270 OA
ENDBRANCH  18  23
ENDBRANCH   2  16
TORSDOF 5
ENDMDL
MODEL 8
REMARK VINA RESULT:      -6.1      3.007      9.009
REMARK  Name = 
REMARK  9 active torsions:
REMARK  status: ('A' for Active; 'I' for Inactive)
REMARK    1  A    between atoms: C_2  and  C_3
REMARK    2  A    between atoms: C_2  and  C_4
REMARK    3  A    between atoms: C_2  and  N_6
REMARK    4  A    between atoms: C_4  and  C_5
REMARK    5  A    between atoms: C_10  and  C_12
REMARK    6  A    between atoms: N_14  and  C_15
REMARK    7  A    between atoms: C_16  and  C_17
REMARK    8  A    between atoms: C_20  and  C_22
REMARK    9  A    between atoms: N_24  and  C_25
REMARK                            x       y       z     vdW  Elec       q    Type
REMARK                         _______ _______ _______ _____ _____    ______ ____
ROOT
ATOM      1  C   UNL     1       7.927  -0.042  24.680  0.00  0.00    +0.256 C 
ATOM      2  N   UNL     1       6.557  -0.221  24.534  0.00  0.00    -0.281 N 
ATOM      3  H   UNL     1       6.005   0.623  24.522  0.00  0.00    +0.155 HD
ATOM      4  O   UNL     1       8.706  -0.945  24.970  0.00  0.00    -0.269 OA
ENDROOT
BRANCH   1   9
ATOM      5  N   UNL     1      10.234   4.355  23.362  0.00  0.00    -0.321 N 
ATOM      6  H   UNL     1      10.227   4.423  22.351  0.00  0.00    +0.148 HD
ATOM      7  C   UNL     1       9.448   3.420  23.927  0.00  0.00    +0.159 A 
ATOM      8  S   UNL     1       9.475   1.818  23.303  0.00  0.00    -0.048 S 
ATOM      9  C   UNL     1       8.371   1.326  24.515  0.00  0.00    +0.095 A 
ATOM     10  C   UNL     1       7.996   2.428  25.258  0.00  0.00    +0.133 A 
ATOM     11  N   UNL     1       8.645   3.606  24.947  0.00  0.00    -0.233 NA
BRANCH   5  12
ATOM     12  C   UNL     1      10.576   5.565  24.088  0.00  0.00    +0.069 C 
ATOM     13  C   UNL     1       9.578   6.668  23.751  0.00  0.00    +0.028 C 
BRANCH  12  14
ATOM     14  C   UNL     1      12.004   5.989  23.693  0.00  0.00    +0.018 C 
ATOM     15  C   UNL     1      12.869   4.824  23.222  0.00  0.00    +0.005 C 
ENDBRANCH  12  14
ENDBRANCH   5  12
ENDBRANCH   1   9
BRANCH   2  16
ATOM     16  C   UNL     1       5.894  -1.445  24.746  0.00  0.00    +0.037 A 
ATOM     17  C   UNL     1       5.749  -2.339  23.679  0.00  0.00    +0.036 A 
ATOM     18  C   UNL     1       5.159  -3.591  23.874  0.00  0.00    +0.038 A 
ATOM     19  C   UNL     1       4.652  -3.918  25.132  0.00  0.00    +0.013 A 
ATOM     20  C   UNL     1       4.757  -3.012  26.187  0.00  0.00    +0.006 A 
ATOM     21  C   UNL     1       5.379  -1.760  26.008  0.00  0.00    -0.029 A 
ATOM     22  C   UNL     1       5.534  -0.888  27.225  0.00  0.00    +0.045 C 
BRANCH  18  23
ATOM     23  C   UNL     1       5.059  -4.590  22.771  0.00  0.00    +0.244 C 
ATOM     24  N   UNL     1       6.194  -4.765  22.008  0.00  0.00    -0.314 N 
ATOM     25  H   UNL     1       7.046  -4.275  22.253  0.00  0.00    +0.149 HD
ATOM     26  C   UNL     1       6.269  -5.725  20.939  0.00  0.00    +0.128 C 
ATOM     27  O   UNL     1       4.024  -5.221  22.612  0.00  0.00    -0.270 OA
ENDBRANCH  18  23
ENDBRANCH   2  16
TORSDOF 5
ENDMDL
MODEL 9
REMARK VINA RESULT:      -6.1      3.105      9.641
REMARK  Name = 
REMARK  9 active torsions:
REMARK  status: ('A' for Active; 'I' for Inactive)
REMARK    1  A    between atoms: C_2  and  C_3
REMARK    2  A    between atoms: C_2  and  C_4
REMARK    3  A    between atoms: C_2  and  N_6
REMARK    4  A    between atoms: C_4  and  C_5
REMARK    5  A    between atoms: C_10  and  C_12
REMARK    6  A    between atoms: N_14  and  C_15
REMARK    7  A    between atoms: C_16  and  C_17
REMARK    8  A    between atoms: C_20  and  C_22
REMARK    9  A    between atoms: N_24  and  C_25
REMARK                            x       y       z     vdW  Elec       q    Type
REMARK                         _______ _______ _______ _____ _____    ______ ____
ROOT
ATOM      1  C   UNL     1       6.804  -1.545  24.287  0.00  0.00    +0.256 C 
ATOM      2  N   UNL     1       7.267  -2.804  23.923  0.00  0.00    -0.281 N 
ATOM      3  H   UNL     1       8.073  -2.814  23.316  0.00  0.00    +0.155 HD
ATOM      4  O   UNL     1       5.706  -1.342  24.794  0.00  0.00    -0.269 OA
ENDROOT
BRANCH   1   9
ATOM      5  N   UNL     1      10.046   2.440  24.270  0.00  0.00    -0.321 N 
ATOM      6  H   UNL     1      10.809   2.227  24.903  0.00  0.00    +0.148 HD
ATOM      7  C   UNL     1       9.230   1.429  23.920  0.00  0.00    +0.159 A 
ATOM      8  S   UNL     1       8.611   0.393  25.143  0.00  0.00    -0.048 S 
ATOM      9  C   UNL     1       7.709  -0.461  23.966  0.00  0.00    +0.095 A 
ATOM     10  C   UNL     1       8.003   0.048  22.716  0.00  0.00    +0.133 A 
ATOM     11  N   UNL     1       8.834   1.150  22.701  0.00  0.00    -0.233 NA
BRANCH   5  12
ATOM     12  C   UNL     1      10.241   3.572  23.381  0.00  0.00    +0.069 C 
ATOM     13  C   UNL     1      11.719   3.946  23.341  0.00  0.00    +0.028 C 
BRANCH  12  14
ATOM     14  C   UNL     1       9.398   4.754  23.895  0.00  0.00    +0.018 C 
ATOM     15  C   UNL     1      10.227   5.999  24.196  0.00  0.00    +0.005 C 
ENDBRANCH  12  14
ENDBRANCH   5  12
ENDBRANCH   1   9
BRANCH   2  16
ATOM     16  C   UNL     1       6.516  -3.988  24.050  0.00  0.00    +0.037 A 
ATOM     17  C   UNL     1       6.403  -4.595  25.307  0.00  0.00    +0.036 A 
ATOM     18  C   UNL     1       5.607  -5.730  25.479  0.00  0.00    +0.038 A 
ATOM     19  C   UNL     1       4.976  -6.297  24.371  0.00  0.00    +0.013 A 
ATOM     20  C   UNL     1       5.121  -5.718  23.110  0.00  0.00    +0.006 A 
ATOM     21  C   UNL     1       5.896  -4.555  22.932  0.00  0.00    -0.029 A 
ATOM     22  C   UNL     1       5.916  -3.945  21.556  0.00  0.00    +0.045 C 
BRANCH  18  23
ATOM     23  C   UNL     1       5.411  -6.354  26.820  0.00  0.00    +0.244 C 
ATOM     24  N   UNL     1       6.371  -6.065  27.767  0.00  0.00    -0.314 N 
ATOM     25  H   UNL     1       7.114  -5.411  27.549  0.00  0.00    +0.149 HD
ATOM     26  C   UNL     1       6.298  -6.552  29.119  0.00  0.00    +0.128 C 
ATOM     27  O   UNL     1       4.425  -7.043  27.034  0.00  0.00    -0.270 OA
ENDBRANCH  18  23
ENDBRANCH   2  16
TORSDOF 5
ENDMDL
