MODEL 1
REMARK VINA RESULT:      -5.8      0.000      0.000
REMARK  Name = 
REMARK  3 active torsions:
REMARK  status: ('A' for Active; 'I' for Inactive)
REMARK    1  A    between atoms: C_1  and  C_2
REMARK    2  A    between atoms: C_2  and  C_3
REMARK    3  A    between atoms: C_4  and  C_5
REMARK                            x       y       z     vdW  Elec       q    Type
REMARK                         _______ _______ _______ _____ _____    ______ ____
ROOT
ATOM      1  C   UNL     1       8.659  -3.738  24.340  0.00  0.00    +0.039 A 
ATOM      2  C   UNL     1       8.492  -4.340  25.700  0.00  0.00    +0.278 A 
ATOM      3  O   UNL     1       9.278  -4.164  26.613  0.00  0.00    -0.265 OA
ATOM      4  N   UNL     1       7.299  -5.051  25.654  0.00  0.00    -0.183 N 
ATOM      5  C   UNL     1       6.790  -5.774  26.698  0.00  0.00    +0.269 A 
ATOM      6  N   UNL     1       5.647  -6.513  26.592  0.00  0.00    -0.223 N 
ATOM      7  H   UNL     1       5.052  -6.658  25.789  0.00  0.00    +0.194 HD
ATOM      8  N   UNL     1       5.343  -7.083  27.762  0.00  0.00    -0.045 NA
ATOM      9  N   UNL     1       6.320  -6.716  28.580  0.00  0.00    -0.021 NA
ATOM     10  N   UNL     1       7.225  -5.906  27.933  0.00  0.00    -0.088 NA
ATOM     11  N   UNL     1       6.733  -4.968  24.376  0.00  0.00    -0.292 N 
ATOM     12  H   UNL     1       5.781  -4.599  24.372  0.00  0.00    +0.187 HD
ATOM     13  C   UNL     1       7.570  -4.126  23.647  0.00  0.00    +0.039 A 
ATOM     14  C   UNL     1       7.161  -3.701  22.277  0.00  0.00    +0.065 C 
ENDROOT
BRANCH   1  16
ATOM     15  C   UNL     1       9.470  -1.357  24.403  0.00  0.00    +0.009 C 
ATOM     16  C   UNL     1       9.767  -2.801  24.019  0.00  0.00    +0.039 C 
ENDBRANCH   1  16
TORSDOF 1
ENDMDL
MODEL 2
REMARK VINA RESULT:      -5.7      3.020      4.274
REMARK  Name = 
REMARK  3 active torsions:
REMARK  status: ('A' for Active; 'I' for Inactive)
REMARK    1  A    between atoms: C_1  and  C_2
REMARK    2  A    between atoms: C_2  and  C_3
REMARK    3  A    between atoms: C_4  and  C_5
REMARK                            x       y       z     vdW  Elec       q    Type
REMARK                         _______ _______ _______ _____ _____    ______ ____
ROOT
ATOM      1  C   UNL     1       8.807  -0.316  22.487  0.00  0.00    +0.039 A 
ATOM      2  C   UNL     1       9.533  -1.559  22.898  0.00  0.00    +0.278 A 
ATOM      3  O   UNL     1      10.595  -1.906  22.415  0.00  0.00    -0.265 OA
ATOM      4  N   UNL     1       8.763  -2.130  23.904  0.00  0.00    -0.183 N 
ATOM      5  C   UNL     1       9.069  -3.303  24.539  0.00  0.00    +0.269 A 
ATOM      6  N   UNL     1       8.253  -3.866  25.476  0.00  0.00    -0.223 N 
ATOM      7  H   UNL     1       7.353  -3.552  25.811  0.00  0.00    +0.194 HD
ATOM      8  N   UNL     1       8.802  -4.979  25.974  0.00  0.00    -0.045 NA
ATOM      9  N   UNL     1       9.945  -5.114  25.316  0.00  0.00    -0.021 NA
ATOM     10  N   UNL     1      10.122  -4.083  24.421  0.00  0.00    -0.088 NA
ATOM     11  N   UNL     1       7.610  -1.368  24.127  0.00  0.00    -0.292 N 
ATOM     12  H   UNL     1       7.505  -1.055  25.092  0.00  0.00    +0.187 HD
ATOM     13  C   UNL     1       7.719  -0.266  23.280  0.00  0.00    +0.039 A 
ATOM     14  C   UNL     1       6.716   0.834  23.386  0.00  0.00    +0.065 C 
ENDROOT
BRANCH   1  16
ATOM     15  C   UNL     1      10.091   1.821  22.152  0.00  0.00    +0.009 C 
ATOM     16  C   UNL     1       9.373   0.645  21.504  0.00  0.00    +0.039 C 
ENDBRANCH   1  16
TORSDOF 1
ENDMDL
MODEL 3
REMARK VINA RESULT:      -5.5      1.925      3.053
REMARK  Name = 
REMARK  3 active torsions:
REMARK  status: ('A' for Active; 'I' for Inactive)
REMARK    1  A    between atoms: C_1  and  C_2
REMARK    2  A    between atoms: C_2  and  C_3
REMARK    3  A    between atoms: C_4  and  C_5
REMARK                            x       y       z     vdW  Elec       q    Type
REMARK                         _______ _______ _______ _____ _____    ______ ____
ROOT
ATOM      1  C   UNL     1       6.263  -4.662  23.443  0.00  0.00    +0.039 A 
ATOM      2  C   UNL     1       5.678  -5.560  24.487  0.00  0.00    +0.278 A 
ATOM      3  O   UNL     1       4.709  -6.271  24.295  0.00  0.00    -0.265 OA
ATOM      4  N   UNL     1       6.482  -5.405  25.610  0.00  0.00    -0.183 N 
ATOM      5  C   UNL     1       6.274  -6.042  26.803  0.00  0.00    +0.269 A 
ATOM      6  N   UNL     1       7.048  -5.813  27.903  0.00  0.00    -0.223 N 
ATOM      7  H   UNL     1       7.821  -5.174  28.019  0.00  0.00    +0.194 HD
ATOM      8  N   UNL     1       6.666  -6.593  28.920  0.00  0.00    -0.045 NA
ATOM      9  N   UNL     1       5.633  -7.278  28.450  0.00  0.00    -0.021 NA
ATOM     10  N   UNL     1       5.378  -6.945  27.139  0.00  0.00    -0.088 NA
ATOM     11  N   UNL     1       7.490  -4.467  25.361  0.00  0.00    -0.292 N 
ATOM     12  H   UNL     1       8.433  -4.827  25.513  0.00  0.00    +0.187 HD
ATOM     13  C   UNL     1       7.335  -4.094  24.027  0.00  0.00    +0.039 A 
ATOM     14  C   UNL     1       8.360  -3.212  23.395  0.00  0.00    +0.065 C 
ENDROOT
BRANCH   1  16
ATOM     15  C   UNL     1       6.399  -5.664  21.139  0.00  0.00    +0.009 C 
ATOM     16  C   UNL     1       5.749  -4.629  22.048  0.00  0.00    +0.039 C 
ENDBRANCH   1  16
TORSDOF 1
ENDMDL
MODEL 4
REMARK VINA RESULT:      -5.4      2.651      4.040
REMARK  Name = 
REMARK  3 active torsions:
REMARK  status: ('A' for Active; 'I' for Inactive)
REMARK    1  A    between atoms: C_1  and  C_2
REMARK    2  A    between atoms: C_2  and  C_3
REMARK    3  A    between atoms: C_4  and  C_5
REMARK                            x       y       z     vdW  Elec       q    Type
REMARK                         _______ _______ _______ _____ _____    ______ ____
ROOT
ATOM      1  C   UNL     1       9.470  -0.777  22.974  0.00  0.00    +0.039 A 
ATOM      2  C   UNL     1       8.810  -2.097  23.228  0.00  0.00    +0.278 A 
ATOM      3  O   UNL     1       8.288  -2.764  22.356  0.00  0.00    -0.265 OA
ATOM      4  N   UNL     1       8.973  -2.344  24.586  0.00  0.00    -0.183 N 
ATOM      5  C   UNL     1       8.490  -3.448  25.234  0.00  0.00    +0.269 A 
ATOM      6  N   UNL     1       8.613  -3.622  26.581  0.00  0.00    -0.223 N 
ATOM      7  H   UNL     1       9.024  -3.008  27.270  0.00  0.00    +0.194 HD
ATOM      8  N   UNL     1       8.101  -4.800  26.954  0.00  0.00    -0.045 NA
ATOM      9  N   UNL     1       7.633  -5.333  25.834  0.00  0.00    -0.021 NA
ATOM     10  N   UNL     1       7.866  -4.505  24.760  0.00  0.00    -0.088 NA
ATOM     11  N   UNL     1       9.645  -1.279  25.198  0.00  0.00    -0.292 N 
ATOM     12  H   UNL     1      10.495  -1.557  25.688  0.00  0.00    +0.187 HD
ATOM     13  C   UNL     1       9.960  -0.392  24.169  0.00  0.00    +0.039 A 
ATOM     14  C   UNL     1      10.825   0.787  24.464  0.00  0.00    +0.065 C 
ENDROOT
BRANCH   1  16
ATOM     15  C   UNL     1       8.876   1.107  21.417  0.00  0.00    +0.009 C 
ATOM     16  C   UNL     1       9.612  -0.212  21.606  0.00  0.00    +0.039 C 
ENDBRANCH   1  16
TORSDOF 1
ENDMDL
MODEL 5
REMARK VINA RESULT:      -5.2      3.796      4.501
REMARK  Name = 
REMARK  3 active torsions:
REMARK  status: ('A' for Active; 'I' for Inactive)
REMARK    1  A    between atoms: C_1  and  C_2
REMARK    2  A    between atoms: C_2  and  C_3
REMARK    3  A    between atoms: C_4  and  C_5
REMARK                            x       y       z     vdW  Elec       q    Type
REMARK                         _______ _______ _______ _____ _____    ______ ____
ROOT
ATOM      1  C   UNL     1       8.841  -0.993  24.018  0.00  0.00    +0.039 A 
ATOM      2  C   UNL     1       8.836  -2.434  23.614  0.00  0.00    +0.278 A 
ATOM      3  O   UNL     1       9.718  -3.217  23.910  0.00  0.00    -0.265 OA
ATOM      4  N   UNL     1       7.652  -2.624  22.912  0.00  0.00    -0.183 N 
ATOM      5  C   UNL     1       7.271  -3.811  22.346  0.00  0.00    +0.269 A 
ATOM      6  N   UNL     1       6.131  -3.940  21.608  0.00  0.00    -0.223 N 
ATOM      7  H   UNL     1       5.449  -3.238  21.356  0.00  0.00    +0.194 HD
ATOM      8  N   UNL     1       5.967  -5.206  21.210  0.00  0.00    -0.045 NA
ATOM      9  N   UNL     1       7.028  -5.847  21.680  0.00  0.00    -0.021 NA
ATOM     10  N   UNL     1       7.846  -4.994  22.385  0.00  0.00    -0.088 NA
ATOM     11  N   UNL     1       6.942  -1.421  22.819  0.00  0.00    -0.292 N 
ATOM     12  H   UNL     1       5.993  -1.474  23.190  0.00  0.00    +0.187 HD
ATOM     13  C   UNL     1       7.684  -0.490  23.545  0.00  0.00    +0.039 A 
ATOM     14  C   UNL     1       7.117   0.870  23.776  0.00  0.00    +0.065 C 
ENDROOT
BRANCH   1  16
ATOM     15  C   UNL     1      10.798   0.579  24.180  0.00  0.00    +0.009 C 
ATOM     16  C   UNL     1       9.897  -0.419  24.893  0.00  0.00    +0.039 C 
ENDBRANCH   1  16
TORSDOF 1
ENDMDL
MODEL 6
REMARK VINA RESULT:      -5.2      4.022      6.185
REMARK  Name = 
REMARK  3 active torsions:
REMARK  status: ('A' for Active; 'I' for Inactive)
REMARK    1  A    between atoms: C_1  and  C_2
REMARK    2  A    between atoms: C_2  and  C_3
REMARK    3  A    between atoms: C_4  and  C_5
REMARK                            x       y       z     vdW  Elec       q    Type
REMARK                         _______ _______ _______ _____ _____    ______ ____
ROOT
ATOM      1  C   UNL     1       7.811  -4.382  23.504  0.00  0.00    +0.039 A 
ATOM      2  C   UNL     1       7.817  -3.055  22.812  0.00  0.00    +0.278 A 
ATOM      3  O   UNL     1       7.002  -2.735  21.968  0.00  0.00    -0.265 OA
ATOM      4  N   UNL     1       8.877  -2.347  23.365  0.00  0.00    -0.183 N 
ATOM      5  C   UNL     1       9.243  -1.083  22.988  0.00  0.00    +0.269 A 
ATOM      6  N   UNL     1      10.332  -0.446  23.510  0.00  0.00    -0.223 N 
ATOM      7  H   UNL     1      11.005  -0.781  24.184  0.00  0.00    +0.194 HD
ATOM      8  N   UNL     1      10.441   0.789  23.010  0.00  0.00    -0.045 NA
ATOM      9  N   UNL     1       9.433   0.896  22.155  0.00  0.00    -0.021 NA
ATOM     10  N   UNL     1       8.684  -0.257  22.130  0.00  0.00    -0.088 NA
ATOM     11  N   UNL     1       9.545  -3.131  24.313  0.00  0.00    -0.292 N 
ATOM     12  H   UNL     1       9.599  -2.702  25.237  0.00  0.00    +0.187 HD
ATOM     13  C   UNL     1       8.827  -4.324  24.387  0.00  0.00    +0.039 A 
ATOM     14  C   UNL     1       9.189  -5.327  25.430  0.00  0.00    +0.065 C 
ENDROOT
BRANCH   1  16
ATOM     15  C   UNL     1       6.948  -6.203  21.998  0.00  0.00    +0.009 C 
ATOM     16  C   UNL     1       6.745  -5.392  23.271  0.00  0.00    +0.039 C 
ENDBRANCH   1  16
TORSDOF 1
ENDMDL
MODEL 7
REMARK VINA RESULT:      -5.2      2.337      3.375
REMARK  Name = 
REMARK  3 active torsions:
REMARK  status: ('A' for Active; 'I' for Inactive)
REMARK    1  A    between atoms: C_1  and  C_2
REMARK    2  A    between atoms: C_2  and  C_3
REMARK    3  A    between atoms: C_4  and  C_5
REMARK                            x       y       z     vdW  Elec       q    Type
REMARK                         _______ _______ _______ _____ _____    ______ ____
ROOT
ATOM      1  C   UNL     1       9.631  -0.364  24.474  0.00  0.00    +0.039 A 
ATOM      2  C   UNL     1       9.180  -1.243  25.598  0.00  0.00    +0.278 A 
ATOM      3  O   UNL     1       9.034  -0.850  26.740  0.00  0.00    -0.265 OA
ATOM      4  N   UNL     1       8.961  -2.494  25.033  0.00  0.00    -0.183 N 
ATOM      5  C   UNL     1       8.557  -3.598  25.734  0.00  0.00    +0.269 A 
ATOM      6  N   UNL     1       8.417  -4.826  25.154  0.00  0.00    -0.223 N 
ATOM      7  H   UNL     1       8.595  -5.106  24.201  0.00  0.00    +0.194 HD
ATOM      8  N   UNL     1       7.968  -5.719  26.043  0.00  0.00    -0.045 NA
ATOM      9  N   UNL     1       7.864  -5.042  27.178  0.00  0.00    -0.021 NA
ATOM     10  N   UNL     1       8.228  -3.726  27.002  0.00  0.00    -0.088 NA
ATOM     11  N   UNL     1       9.269  -2.473  23.668  0.00  0.00    -0.292 N 
ATOM     12  H   UNL     1       8.496  -2.764  23.068  0.00  0.00    +0.187 HD
ATOM     13  C   UNL     1       9.618  -1.154  23.382  0.00  0.00    +0.039 A 
ATOM     14  C   UNL     1       9.853  -0.755  21.963  0.00  0.00    +0.065 C 
ENDROOT
BRANCH   1  16
ATOM     15  C   UNL     1       8.580   1.919  24.589  0.00  0.00    +0.009 C 
ATOM     16  C   UNL     1       9.859   1.094  24.651  0.00  0.00    +0.039 C 
ENDBRANCH   1  16
TORSDOF 1
ENDMDL
MODEL 8
REMARK VINA RESULT:      -5.2      7.940      9.558
REMARK  Name = 
REMARK  3 active torsions:
REMARK  status: ('A' for Active; 'I' for Inactive)
REMARK    1  A    between atoms: C_1  and  C_2
REMARK    2  A    between atoms: C_2  and  C_3
REMARK    3  A    between atoms: C_4  and  C_5
REMARK                            x       y       z     vdW  Elec       q    Type
REMARK                         _______ _______ _______ _____ _____    ______ ____
ROOT
ATOM      1  C   UNL     1       8.912   1.583  23.678  0.00  0.00    +0.039 A 
ATOM      2  C   UNL     1       8.483   2.958  24.087  0.00  0.00    +0.278 A 
ATOM      3  O   UNL     1       8.440   3.330  25.244  0.00  0.00    -0.265 OA
ATOM      4  N   UNL     1       8.211   3.634  22.904  0.00  0.00    -0.183 N 
ATOM      5  C   UNL     1       7.764   4.926  22.839  0.00  0.00    +0.269 A 
ATOM      6  N   UNL     1       7.444   5.535  21.660  0.00  0.00    -0.223 N 
ATOM      7  H   UNL     1       7.459   5.159  20.722  0.00  0.00    +0.194 HD
ATOM      8  N   UNL     1       7.080   6.804  21.867  0.00  0.00    -0.045 NA
ATOM      9  N   UNL     1       7.147   6.964  23.181  0.00  0.00    -0.021 NA
ATOM     10  N   UNL     1       7.568   5.807  23.797  0.00  0.00    -0.088 NA
ATOM     11  N   UNL     1       8.401   2.790  21.805  0.00  0.00    -0.292 N 
ATOM     12  H   UNL     1       9.066   3.150  21.120  0.00  0.00    +0.187 HD
ATOM     13  C   UNL     1       8.870   1.587  22.331  0.00  0.00    +0.039 A 
ATOM     14  C   UNL     1       9.324   0.513  21.400  0.00  0.00    +0.065 C 
ENDROOT
BRANCH   1  16
ATOM     15  C   UNL     1      10.922   0.534  24.770  0.00  0.00    +0.009 C 
ATOM     16  C   UNL     1       9.404   0.581  24.660  0.00  0.00    +0.039 C 
ENDBRANCH   1  16
TORSDOF 1
ENDMDL
MODEL 9
REMARK VINA RESULT:      -5.1      2.297      2.943
REMARK  Name = 
REMARK  3 active torsions:
REMARK  status: ('A' for Active; 'I' for Inactive)
REMARK    1  A    between atoms: C_1  and  C_2
REMARK    2  A    between atoms: C_2  and  C_3
REMARK    3  A    between atoms: C_4  and  C_5
REMARK                            x       y       z     vdW  Elec       q    Type
REMARK                         _______ _______ _______ _____ _____    ______ ____
ROOT
ATOM      1  C   UNL     1       5.895  -5.430  23.895  0.00  0.00    +0.039 A 
ATOM      2  C   UNL     1       6.522  -5.458  25.253  0.00  0.00    +0.278 A 
ATOM      3  O   UNL     1       7.608  -4.969  25.501  0.00  0.00    -0.265 OA
ATOM      4  N   UNL     1       5.605  -6.098  26.078  0.00  0.00    -0.183 N 
ATOM      5  C   UNL     1       5.806  -6.349  27.408  0.00  0.00    +0.269 A 
ATOM      6  N   UNL     1       4.908  -7.038  28.170  0.00  0.00    -0.223 N 
ATOM      7  H   UNL     1       4.033  -7.463  27.898  0.00  0.00    +0.194 HD
ATOM      8  N   UNL     1       5.319  -7.106  29.440  0.00  0.00    -0.045 NA
ATOM      9  N   UNL     1       6.489  -6.482  29.449  0.00  0.00    -0.021 NA
ATOM     10  N   UNL     1       6.804  -6.010  28.195  0.00  0.00    -0.088 NA
ATOM     11  N   UNL     1       4.482  -6.495  25.342  0.00  0.00    -0.292 N 
ATOM     12  H   UNL     1       3.602  -6.128  25.706  0.00  0.00    +0.187 HD
ATOM     13  C   UNL     1       4.694  -6.022  24.048  0.00  0.00    +0.039 A 
ATOM     14  C   UNL     1       3.600  -6.144  23.041  0.00  0.00    +0.065 C 
ENDROOT
BRANCH   1  16
ATOM     15  C   UNL     1       7.037  -5.658  21.665  0.00  0.00    +0.009 C 
ATOM     16  C   UNL     1       6.521  -4.721  22.747  0.00  0.00    +0.039 C 
ENDBRANCH   1  16
TORSDOF 1
ENDMDL
