MODEL 1
REMARK VINA RESULT:      -7.4      0.000      0.000
REMARK  Name = 
REMARK  11 active torsions:
REMARK  status: ('A' for Active; 'I' for Inactive)
REMARK    1  A    between atoms: N_8  and  C_9
REMARK    2  A    between atoms: C_12  and  C_14
REMARK    3  A    between atoms: C_14  and  O_15
REMARK    4  A    between atoms: O_15  and  P_16
REMARK    5  A    between atoms: P_16  and  O_17
REMARK    6  A    between atoms: P_16  and  C_19
REMARK    7  A    between atoms: C_19  and  P_20
REMARK    8  A    between atoms: P_20  and  O_21
REMARK    9  A    between atoms: P_20  and  O_22
REMARK   10  A    between atoms: C_24  and  O_26
REMARK   11  A    between atoms: C_27  and  O_29
REMARK                            x       y       z     vdW  Elec       q    Type
REMARK                         _______ _______ _______ _____ _____    ______ ____
ROOT
ATOM      1  C   UNL     1       8.102  -5.200  25.965  0.00  0.00    +0.253 C 
ATOM      2  C   UNL     1       9.231  -5.034  24.928  0.00  0.00    +0.195 C 
ATOM      3  C   UNL     1       9.308  -3.525  24.667  0.00  0.00    +0.178 C 
ATOM      4  C   UNL     1       8.224  -2.948  25.572  0.00  0.00    +0.178 C 
ATOM      5  O   UNL     1       8.039  -3.911  26.621  0.00  0.00    -0.346 OA
ENDROOT
BRANCH   1  17
ATOM      6  N   UNL     1       4.515  -7.386  29.126  0.00  0.00    -0.329 N 
ATOM      7  H   UNL     1       3.592  -7.545  29.507  0.00  0.00    +0.145 HD
ATOM      8  H   UNL     1       5.190  -6.955  29.748  0.00  0.00    +0.145 HD
ATOM      9  C   UNL     1       4.643  -7.000  27.843  0.00  0.00    +0.195 A 
ATOM     10  N   UNL     1       3.602  -7.298  26.983  0.00  0.00    -0.293 N 
ATOM     11  H   UNL     1       2.812  -7.813  27.328  0.00  0.00    +0.172 HD
ATOM     12  C   UNL     1       3.563  -6.987  25.629  0.00  0.00    +0.280 A 
ATOM     13  O   UNL     1       2.605  -7.283  24.921  0.00  0.00    -0.265 OA
ATOM     14  C   UNL     1       4.767  -6.308  25.199  0.00  0.00    +0.172 A 
ATOM     15  N   UNL     1       5.138  -5.857  23.966  0.00  0.00    -0.229 NA
ATOM     16  C   UNL     1       6.346  -5.373  24.146  0.00  0.00    +0.203 A 
ATOM     17  N   UNL     1       6.784  -5.521  25.445  0.00  0.00    -0.285 N 
ATOM     18  C   UNL     1       5.744  -6.065  26.142  0.00  0.00    +0.171 A 
ATOM     19  N   UNL     1       5.723  -6.359  27.462  0.00  0.00    -0.196 NA
ENDBRANCH   1  17
BRANCH   2  20
ATOM     20  O   UNL     1      10.488  -5.474  25.490  0.00  0.00    -0.385 OA
ATOM     21  H   UNL     1      10.846  -6.183  24.926  0.00  0.00    +0.210 HD
ENDBRANCH   2  20
BRANCH   3  22
ATOM     22  O   UNL     1       9.057  -3.214  23.300  0.00  0.00    -0.386 OA
ATOM     23  H   UNL     1       8.198  -3.618  23.064  0.00  0.00    +0.210 HD
ENDBRANCH   3  22
BRANCH   4  24
ATOM     24  C   UNL     1       8.558  -1.579  26.122  0.00  0.00    +0.204 C 
BRANCH  24  25
ATOM     25  O   UNL     1       9.602  -1.051  25.321  0.00  0.00    -0.305 OA
BRANCH  25  26
ATOM     26  P   UNL     1       9.187   0.422  24.515  0.00  0.00    +0.342 P 
ATOM     27  O   UNL     1       9.405  -0.284  23.174  0.00  0.00    -0.258 OA
BRANCH  26  28
ATOM     28  O   UNL     1      10.693   0.977  24.872  0.00  0.00    -0.324 OA
ATOM     29  H   UNL     1      11.320   0.231  24.748  0.00  0.00    +0.220 HD
ENDBRANCH  26  28
BRANCH  26  30
ATOM     30  C   UNL     1       8.747   1.981  23.662  0.00  0.00    +0.253 C 
BRANCH  30  31
ATOM     31  P   UNL     1      10.251   2.996  23.433  0.00  0.00    +0.339 P 
ATOM     32  O   UNL     1      11.525   3.855  23.239  0.00  0.00    -0.258 OA
BRANCH  31  33
ATOM     33  O   UNL     1       9.213   4.209  23.023  0.00  0.00    -0.324 OA
ATOM     34  H   UNL     1       8.770   4.557  23.817  0.00  0.00    +0.220 HD
ENDBRANCH  31  33
BRANCH  31  35
ATOM     35  O   UNL     1      10.295   2.305  21.932  0.00  0.00    -0.324 OA
ATOM     36  H   UNL     1      10.810   1.474  21.964  0.00  0.00    +0.220 HD
ENDBRANCH  31  35
ENDBRANCH  30  31
ENDBRANCH  26  30
ENDBRANCH  25  26
ENDBRANCH  24  25
ENDBRANCH   4  24
TORSDOF 11
ENDMDL
MODEL 2
REMARK VINA RESULT:      -7.2      4.192      8.059
REMARK  Name = 
REMARK  11 active torsions:
REMARK  status: ('A' for Active; 'I' for Inactive)
REMARK    1  A    between atoms: N_8  and  C_9
REMARK    2  A    between atoms: C_12  and  C_14
REMARK    3  A    between atoms: C_14  and  O_15
REMARK    4  A    between atoms: O_15  and  P_16
REMARK    5  A    between atoms: P_16  and  O_17
REMARK    6  A    between atoms: P_16  and  C_19
REMARK    7  A    between atoms: C_19  and  P_20
REMARK    8  A    between atoms: P_20  and  O_21
REMARK    9  A    between atoms: P_20  and  O_22
REMARK   10  A    between atoms: C_24  and  O_26
REMARK   11  A    between atoms: C_27  and  O_29
REMARK                            x       y       z     vdW  Elec       q    Type
REMARK                         _______ _______ _______ _____ _____    ______ ____
ROOT
ATOM      1  C   UNL     1       7.295  -3.294  23.389  0.00  0.00    +0.253 C 
ATOM      2  C   UNL     1       7.771  -4.749  23.198  0.00  0.00    +0.195 C 
ATOM      3  C   UNL     1       8.118  -5.240  24.608  0.00  0.00    +0.178 C 
ATOM      4  C   UNL     1       7.811  -4.036  25.493  0.00  0.00    +0.178 C 
ATOM      5  O   UNL     1       6.851  -3.252  24.767  0.00  0.00    -0.346 OA
ENDROOT
BRANCH   1  17
ATOM      6  N   UNL     1       5.749   1.684  22.713  0.00  0.00    -0.329 N 
ATOM      7  H   UNL     1       5.793   2.688  22.818  0.00  0.00    +0.145 HD
ATOM      8  H   UNL     1       4.964   1.221  23.157  0.00  0.00    +0.145 HD
ATOM      9  C   UNL     1       6.886   0.965  22.744  0.00  0.00    +0.195 A 
ATOM     10  N   UNL     1       8.063   1.623  22.435  0.00  0.00    -0.293 N 
ATOM     11  H   UNL     1       8.029   2.591  22.168  0.00  0.00    +0.172 HD
ATOM     12  C   UNL     1       9.325   1.044  22.407  0.00  0.00    +0.280 A 
ATOM     13  O   UNL     1      10.330   1.687  22.122  0.00  0.00    -0.265 OA
ATOM     14  C   UNL     1       9.276  -0.365  22.736  0.00  0.00    +0.172 A 
ATOM     15  N   UNL     1      10.273  -1.296  22.799  0.00  0.00    -0.229 NA
ATOM     16  C   UNL     1       9.653  -2.417  23.091  0.00  0.00    +0.203 A 
ATOM     17  N   UNL     1       8.288  -2.253  23.189  0.00  0.00    -0.285 N 
ATOM     18  C   UNL     1       8.048  -0.920  23.025  0.00  0.00    +0.171 A 
ATOM     19  N   UNL     1       6.843  -0.305  23.072  0.00  0.00    -0.196 NA
ENDBRANCH   1  17
BRANCH   2  20
ATOM     20  O   UNL     1       6.695  -5.558  22.673  0.00  0.00    -0.385 OA
ATOM     21  H   UNL     1       5.938  -4.977  22.479  0.00  0.00    +0.210 HD
ENDBRANCH   2  20
BRANCH   3  22
ATOM     22  O   UNL     1       9.485  -5.620  24.711  0.00  0.00    -0.386 OA
ATOM     23  H   UNL     1       9.513  -6.598  24.731  0.00  0.00    +0.210 HD
ENDBRANCH   3  22
BRANCH   4  24
ATOM     24  C   UNL     1       7.304  -4.408  26.869  0.00  0.00    +0.204 C 
BRANCH  24  25
ATOM     25  O   UNL     1       7.007  -5.793  26.844  0.00  0.00    -0.305 OA
BRANCH  25  26
ATOM     26  P   UNL     1       5.364  -6.147  26.435  0.00  0.00    +0.342 P 
ATOM     27  O   UNL     1       4.930  -4.916  27.233  0.00  0.00    -0.258 OA
BRANCH  26  28
ATOM     28  O   UNL     1       5.389  -7.322  27.585  0.00  0.00    -0.324 OA
ATOM     29  H   UNL     1       4.834  -7.015  28.334  0.00  0.00    +0.220 HD
ENDBRANCH  26  28
BRANCH  26  30
ATOM     30  C   UNL     1       3.626  -6.522  26.001  0.00  0.00    +0.253 C 
BRANCH  30  31
ATOM     31  P   UNL     1       3.356  -6.193  24.222  0.00  0.00    +0.339 P 
ATOM     32  O   UNL     1       3.127  -5.915  22.716  0.00  0.00    -0.258 OA
BRANCH  31  33
ATOM     33  O   UNL     1       4.525  -7.326  23.968  0.00  0.00    -0.324 OA
ATOM     34  H   UNL     1       4.886  -7.637  24.818  0.00  0.00    +0.220 HD
ENDBRANCH  31  33
BRANCH  31  35
ATOM     35  O   UNL     1       4.398  -4.933  24.460  0.00  0.00    -0.324 OA
ATOM     36  H   UNL     1       3.914  -4.086  24.404  0.00  0.00    +0.220 HD
ENDBRANCH  31  35
ENDBRANCH  30  31
ENDBRANCH  26  30
ENDBRANCH  25  26
ENDBRANCH  24  25
ENDBRANCH   4  24
TORSDOF 11
ENDMDL
MODEL 3
REMARK VINA RESULT:      -7.0      1.198      2.507
REMARK  Name = 
REMARK  11 active torsions:
REMARK  status: ('A' for Active; 'I' for Inactive)
REMARK    1  A    between atoms: N_8  and  C_9
REMARK    2  A    between atoms: C_12  and  C_14
REMARK    3  A    between atoms: C_14  and  O_15
REMARK    4  A    between atoms: O_15  and  P_16
REMARK    5  A    between atoms: P_16  and  O_17
REMARK    6  A    between atoms: P_16  and  C_19
REMARK    7  A    between atoms: C_19  and  P_20
REMARK    8  A    between atoms: P_20  and  O_21
REMARK    9  A    between atoms: P_20  and  O_22
REMARK   10  A    between atoms: C_24  and  O_26
REMARK   11  A    between atoms: C_27  and  O_29
REMARK                            x       y       z     vdW  Elec       q    Type
REMARK                         _______ _______ _______ _____ _____    ______ ____
ROOT
ATOM      1  C   UNL     1       7.868  -5.137  26.246  0.00  0.00    +0.253 C 
ATOM      2  C   UNL     1       8.932  -5.040  25.134  0.00  0.00    +0.195 C 
ATOM      3  C   UNL     1       9.042  -3.543  24.822  0.00  0.00    +0.178 C 
ATOM      4  C   UNL     1       8.039  -2.902  25.777  0.00  0.00    +0.178 C 
ATOM      5  O   UNL     1       7.890  -3.828  26.864  0.00  0.00    -0.346 OA
ENDROOT
BRANCH   1  17
ATOM      6  N   UNL     1       6.833  -5.862  21.143  0.00  0.00    -0.329 N 
ATOM      7  H   UNL     1       6.387  -6.285  20.341  0.00  0.00    +0.145 HD
ATOM      8  H   UNL     1       7.831  -6.015  21.236  0.00  0.00    +0.145 HD
ATOM      9  C   UNL     1       6.182  -5.828  22.321  0.00  0.00    +0.195 A 
ATOM     10  N   UNL     1       4.802  -5.919  22.286  0.00  0.00    -0.293 N 
ATOM     11  H   UNL     1       4.335  -5.971  21.399  0.00  0.00    +0.172 HD
ATOM     12  C   UNL     1       3.967  -5.892  23.396  0.00  0.00    +0.280 A 
ATOM     13  O   UNL     1       2.747  -5.977  23.294  0.00  0.00    -0.265 OA
ATOM     14  C   UNL     1       4.714  -5.746  24.627  0.00  0.00    +0.172 A 
ATOM     15  N   UNL     1       4.285  -5.654  25.920  0.00  0.00    -0.229 NA
ATOM     16  C   UNL     1       5.385  -5.480  26.617  0.00  0.00    +0.203 A 
ATOM     17  N   UNL     1       6.509  -5.426  25.821  0.00  0.00    -0.285 N 
ATOM     18  C   UNL     1       6.088  -5.661  24.544  0.00  0.00    +0.171 A 
ATOM     19  N   UNL     1       6.864  -5.724  23.437  0.00  0.00    -0.196 NA
ENDBRANCH   1  17
BRANCH   2  20
ATOM     20  O   UNL     1      10.208  -5.508  25.627  0.00  0.00    -0.385 OA
ATOM     21  H   UNL     1      10.213  -5.424  26.597  0.00  0.00    +0.210 HD
ENDBRANCH   2  20
BRANCH   3  22
ATOM     22  O   UNL     1       8.714  -3.262  23.466  0.00  0.00    -0.386 OA
ATOM     23  H   UNL     1       8.819  -2.299  23.335  0.00  0.00    +0.210 HD
ENDBRANCH   3  22
BRANCH   4  24
ATOM     24  C   UNL     1       8.454  -1.531  26.261  0.00  0.00    +0.204 C 
BRANCH  24  25
ATOM     25  O   UNL     1       9.480  -1.075  25.397  0.00  0.00    -0.305 OA
BRANCH  25  26
ATOM     26  P   UNL     1       9.079   0.369  24.535  0.00  0.00    +0.342 P 
ATOM     27  O   UNL     1       9.377  -0.364  23.225  0.00  0.00    -0.258 OA
BRANCH  26  28
ATOM     28  O   UNL     1      10.554   0.962  24.952  0.00  0.00    -0.324 OA
ATOM     29  H   UNL     1      11.215   0.571  24.339  0.00  0.00    +0.220 HD
ENDBRANCH  26  28
BRANCH  26  30
ATOM     30  C   UNL     1       8.653   1.898  23.623  0.00  0.00    +0.253 C 
BRANCH  30  31
ATOM     31  P   UNL     1      10.154   2.923  23.416  0.00  0.00    +0.339 P 
ATOM     32  O   UNL     1      11.424   3.791  23.242  0.00  0.00    -0.258 OA
BRANCH  31  33
ATOM     33  O   UNL     1       9.117   4.118  22.955  0.00  0.00    -0.324 OA
ATOM     34  H   UNL     1       8.248   3.742  22.726  0.00  0.00    +0.220 HD
ENDBRANCH  31  33
BRANCH  31  35
ATOM     35  O   UNL     1      10.246   2.205  21.931  0.00  0.00    -0.324 OA
ATOM     36  H   UNL     1       9.385   1.801  21.703  0.00  0.00    +0.220 HD
ENDBRANCH  31  35
ENDBRANCH  30  31
ENDBRANCH  26  30
ENDBRANCH  25  26
ENDBRANCH  24  25
ENDBRANCH   4  24
TORSDOF 11
ENDMDL
MODEL 4
REMARK VINA RESULT:      -7.0      2.092      3.221
REMARK  Name = 
REMARK  11 active torsions:
REMARK  status: ('A' for Active; 'I' for Inactive)
REMARK    1  A    between atoms: N_8  and  C_9
REMARK    2  A    between atoms: C_12  and  C_14
REMARK    3  A    between atoms: C_14  and  O_15
REMARK    4  A    between atoms: O_15  and  P_16
REMARK    5  A    between atoms: P_16  and  O_17
REMARK    6  A    between atoms: P_16  and  C_19
REMARK    7  A    between atoms: C_19  and  P_20
REMARK    8  A    between atoms: P_20  and  O_21
REMARK    9  A    between atoms: P_20  and  O_22
REMARK   10  A    between atoms: C_24  and  O_26
REMARK   11  A    between atoms: C_27  and  O_29
REMARK                            x       y       z     vdW  Elec       q    Type
REMARK                         _______ _______ _______ _____ _____    ______ ____
ROOT
ATOM      1  C   UNL     1       7.027  -4.633  23.594  0.00  0.00    +0.253 C 
ATOM      2  C   UNL     1       5.985  -3.570  23.190  0.00  0.00    +0.195 C 
ATOM      3  C   UNL     1       6.794  -2.287  22.971  0.00  0.00    +0.178 C 
ATOM      4  C   UNL     1       8.230  -2.714  23.262  0.00  0.00    +0.178 C 
ATOM      5  O   UNL     1       8.268  -4.132  23.041  0.00  0.00    -0.346 OA
ENDROOT
BRANCH   1  17
ATOM      6  N   UNL     1       3.489  -7.458  26.265  0.00  0.00    -0.329 N 
ATOM      7  H   UNL     1       3.167  -8.125  26.953  0.00  0.00    +0.145 HD
ATOM      8  H   UNL     1       3.355  -7.715  25.293  0.00  0.00    +0.145 HD
ATOM      9  C   UNL     1       4.626  -6.775  26.489  0.00  0.00    +0.195 A 
ATOM     10  N   UNL     1       5.039  -6.639  27.802  0.00  0.00    -0.293 N 
ATOM     11  H   UNL     1       4.469  -7.019  28.537  0.00  0.00    +0.172 HD
ATOM     12  C   UNL     1       6.177  -5.963  28.222  0.00  0.00    +0.280 A 
ATOM     13  O   UNL     1       6.484  -5.880  29.407  0.00  0.00    -0.265 OA
ATOM     14  C   UNL     1       6.901  -5.389  27.108  0.00  0.00    +0.172 A 
ATOM     15  N   UNL     1       8.041  -4.638  27.084  0.00  0.00    -0.229 NA
ATOM     16  C   UNL     1       8.213  -4.347  25.815  0.00  0.00    +0.203 A 
ATOM     17  N   UNL     1       7.210  -4.855  25.018  0.00  0.00    -0.285 N 
ATOM     18  C   UNL     1       6.397  -5.582  25.840  0.00  0.00    +0.171 A 
ATOM     19  N   UNL     1       5.297  -6.280  25.474  0.00  0.00    -0.196 NA
ENDBRANCH   1  17
BRANCH   2  20
ATOM     20  O   UNL     1       5.355  -3.943  21.943  0.00  0.00    -0.385 OA
ATOM     21  H   UNL     1       4.408  -4.097  22.110  0.00  0.00    +0.210 HD
ENDBRANCH   2  20
BRANCH   3  22
ATOM     22  O   UNL     1       6.378  -1.246  23.848  0.00  0.00    -0.386 OA
ATOM     23  H   UNL     1       7.116  -1.076  24.466  0.00  0.00    +0.210 HD
ENDBRANCH   3  22
BRANCH   4  24
ATOM     24  C   UNL     1       9.260  -1.989  22.424  0.00  0.00    +0.204 C 
BRANCH  24  25
ATOM     25  O   UNL     1       8.623  -0.849  21.874  0.00  0.00    -0.305 OA
BRANCH  25  26
ATOM     26  P   UNL     1       9.476   0.630  22.151  0.00  0.00    +0.342 P 
ATOM     27  O   UNL     1       8.497   0.950  23.282  0.00  0.00    -0.258 OA
BRANCH  26  28
ATOM     28  O   UNL     1       8.711   1.253  20.835  0.00  0.00    -0.324 OA
ATOM     29  H   UNL     1       7.744   1.164  20.985  0.00  0.00    +0.220 HD
ENDBRANCH  26  28
BRANCH  26  30
ATOM     30  C   UNL     1      10.380   2.195  22.444  0.00  0.00    +0.253 C 
BRANCH  30  31
ATOM     31  P   UNL     1       9.462   3.212  23.656  0.00  0.00    +0.339 P 
ATOM     32  O   UNL     1       8.684   4.072  24.682  0.00  0.00    -0.258 OA
BRANCH  31  33
ATOM     33  O   UNL     1       8.506   3.635  22.382  0.00  0.00    -0.324 OA
ATOM     34  H   UNL     1       8.776   4.501  22.029  0.00  0.00    +0.220 HD
ENDBRANCH  31  33
BRANCH  31  35
ATOM     35  O   UNL     1      10.635   4.337  23.361  0.00  0.00    -0.324 OA
ATOM     36  H   UNL     1      10.351   5.210  23.697  0.00  0.00    +0.220 HD
ENDBRANCH  31  35
ENDBRANCH  30  31
ENDBRANCH  26  30
ENDBRANCH  25  26
ENDBRANCH  24  25
ENDBRANCH   4  24
TORSDOF 11
ENDMDL
MODEL 5
REMARK VINA RESULT:      -6.7      1.982      2.732
REMARK  Name = 
REMARK  11 active torsions:
REMARK  status: ('A' for Active; 'I' for Inactive)
REMARK    1  A    between atoms: N_8  and  C_9
REMARK    2  A    between atoms: C_12  and  C_14
REMARK    3  A    between atoms: C_14  and  O_15
REMARK    4  A    between atoms: O_15  and  P_16
REMARK    5  A    between atoms: P_16  and  O_17
REMARK    6  A    between atoms: P_16  and  C_19
REMARK    7  A    between atoms: C_19  and  P_20
REMARK    8  A    between atoms: P_20  and  O_21
REMARK    9  A    between atoms: P_20  and  O_22
REMARK   10  A    between atoms: C_24  and  O_26
REMARK   11  A    between atoms: C_27  and  O_29
REMARK                            x       y       z     vdW  Elec       q    Type
REMARK                         _______ _______ _______ _____ _____    ______ ____
ROOT
ATOM      1  C   UNL     1       6.036  -5.867  23.507  0.00  0.00    +0.253 C 
ATOM      2  C   UNL     1       6.092  -5.418  22.033  0.00  0.00    +0.195 C 
ATOM      3  C   UNL     1       6.450  -3.929  22.086  0.00  0.00    +0.178 C 
ATOM      4  C   UNL     1       6.575  -3.643  23.580  0.00  0.00    +0.178 C 
ATOM      5  O   UNL     1       6.872  -4.906  24.195  0.00  0.00    -0.346 OA
ENDROOT
BRANCH   1  17
ATOM      6  N   UNL     1       5.546  -7.469  28.490  0.00  0.00    -0.329 N 
ATOM      7  H   UNL     1       5.182  -7.460  29.432  0.00  0.00    +0.145 HD
ATOM      8  H   UNL     1       6.525  -7.228  28.384  0.00  0.00    +0.145 HD
ATOM      9  C   UNL     1       4.772  -7.036  27.478  0.00  0.00    +0.195 A 
ATOM     10  N   UNL     1       3.402  -7.057  27.671  0.00  0.00    -0.293 N 
ATOM     11  H   UNL     1       3.033  -7.420  28.531  0.00  0.00    +0.172 HD
ATOM     12  C   UNL     1       2.453  -6.658  26.739  0.00  0.00    +0.280 A 
ATOM     13  O   UNL     1       1.250  -6.703  26.975  0.00  0.00    -0.265 OA
ATOM     14  C   UNL     1       3.065  -6.214  25.504  0.00  0.00    +0.172 A 
ATOM     15  N   UNL     1       2.501  -5.769  24.344  0.00  0.00    -0.229 NA
ATOM     16  C   UNL     1       3.522  -5.557  23.545  0.00  0.00    +0.203 A 
ATOM     17  N   UNL     1       4.726  -5.876  24.135  0.00  0.00    -0.285 N 
ATOM     18  C   UNL     1       4.441  -6.239  25.420  0.00  0.00    +0.171 A 
ATOM     19  N   UNL     1       5.331  -6.607  26.370  0.00  0.00    -0.196 NA
ENDBRANCH   1  17
BRANCH   2  20
ATOM     20  O   UNL     1       7.144  -6.126  21.339  0.00  0.00    -0.385 OA
ATOM     21  H   UNL     1       7.797  -5.477  21.023  0.00  0.00    +0.210 HD
ENDBRANCH   2  20
BRANCH   3  22
ATOM     22  O   UNL     1       5.441  -3.123  21.489  0.00  0.00    -0.386 OA
ATOM     23  H   UNL     1       5.812  -2.224  21.384  0.00  0.00    +0.210 HD
ENDBRANCH   3  22
BRANCH   4  24
ATOM     24  C   UNL     1       7.617  -2.598  23.913  0.00  0.00    +0.204 C 
BRANCH  24  25
ATOM     25  O   UNL     1       8.024  -2.010  22.690  0.00  0.00    -0.305 OA
BRANCH  25  26
ATOM     26  P   UNL     1       9.157  -0.717  22.879  0.00  0.00    +0.342 P 
ATOM     27  O   UNL     1       8.001   0.277  22.742  0.00  0.00    -0.258 OA
BRANCH  26  28
ATOM     28  O   UNL     1       9.606  -0.955  21.315  0.00  0.00    -0.324 OA
ATOM     29  H   UNL     1      10.431  -0.444  21.163  0.00  0.00    +0.220 HD
ENDBRANCH  26  28
BRANCH  26  30
ATOM     30  C   UNL     1      10.356   0.651  23.080  0.00  0.00    +0.253 C 
BRANCH  30  31
ATOM     31  P   UNL     1       9.467   2.250  23.060  0.00  0.00    +0.339 P 
ATOM     32  O   UNL     1       8.713   3.602  23.043  0.00  0.00    -0.258 OA
BRANCH  31  33
ATOM     33  O   UNL     1       9.706   2.214  21.430  0.00  0.00    -0.324 OA
ATOM     34  H   UNL     1       9.624   3.110  21.056  0.00  0.00    +0.220 HD
ENDBRANCH  31  33
BRANCH  31  35
ATOM     35  O   UNL     1      10.943   2.894  23.428  0.00  0.00    -0.324 OA
ATOM     36  H   UNL     1      10.852   3.537  24.159  0.00  0.00    +0.220 HD
ENDBRANCH  31  35
ENDBRANCH  30  31
ENDBRANCH  26  30
ENDBRANCH  25  26
ENDBRANCH  24  25
ENDBRANCH   4  24
TORSDOF 11
ENDMDL
MODEL 6
REMARK VINA RESULT:      -6.6      2.345      3.706
REMARK  Name = 
REMARK  11 active torsions:
REMARK  status: ('A' for Active; 'I' for Inactive)
REMARK    1  A    between atoms: N_8  and  C_9
REMARK    2  A    between atoms: C_12  and  C_14
REMARK    3  A    between atoms: C_14  and  O_15
REMARK    4  A    between atoms: O_15  and  P_16
REMARK    5  A    between atoms: P_16  and  O_17
REMARK    6  A    between atoms: P_16  and  C_19
REMARK    7  A    between atoms: C_19  and  P_20
REMARK    8  A    between atoms: P_20  and  O_21
REMARK    9  A    between atoms: P_20  and  O_22
REMARK   10  A    between atoms: C_24  and  O_26
REMARK   11  A    between atoms: C_27  and  O_29
REMARK                            x       y       z     vdW  Elec       q    Type
REMARK                         _______ _______ _______ _____ _____    ______ ____
ROOT
ATOM      1  C   UNL     1       8.826  -2.291  23.253  0.00  0.00    +0.253 C 
ATOM      2  C   UNL     1       9.015  -1.420  21.994  0.00  0.00    +0.195 C 
ATOM      3  C   UNL     1       8.848   0.023  22.484  0.00  0.00    +0.178 C 
ATOM      4  C   UNL     1       8.582  -0.133  23.978  0.00  0.00    +0.178 C 
ATOM      5  O   UNL     1       9.152  -1.398  24.346  0.00  0.00    -0.346 OA
ENDROOT
BRANCH   1  17
ATOM      6  N   UNL     1       8.066  -5.859  27.037  0.00  0.00    -0.329 N 
ATOM      7  H   UNL     1       7.574  -6.314  27.794  0.00  0.00    +0.145 HD
ATOM      8  H   UNL     1       8.934  -5.396  27.280  0.00  0.00    +0.145 HD
ATOM      9  C   UNL     1       7.365  -5.222  26.081  0.00  0.00    +0.195 A 
ATOM     10  N   UNL     1       6.050  -5.608  25.894  0.00  0.00    -0.293 N 
ATOM     11  H   UNL     1       5.676  -6.360  26.444  0.00  0.00    +0.172 HD
ATOM     12  C   UNL     1       5.181  -5.070  24.953  0.00  0.00    +0.280 A 
ATOM     13  O   UNL     1       4.023  -5.461  24.839  0.00  0.00    -0.265 OA
ATOM     14  C   UNL     1       5.818  -4.042  24.159  0.00  0.00    +0.172 A 
ATOM     15  N   UNL     1       5.334  -3.290  23.128  0.00  0.00    -0.229 NA
ATOM     16  C   UNL     1       6.358  -2.559  22.749  0.00  0.00    +0.203 A 
ATOM     17  N   UNL     1       7.496  -2.831  23.476  0.00  0.00    -0.285 N 
ATOM     18  C   UNL     1       7.136  -3.740  24.429  0.00  0.00    +0.171 A 
ATOM     19  N   UNL     1       7.937  -4.269  25.382  0.00  0.00    -0.196 NA
ENDBRANCH   1  17
BRANCH   2  20
ATOM     20  O   UNL     1      10.353  -1.584  21.474  0.00  0.00    -0.385 OA
ATOM     21  H   UNL     1      10.351  -1.336  20.532  0.00  0.00    +0.210 HD
ENDBRANCH   2  20
BRANCH   3  22
ATOM     22  O   UNL     1       7.765   0.679  21.833  0.00  0.00    -0.386 OA
ATOM     23  H   UNL     1       7.944   1.640  21.868  0.00  0.00    +0.210 HD
ENDBRANCH   3  22
BRANCH   4  24
ATOM     24  C   UNL     1       9.139   0.997  24.815  0.00  0.00    +0.204 C 
BRANCH  24  25
ATOM     25  O   UNL     1       9.551   2.016  23.920  0.00  0.00    -0.305 OA
BRANCH  25  26
ATOM     26  P   UNL     1       8.723   3.518  24.143  0.00  0.00    +0.342 P 
ATOM     27  O   UNL     1      10.079   4.222  24.214  0.00  0.00    -0.258 OA
BRANCH  26  28
ATOM     28  O   UNL     1       8.468   3.082  25.708  0.00  0.00    -0.324 OA
ATOM     29  H   UNL     1       8.140   3.875  26.186  0.00  0.00    +0.220 HD
ENDBRANCH  26  28
BRANCH  26  30
ATOM     30  C   UNL     1       7.846   5.107  24.378  0.00  0.00    +0.253 C 
BRANCH  30  31
ATOM     31  P   UNL     1       7.486   5.853  22.746  0.00  0.00    +0.339 P 
ATOM     32  O   UNL     1       7.181   6.484  21.366  0.00  0.00    -0.258 OA
BRANCH  31  33
ATOM     33  O   UNL     1       7.836   4.364  22.134  0.00  0.00    -0.324 OA
ATOM     34  H   UNL     1       8.683   4.386  21.654  0.00  0.00    +0.220 HD
ENDBRANCH  31  33
BRANCH  31  35
ATOM     35  O   UNL     1       9.053   6.373  22.817  0.00  0.00    -0.324 OA
ATOM     36  H   UNL     1       9.353   6.646  21.927  0.00  0.00    +0.220 HD
ENDBRANCH  31  35
ENDBRANCH  30  31
ENDBRANCH  26  30
ENDBRANCH  25  26
ENDBRANCH  24  25
ENDBRANCH   4  24
TORSDOF 11
ENDMDL
MODEL 7
REMARK VINA RESULT:      -6.5      5.046      8.672
REMARK  Name = 
REMARK  11 active torsions:
REMARK  status: ('A' for Active; 'I' for Inactive)
REMARK    1  A    between atoms: N_8  and  C_9
REMARK    2  A    between atoms: C_12  and  C_14
REMARK    3  A    between atoms: C_14  and  O_15
REMARK    4  A    between atoms: O_15  and  P_16
REMARK    5  A    between atoms: P_16  and  O_17
REMARK    6  A    between atoms: P_16  and  C_19
REMARK    7  A    between atoms: C_19  and  P_20
REMARK    8  A    between atoms: P_20  and  O_21
REMARK    9  A    between atoms: P_20  and  O_22
REMARK   10  A    between atoms: C_24  and  O_26
REMARK   11  A    between atoms: C_27  and  O_29
REMARK                            x       y       z     vdW  Elec       q    Type
REMARK                         _______ _______ _______ _____ _____    ______ ____
ROOT
ATOM      1  C   UNL     1       8.323   0.673  22.346  0.00  0.00    +0.253 C 
ATOM      2  C   UNL     1       9.761   0.139  22.188  0.00  0.00    +0.195 C 
ATOM      3  C   UNL     1      10.071  -0.562  23.515  0.00  0.00    +0.178 C 
ATOM      4  C   UNL     1       8.790  -0.380  24.325  0.00  0.00    +0.178 C 
ATOM      5  O   UNL     1       7.745  -0.182  23.361  0.00  0.00    -0.346 OA
ENDROOT
BRANCH   1  17
ATOM      6  N   UNL     1       3.593   2.964  22.268  0.00  0.00    -0.329 N 
ATOM      7  H   UNL     1       2.849   3.560  22.602  0.00  0.00    +0.145 HD
ATOM      8  H   UNL     1       3.405   1.968  22.270  0.00  0.00    +0.145 HD
ATOM      9  C   UNL     1       4.869   3.271  22.562  0.00  0.00    +0.195 A 
ATOM     10  N   UNL     1       5.151   4.590  22.870  0.00  0.00    -0.293 N 
ATOM     11  H   UNL     1       4.414   5.271  22.833  0.00  0.00    +0.172 HD
ATOM     12  C   UNL     1       6.406   5.091  23.189  0.00  0.00    +0.280 A 
ATOM     13  O   UNL     1       6.586   6.276  23.452  0.00  0.00    -0.265 OA
ATOM     14  C   UNL     1       7.421   4.060  23.153  0.00  0.00    +0.172 A 
ATOM     15  N   UNL     1       8.766   4.130  23.376  0.00  0.00    -0.229 NA
ATOM     16  C   UNL     1       9.197   2.909  23.156  0.00  0.00    +0.203 A 
ATOM     17  N   UNL     1       8.186   2.055  22.770  0.00  0.00    -0.285 N 
ATOM     18  C   UNL     1       7.029   2.778  22.829  0.00  0.00    +0.171 A 
ATOM     19  N   UNL     1       5.782   2.328  22.557  0.00  0.00    -0.196 NA
ENDBRANCH   1  17
BRANCH   2  20
ATOM     20  O   UNL     1       9.814  -0.836  21.122  0.00  0.00    -0.385 OA
ATOM     21  H   UNL     1       8.973  -0.803  20.632  0.00  0.00    +0.210 HD
ENDBRANCH   2  20
BRANCH   3  22
ATOM     22  O   UNL     1      11.186   0.027  24.175  0.00  0.00    -0.386 OA
ATOM     23  H   UNL     1      10.836   0.709  24.782  0.00  0.00    +0.210 HD
ENDBRANCH   3  22
BRANCH   4  24
ATOM     24  C   UNL     1       8.488  -1.536  25.251  0.00  0.00    +0.204 C 
BRANCH  24  25
ATOM     25  O   UNL     1       9.024  -2.703  24.651  0.00  0.00    -0.305 OA
BRANCH  25  26
ATOM     26  P   UNL     1       7.837  -3.901  24.270  0.00  0.00    +0.342 P 
ATOM     27  O   UNL     1       8.953  -4.946  24.208  0.00  0.00    -0.258 OA
BRANCH  26  28
ATOM     28  O   UNL     1       7.816  -3.314  22.734  0.00  0.00    -0.324 OA
ATOM     29  H   UNL     1       8.590  -3.693  22.262  0.00  0.00    +0.220 HD
ENDBRANCH  26  28
BRANCH  26  30
ATOM     30  C   UNL     1       6.579  -5.169  23.868  0.00  0.00    +0.253 C 
BRANCH  30  31
ATOM     31  P   UNL     1       6.232  -5.137  22.072  0.00  0.00    +0.339 P 
ATOM     32  O   UNL     1       5.939  -5.108  20.552  0.00  0.00    -0.258 OA
BRANCH  31  33
ATOM     33  O   UNL     1       5.086  -6.273  22.404  0.00  0.00    -0.324 OA
ATOM     34  H   UNL     1       4.859  -6.258  23.351  0.00  0.00    +0.220 HD
ENDBRANCH  31  33
BRANCH  31  35
ATOM     35  O   UNL     1       7.493  -6.201  21.971  0.00  0.00    -0.324 OA
ATOM     36  H   UNL     1       8.228  -5.900  22.542  0.00  0.00    +0.220 HD
ENDBRANCH  31  35
ENDBRANCH  30  31
ENDBRANCH  26  30
ENDBRANCH  25  26
ENDBRANCH  24  25
ENDBRANCH   4  24
TORSDOF 11
ENDMDL
MODEL 8
REMARK VINA RESULT:      -6.5      2.608      4.201
REMARK  Name = 
REMARK  11 active torsions:
REMARK  status: ('A' for Active; 'I' for Inactive)
REMARK    1  A    between atoms: N_8  and  C_9
REMARK    2  A    between atoms: C_12  and  C_14
REMARK    3  A    between atoms: C_14  and  O_15
REMARK    4  A    between atoms: O_15  and  P_16
REMARK    5  A    between atoms: P_16  and  O_17
REMARK    6  A    between atoms: P_16  and  C_19
REMARK    7  A    between atoms: C_19  and  P_20
REMARK    8  A    between atoms: P_20  and  O_21
REMARK    9  A    between atoms: P_20  and  O_22
REMARK   10  A    between atoms: C_24  and  O_26
REMARK   11  A    between atoms: C_27  and  O_29
REMARK                            x       y       z     vdW  Elec       q    Type
REMARK                         _______ _______ _______ _____ _____    ______ ____
ROOT
ATOM      1  C   UNL     1       9.628  -2.433  23.741  0.00  0.00    +0.253 C 
ATOM      2  C   UNL     1       9.045  -1.844  22.440  0.00  0.00    +0.195 C 
ATOM      3  C   UNL     1       8.506  -0.465  22.839  0.00  0.00    +0.178 C 
ATOM      4  C   UNL     1       8.824  -0.371  24.328  0.00  0.00    +0.178 C 
ATOM      5  O   UNL     1       9.923  -1.269  24.549  0.00  0.00    -0.346 OA
ENDROOT
BRANCH   1  17
ATOM      6  N   UNL     1       6.257  -5.575  21.211  0.00  0.00    -0.329 N 
ATOM      7  H   UNL     1       5.738  -6.424  21.036  0.00  0.00    +0.145 HD
ATOM      8  H   UNL     1       6.956  -5.325  20.521  0.00  0.00    +0.145 HD
ATOM      9  C   UNL     1       6.610  -5.263  22.472  0.00  0.00    +0.195 A 
ATOM     10  N   UNL     1       5.867  -5.822  23.497  0.00  0.00    -0.293 N 
ATOM     11  H   UNL     1       5.080  -6.404  23.272  0.00  0.00    +0.172 HD
ATOM     12  C   UNL     1       6.079  -5.608  24.853  0.00  0.00    +0.280 A 
ATOM     13  O   UNL     1       5.380  -6.135  25.712  0.00  0.00    -0.265 OA
ATOM     14  C   UNL     1       7.186  -4.705  25.087  0.00  0.00    +0.172 A 
ATOM     15  N   UNL     1       7.704  -4.220  26.253  0.00  0.00    -0.229 NA
ATOM     16  C   UNL     1       8.659  -3.404  25.871  0.00  0.00    +0.203 A 
ATOM     17  N   UNL     1       8.761  -3.318  24.500  0.00  0.00    -0.285 N 
ATOM     18  C   UNL     1       7.856  -4.204  23.991  0.00  0.00    +0.171 A 
ATOM     19  N   UNL     1       7.633  -4.467  22.682  0.00  0.00    -0.196 NA
ENDBRANCH   1  17
BRANCH   2  20
ATOM     20  O   UNL     1      10.094  -1.669  21.461  0.00  0.00    -0.385 OA
ATOM     21  H   UNL     1      10.532  -0.815  21.628  0.00  0.00    +0.210 HD
ENDBRANCH   2  20
BRANCH   3  22
ATOM     22  O   UNL     1       7.106  -0.359  22.603  0.00  0.00    -0.386 OA
ATOM     23  H   UNL     1       6.654  -0.567  23.445  0.00  0.00    +0.210 HD
ENDBRANCH   3  22
BRANCH   4  24
ATOM     24  C   UNL     1       9.144   1.031  24.794  0.00  0.00    +0.204 C 
BRANCH  24  25
ATOM     25  O   UNL     1       9.028   1.882  23.666  0.00  0.00    -0.305 OA
BRANCH  25  26
ATOM     26  P   UNL     1       8.099   3.310  23.961  0.00  0.00    +0.342 P 
ATOM     27  O   UNL     1       8.139   2.993  25.458  0.00  0.00    -0.258 OA
BRANCH  26  28
ATOM     28  O   UNL     1       6.769   2.483  23.460  0.00  0.00    -0.324 OA
ATOM     29  H   UNL     1       6.603   2.729  22.523  0.00  0.00    +0.220 HD
ENDBRANCH  26  28
BRANCH  26  30
ATOM     30  C   UNL     1       7.116   4.823  24.273  0.00  0.00    +0.253 C 
BRANCH  30  31
ATOM     31  P   UNL     1       7.085   5.853  22.761  0.00  0.00    +0.339 P 
ATOM     32  O   UNL     1       7.059   6.725  21.482  0.00  0.00    -0.258 OA
BRANCH  31  33
ATOM     33  O   UNL     1       5.701   5.039  22.391  0.00  0.00    -0.324 OA
ATOM     34  H   UNL     1       5.775   4.626  21.513  0.00  0.00    +0.220 HD
ENDBRANCH  31  33
BRANCH  31  35
ATOM     35  O   UNL     1       8.114   4.711  22.154  0.00  0.00    -0.324 OA
ATOM     36  H   UNL     1       9.010   5.090  22.055  0.00  0.00    +0.220 HD
ENDBRANCH  31  35
ENDBRANCH  30  31
ENDBRANCH  26  30
ENDBRANCH  25  26
ENDBRANCH  24  25
ENDBRANCH   4  24
TORSDOF 11
ENDMDL
MODEL 9
REMARK VINA RESULT:      -6.5      1.638      2.282
REMARK  Name = 
REMARK  11 active torsions:
REMARK  status: ('A' for Active; 'I' for Inactive)
REMARK    1  A    between atoms: N_8  and  C_9
REMARK    2  A    between atoms: C_12  and  C_14
REMARK    3  A    between atoms: C_14  and  O_15
REMARK    4  A    between atoms: O_15  and  P_16
REMARK    5  A    between atoms: P_16  and  O_17
REMARK    6  A    between atoms: P_16  and  C_19
REMARK    7  A    between atoms: C_19  and  P_20
REMARK    8  A    between atoms: P_20  and  O_21
REMARK    9  A    between atoms: P_20  and  O_22
REMARK   10  A    between atoms: C_24  and  O_26
REMARK   11  A    between atoms: C_27  and  O_29
REMARK                            x       y       z     vdW  Elec       q    Type
REMARK                         _______ _______ _______ _____ _____    ______ ____
ROOT
ATOM      1  C   UNL     1       6.166  -3.175  24.906  0.00  0.00    +0.253 C 
ATOM      2  C   UNL     1       7.460  -3.700  25.561  0.00  0.00    +0.195 C 
ATOM      3  C   UNL     1       8.496  -3.718  24.431  0.00  0.00    +0.178 C 
ATOM      4  C   UNL     1       7.719  -3.202  23.223  0.00  0.00    +0.178 C 
ATOM      5  O   UNL     1       6.636  -2.426  23.759  0.00  0.00    -0.346 OA
ENDROOT
BRANCH   1  17
ATOM      6  N   UNL     1       5.065  -7.308  27.962  0.00  0.00    -0.329 N 
ATOM      7  H   UNL     1       4.480  -8.014  28.386  0.00  0.00    +0.145 HD
ATOM      8  H   UNL     1       5.452  -6.611  28.588  0.00  0.00    +0.145 HD
ATOM      9  C   UNL     1       4.742  -6.822  26.749  0.00  0.00    +0.195 A 
ATOM     10  N   UNL     1       3.946  -7.613  25.939  0.00  0.00    -0.293 N 
ATOM     11  H   UNL     1       3.668  -8.522  26.262  0.00  0.00    +0.172 HD
ATOM     12  C   UNL     1       3.522  -7.281  24.659  0.00  0.00    +0.280 A 
ATOM     13  O   UNL     1       2.816  -8.031  23.993  0.00  0.00    -0.265 OA
ATOM     14  C   UNL     1       4.023  -5.987  24.246  0.00  0.00    +0.172 A 
ATOM     15  N   UNL     1       3.863  -5.307  23.073  0.00  0.00    -0.229 NA
ATOM     16  C   UNL     1       4.576  -4.216  23.229  0.00  0.00    +0.203 A 
ATOM     17  N   UNL     1       5.217  -4.176  24.449  0.00  0.00    -0.285 N 
ATOM     18  C   UNL     1       4.811  -5.285  25.133  0.00  0.00    +0.171 A 
ATOM     19  N   UNL     1       5.173  -5.636  26.389  0.00  0.00    -0.196 NA
ENDBRANCH   1  17
BRANCH   2  20
ATOM     20  O   UNL     1       7.904  -2.782  26.586  0.00  0.00    -0.385 OA
ATOM     21  H   UNL     1       7.942  -1.888  26.203  0.00  0.00    +0.210 HD
ENDBRANCH   2  20
BRANCH   3  22
ATOM     22  O   UNL     1       8.998  -5.030  24.198  0.00  0.00    -0.386 OA
ATOM     23  H   UNL     1       8.258  -5.653  24.344  0.00  0.00    +0.210 HD
ENDBRANCH   3  22
BRANCH   4  24
ATOM     24  C   UNL     1       8.562  -2.397  22.260  0.00  0.00    +0.204 C 
BRANCH  24  25
ATOM     25  O   UNL     1       9.520  -1.692  23.031  0.00  0.00    -0.305 OA
BRANCH  25  26
ATOM     26  P   UNL     1       9.744  -0.050  22.535  0.00  0.00    +0.342 P 
ATOM     27  O   UNL     1       8.301   0.243  22.953  0.00  0.00    -0.258 OA
BRANCH  26  28
ATOM     28  O   UNL     1       9.566  -0.553  20.980  0.00  0.00    -0.324 OA
ATOM     29  H   UNL     1      10.388  -0.316  20.496  0.00  0.00    +0.220 HD
ENDBRANCH  26  28
BRANCH  26  30
ATOM     30  C   UNL     1       9.981   1.688  22.011  0.00  0.00    +0.253 C 
BRANCH  30  31
ATOM     31  P   UNL     1       9.597   2.805  23.409  0.00  0.00    +0.339 P 
ATOM     32  O   UNL     1       9.271   3.749  24.591  0.00  0.00    -0.258 OA
BRANCH  31  33
ATOM     33  O   UNL     1      10.961   3.616  22.967  0.00  0.00    -0.324 OA
ATOM     34  H   UNL     1      10.750   4.543  22.756  0.00  0.00    +0.220 HD
ENDBRANCH  31  33
BRANCH  31  35
ATOM     35  O   UNL     1      10.373   1.667  24.323  0.00  0.00    -0.324 OA
ATOM     36  H   UNL     1      10.305   1.899  25.270  0.00  0.00    +0.220 HD
ENDBRANCH  31  35
ENDBRANCH  30  31
ENDBRANCH  26  30
ENDBRANCH  25  26
ENDBRANCH  24  25
ENDBRANCH   4  24
TORSDOF 11
ENDMDL
