MODEL 1
REMARK VINA RESULT:      -6.1      0.000      0.000
REMARK  Name = 
REMARK  10 active torsions:
REMARK  status: ('A' for Active; 'I' for Inactive)
REMARK    1  A    between atoms: C_1  and  C_2
REMARK    2  A    between atoms: N_4  and  C_5
REMARK    3  A    between atoms: C_8  and  C_10
REMARK    4  A    between atoms: C_10  and  O_11
REMARK    5  A    between atoms: O_11  and  P_12
REMARK    6  A    between atoms: P_12  and  O_13
REMARK    7  A    between atoms: P_12  and  O_15
REMARK    8  A    between atoms: O_15  and  P_16
REMARK    9  A    between atoms: P_16  and  O_17
REMARK   10  A    between atoms: P_16  and  O_18
REMARK                            x       y       z     vdW  Elec       q    Type
REMARK                         _______ _______ _______ _____ _____    ______ ____
ROOT
ATOM      1  C   UNL     1       7.834  -5.196  23.252  0.00  0.00    +0.248 C 
ATOM      2  C   UNL     1       6.855  -5.593  22.207  0.00  0.00    +0.025 C 
ATOM      3  C   UNL     1       6.409  -4.500  21.578  0.00  0.00    +0.007 C 
ATOM      4  C   UNL     1       6.945  -3.254  22.230  0.00  0.00    +0.170 C 
ATOM      5  O   UNL     1       7.948  -3.760  23.132  0.00  0.00    -0.343 OA
ENDROOT
BRANCH   1  14
ATOM      6  C   UNL     1       4.512  -5.767  26.986  0.00  0.00    +0.051 C 
ATOM      7  C   UNL     1       5.880  -5.621  26.405  0.00  0.00    +0.030 A 
ATOM      8  C   UNL     1       6.998  -5.513  27.371  0.00  0.00    +0.257 A 
ATOM      9  O   UNL     1       6.815  -5.513  28.583  0.00  0.00    -0.267 OA
ATOM     10  N   UNL     1       8.240  -5.395  26.833  0.00  0.00    -0.275 N 
ATOM     11  H   UNL     1       9.018  -5.339  27.470  0.00  0.00    +0.173 HD
ATOM     12  C   UNL     1       8.548  -5.452  25.502  0.00  0.00    +0.332 A 
ATOM     13  O   UNL     1       9.723  -5.474  25.163  0.00  0.00    -0.246 OA
ATOM     14  N   UNL     1       7.466  -5.456  24.631  0.00  0.00    -0.270 N 
ATOM     15  C   UNL     1       6.166  -5.561  25.093  0.00  0.00    +0.102 A 
ENDBRANCH   1  14
BRANCH   4  16
ATOM     16  C   UNL     1       5.792  -2.505  22.985  0.00  0.00    +0.208 C 
BRANCH  16  17
ATOM     17  O   UNL     1       5.989  -2.002  24.325  0.00  0.00    -0.283 OA
BRANCH  17  18
ATOM     18  P   UNL     1       6.385  -0.466  24.618  0.00  0.00    +0.483 P 
ATOM     19  O   UNL     1       5.208   0.418  24.891  0.00  0.00    -0.227 OA
BRANCH  18  20
ATOM     20  O   UNL     1       7.097   0.027  23.262  0.00  0.00    -0.302 OA
ATOM     21  H   UNL     1       7.601  -0.698  22.835  0.00  0.00    +0.222 HD
ENDBRANCH  18  20
BRANCH  18  22
ATOM     22  O   UNL     1       7.602  -0.230  25.771  0.00  0.00    -0.186 OA
BRANCH  22  23
ATOM     23  P   UNL     1       8.883  -0.265  24.608  0.00  0.00    +0.481 P 
ATOM     24  O   UNL     1      10.029  -0.297  23.568  0.00  0.00    -0.227 OA
BRANCH  23  25
ATOM     25  O   UNL     1       8.905  -1.874  24.922  0.00  0.00    -0.302 OA
ATOM     26  H   UNL     1       8.219  -2.278  24.359  0.00  0.00    +0.222 HD
ENDBRANCH  23  25
BRANCH  23  27
ATOM     27  O   UNL     1       9.868   0.100  25.873  0.00  0.00    -0.302 OA
ATOM     28  H   UNL     1       9.457  -0.175  26.715  0.00  0.00    +0.222 HD
ENDBRANCH  23  27
ENDBRANCH  22  23
ENDBRANCH  18  22
ENDBRANCH  17  18
ENDBRANCH  16  17
ENDBRANCH   4  16
TORSDOF 9
ENDMDL
MODEL 2
REMARK VINA RESULT:      -6.1      3.288      5.410
REMARK  Name = 
REMARK  10 active torsions:
REMARK  status: ('A' for Active; 'I' for Inactive)
REMARK    1  A    between atoms: C_1  and  C_2
REMARK    2  A    between atoms: N_4  and  C_5
REMARK    3  A    between atoms: C_8  and  C_10
REMARK    4  A    between atoms: C_10  and  O_11
REMARK    5  A    between atoms: O_11  and  P_12
REMARK    6  A    between atoms: P_12  and  O_13
REMARK    7  A    between atoms: P_12  and  O_15
REMARK    8  A    between atoms: O_15  and  P_16
REMARK    9  A    between atoms: P_16  and  O_17
REMARK   10  A    between atoms: P_16  and  O_18
REMARK                            x       y       z     vdW  Elec       q    Type
REMARK                         _______ _______ _______ _____ _____    ______ ____
ROOT
ATOM      1  C   UNL     1       7.665  -3.738  22.759  0.00  0.00    +0.248 C 
ATOM      2  C   UNL     1       7.695  -2.254  22.808  0.00  0.00    +0.025 C 
ATOM      3  C   UNL     1       8.381  -1.858  23.884  0.00  0.00    +0.007 C 
ATOM      4  C   UNL     1       8.764  -3.039  24.735  0.00  0.00    +0.170 C 
ATOM      5  O   UNL     1       8.449  -4.166  23.896  0.00  0.00    -0.343 OA
ENDROOT
BRANCH   1  14
ATOM      6  C   UNL     1       2.975  -4.032  24.554  0.00  0.00    +0.051 C 
ATOM      7  C   UNL     1       4.186  -4.545  23.847  0.00  0.00    +0.030 A 
ATOM      8  C   UNL     1       4.146  -5.964  23.419  0.00  0.00    +0.257 A 
ATOM      9  O   UNL     1       3.187  -6.690  23.654  0.00  0.00    -0.267 OA
ATOM     10  N   UNL     1       5.246  -6.418  22.764  0.00  0.00    -0.275 N 
ATOM     11  H   UNL     1       5.235  -7.374  22.446  0.00  0.00    +0.173 HD
ATOM     12  C   UNL     1       6.331  -5.669  22.398  0.00  0.00    +0.332 A 
ATOM     13  O   UNL     1       7.190  -6.173  21.688  0.00  0.00    -0.246 OA
ATOM     14  N   UNL     1       6.369  -4.376  22.903  0.00  0.00    -0.270 N 
ATOM     15  C   UNL     1       5.298  -3.836  23.592  0.00  0.00    +0.102 A 
ENDBRANCH   1  14
BRANCH   4  16
ATOM     16  C   UNL     1       7.930  -3.037  26.063  0.00  0.00    +0.208 C 
BRANCH  16  17
ATOM     17  O   UNL     1       6.778  -3.895  26.216  0.00  0.00    -0.283 OA
BRANCH  17  18
ATOM     18  P   UNL     1       6.855  -5.311  26.985  0.00  0.00    +0.483 P 
ATOM     19  O   UNL     1       6.683  -5.202  28.468  0.00  0.00    -0.227 OA
BRANCH  18  20
ATOM     20  O   UNL     1       8.339  -5.852  26.676  0.00  0.00    -0.302 OA
ATOM     21  H   UNL     1       8.723  -6.313  27.451  0.00  0.00    +0.222 HD
ENDBRANCH  18  20
BRANCH  18  22
ATOM     22  O   UNL     1       5.882  -6.544  26.350  0.00  0.00    -0.186 OA
BRANCH  22  23
ATOM     23  P   UNL     1       4.652  -6.361  27.554  0.00  0.00    +0.481 P 
ATOM     24  O   UNL     1       3.552  -6.198  28.631  0.00  0.00    -0.227 OA
BRANCH  23  25
ATOM     25  O   UNL     1       5.408  -7.619  28.285  0.00  0.00    -0.302 OA
ATOM     26  H   UNL     1       6.355  -7.389  28.327  0.00  0.00    +0.222 HD
ENDBRANCH  23  25
BRANCH  23  27
ATOM     27  O   UNL     1       3.744  -7.334  26.589  0.00  0.00    -0.302 OA
ATOM     28  H   UNL     1       2.843  -6.972  26.490  0.00  0.00    +0.222 HD
ENDBRANCH  23  27
ENDBRANCH  22  23
ENDBRANCH  18  22
ENDBRANCH  17  18
ENDBRANCH  16  17
ENDBRANCH   4  16
TORSDOF 9
ENDMDL
MODEL 3
REMARK VINA RESULT:      -6.0      1.632      2.346
REMARK  Name = 
REMARK  10 active torsions:
REMARK  status: ('A' for Active; 'I' for Inactive)
REMARK    1  A    between atoms: C_1  and  C_2
REMARK    2  A    between atoms: N_4  and  C_5
REMARK    3  A    between atoms: C_8  and  C_10
REMARK    4  A    between atoms: C_10  and  O_11
REMARK    5  A    between atoms: O_11  and  P_12
REMARK    6  A    between atoms: P_12  and  O_13
REMARK    7  A    between atoms: P_12  and  O_15
REMARK    8  A    between atoms: O_15  and  P_16
REMARK    9  A    between atoms: P_16  and  O_17
REMARK   10  A    between atoms: P_16  and  O_18
REMARK                            x       y       z     vdW  Elec       q    Type
REMARK                         _______ _______ _______ _____ _____    ______ ____
ROOT
ATOM      1  C   UNL     1       7.409  -4.274  23.168  0.00  0.00    +0.248 C 
ATOM      2  C   UNL     1       6.196  -3.962  22.371  0.00  0.00    +0.025 C 
ATOM      3  C   UNL     1       6.095  -2.638  22.213  0.00  0.00    +0.007 C 
ATOM      4  C   UNL     1       7.160  -1.926  23.003  0.00  0.00    +0.170 C 
ATOM      5  O   UNL     1       8.034  -2.994  23.417  0.00  0.00    -0.343 OA
ENDROOT
BRANCH   1  14
ATOM      6  C   UNL     1       4.643  -5.406  27.213  0.00  0.00    +0.051 C 
ATOM      7  C   UNL     1       5.905  -5.318  26.422  0.00  0.00    +0.030 A 
ATOM      8  C   UNL     1       7.152  -5.699  27.127  0.00  0.00    +0.257 A 
ATOM      9  O   UNL     1       7.158  -6.041  28.304  0.00  0.00    -0.267 OA
ATOM     10  N   UNL     1       8.294  -5.629  26.395  0.00  0.00    -0.275 N 
ATOM     11  H   UNL     1       9.152  -5.902  26.847  0.00  0.00    +0.173 HD
ATOM     12  C   UNL     1       8.380  -5.324  25.064  0.00  0.00    +0.332 A 
ATOM     13  O   UNL     1       9.457  -5.435  24.496  0.00  0.00    -0.246 OA
ATOM     14  N   UNL     1       7.205  -4.880  24.470  0.00  0.00    -0.270 N 
ATOM     15  C   UNL     1       5.998  -4.905  25.146  0.00  0.00    +0.102 A 
ENDBRANCH   1  14
BRANCH   4  16
ATOM     16  C   UNL     1       6.515  -1.182  24.224  0.00  0.00    +0.208 C 
BRANCH  16  17
ATOM     17  O   UNL     1       7.009   0.107  24.652  0.00  0.00    -0.283 OA
BRANCH  17  18
ATOM     18  P   UNL     1       8.571   0.499  24.571  0.00  0.00    +0.483 P 
ATOM     19  O   UNL     1       9.465  -0.423  25.342  0.00  0.00    -0.227 OA
BRANCH  18  20
ATOM     20  O   UNL     1       8.649   1.964  25.231  0.00  0.00    -0.302 OA
ATOM     21  H   UNL     1       7.781   2.419  25.201  0.00  0.00    +0.222 HD
ENDBRANCH  18  20
BRANCH  18  22
ATOM     22  O   UNL     1       9.179   0.771  23.014  0.00  0.00    -0.186 OA
BRANCH  22  23
ATOM     23  P   UNL     1       9.734   2.370  23.376  0.00  0.00    +0.481 P 
ATOM     24  O   UNL     1      10.230   3.801  23.699  0.00  0.00    -0.227 OA
BRANCH  23  25
ATOM     25  O   UNL     1      10.285   2.354  21.832  0.00  0.00    -0.302 OA
ATOM     26  H   UNL     1      11.154   1.912  21.850  0.00  0.00    +0.222 HD
ENDBRANCH  23  25
BRANCH  23  27
ATOM     27  O   UNL     1      11.076   1.631  23.971  0.00  0.00    -0.302 OA
ATOM     28  H   UNL     1      11.883   2.075  23.646  0.00  0.00    +0.222 HD
ENDBRANCH  23  27
ENDBRANCH  22  23
ENDBRANCH  18  22
ENDBRANCH  17  18
ENDBRANCH  16  17
ENDBRANCH   4  16
TORSDOF 9
ENDMDL
MODEL 4
REMARK VINA RESULT:      -5.8      4.544      6.884
REMARK  Name = 
REMARK  10 active torsions:
REMARK  status: ('A' for Active; 'I' for Inactive)
REMARK    1  A    between atoms: C_1  and  C_2
REMARK    2  A    between atoms: N_4  and  C_5
REMARK    3  A    between atoms: C_8  and  C_10
REMARK    4  A    between atoms: C_10  and  O_11
REMARK    5  A    between atoms: O_11  and  P_12
REMARK    6  A    between atoms: P_12  and  O_13
REMARK    7  A    between atoms: P_12  and  O_15
REMARK    8  A    between atoms: O_15  and  P_16
REMARK    9  A    between atoms: P_16  and  O_17
REMARK   10  A    between atoms: P_16  and  O_18
REMARK                            x       y       z     vdW  Elec       q    Type
REMARK                         _______ _______ _______ _____ _____    ______ ____
ROOT
ATOM      1  C   UNL     1      10.139   0.616  22.425  0.00  0.00    +0.248 C 
ATOM      2  C   UNL     1      10.565  -0.269  23.539  0.00  0.00    +0.025 C 
ATOM      3  C   UNL     1      10.110  -1.507  23.323  0.00  0.00    +0.007 C 
ATOM      4  C   UNL     1       9.221  -1.543  22.109  0.00  0.00    +0.170 C 
ATOM      5  O   UNL     1       9.428  -0.249  21.510  0.00  0.00    -0.343 OA
ENDROOT
BRANCH   1  14
ATOM      6  C   UNL     1       5.588   2.754  22.576  0.00  0.00    +0.051 C 
ATOM      7  C   UNL     1       7.074   2.727  22.720  0.00  0.00    +0.030 A 
ATOM      8  C   UNL     1       7.728   4.020  23.032  0.00  0.00    +0.257 A 
ATOM      9  O   UNL     1       7.094   5.063  23.139  0.00  0.00    -0.267 OA
ATOM     10  N   UNL     1       9.078   3.984  23.176  0.00  0.00    -0.275 N 
ATOM     11  H   UNL     1       9.544   4.847  23.408  0.00  0.00    +0.173 HD
ATOM     12  C   UNL     1       9.861   2.863  23.143  0.00  0.00    +0.332 A 
ATOM     13  O   UNL     1      11.047   2.955  23.428  0.00  0.00    -0.246 OA
ATOM     14  N   UNL     1       9.223   1.692  22.752  0.00  0.00    -0.270 N 
ATOM     15  C   UNL     1       7.852   1.641  22.571  0.00  0.00    +0.102 A 
ENDBRANCH   1  14
BRANCH   4  16
ATOM     16  C   UNL     1       7.730  -1.764  22.542  0.00  0.00    +0.208 C 
BRANCH  16  17
ATOM     17  O   UNL     1       7.124  -3.073  22.473  0.00  0.00    -0.283 OA
BRANCH  17  18
ATOM     18  P   UNL     1       7.140  -4.096  23.720  0.00  0.00    +0.483 P 
ATOM     19  O   UNL     1       5.879  -4.889  23.866  0.00  0.00    -0.227 OA
BRANCH  18  20
ATOM     20  O   UNL     1       7.306  -3.148  25.010  0.00  0.00    -0.302 OA
ATOM     21  H   UNL     1       7.826  -2.343  24.801  0.00  0.00    +0.222 HD
ENDBRANCH  18  20
BRANCH  18  22
ATOM     22  O   UNL     1       8.503  -5.096  23.829  0.00  0.00    -0.186 OA
BRANCH  22  23
ATOM     23  P   UNL     1       8.847  -4.657  25.468  0.00  0.00    +0.481 P 
ATOM     24  O   UNL     1       9.156  -4.265  26.933  0.00  0.00    -0.227 OA
BRANCH  23  25
ATOM     25  O   UNL     1      10.112  -5.688  25.307  0.00  0.00    -0.302 OA
ATOM     26  H   UNL     1      10.577  -5.433  24.489  0.00  0.00    +0.222 HD
ENDBRANCH  23  25
BRANCH  23  27
ATOM     27  O   UNL     1       7.793  -5.851  25.874  0.00  0.00    -0.302 OA
ATOM     28  H   UNL     1       7.805  -6.560  25.201  0.00  0.00    +0.222 HD
ENDBRANCH  23  27
ENDBRANCH  22  23
ENDBRANCH  18  22
ENDBRANCH  17  18
ENDBRANCH  16  17
ENDBRANCH   4  16
TORSDOF 9
ENDMDL
MODEL 5
REMARK VINA RESULT:      -5.8      2.255      3.183
REMARK  Name = 
REMARK  10 active torsions:
REMARK  status: ('A' for Active; 'I' for Inactive)
REMARK    1  A    between atoms: C_1  and  C_2
REMARK    2  A    between atoms: N_4  and  C_5
REMARK    3  A    between atoms: C_8  and  C_10
REMARK    4  A    between atoms: C_10  and  O_11
REMARK    5  A    between atoms: O_11  and  P_12
REMARK    6  A    between atoms: P_12  and  O_13
REMARK    7  A    between atoms: P_12  and  O_15
REMARK    8  A    between atoms: O_15  and  P_16
REMARK    9  A    between atoms: P_16  and  O_17
REMARK   10  A    between atoms: P_16  and  O_18
REMARK                            x       y       z     vdW  Elec       q    Type
REMARK                         _______ _______ _______ _____ _____    ______ ____
ROOT
ATOM      1  C   UNL     1       8.414  -4.155  25.816  0.00  0.00    +0.248 C 
ATOM      2  C   UNL     1       9.377  -3.944  24.705  0.00  0.00    +0.025 C 
ATOM      3  C   UNL     1       9.334  -2.665  24.317  0.00  0.00    +0.007 C 
ATOM      4  C   UNL     1       8.242  -1.925  25.040  0.00  0.00    +0.170 C 
ATOM      5  O   UNL     1       7.840  -2.851  26.068  0.00  0.00    -0.343 OA
ENDROOT
BRANCH   1  14
ATOM      6  C   UNL     1       4.670  -5.963  22.984  0.00  0.00    +0.051 C 
ATOM      7  C   UNL     1       5.463  -5.813  24.240  0.00  0.00    +0.030 A 
ATOM      8  C   UNL     1       4.923  -6.488  25.444  0.00  0.00    +0.257 A 
ATOM      9  O   UNL     1       3.869  -7.113  25.424  0.00  0.00    -0.267 OA
ATOM     10  N   UNL     1       5.658  -6.359  26.579  0.00  0.00    -0.275 N 
ATOM     11  H   UNL     1       5.321  -6.825  27.405  0.00  0.00    +0.173 HD
ATOM     12  C   UNL     1       6.875  -5.742  26.683  0.00  0.00    +0.332 A 
ATOM     13  O   UNL     1       7.494  -5.821  27.735  0.00  0.00    -0.246 OA
ATOM     14  N   UNL     1       7.295  -5.042  25.559  0.00  0.00    -0.270 N 
ATOM     15  C   UNL     1       6.601  -5.107  24.364  0.00  0.00    +0.102 A 
ENDBRANCH   1  14
BRANCH   4  16
ATOM     16  C   UNL     1       7.070  -1.594  24.051  0.00  0.00    +0.208 C 
BRANCH  16  17
ATOM     17  O   UNL     1       7.296  -0.772  22.884  0.00  0.00    -0.283 OA
BRANCH  17  18
ATOM     18  P   UNL     1       7.384   0.836  22.969  0.00  0.00    +0.483 P 
ATOM     19  O   UNL     1       7.716   1.351  24.336  0.00  0.00    -0.227 OA
BRANCH  18  20
ATOM     20  O   UNL     1       5.908   1.338  22.573  0.00  0.00    -0.302 OA
ATOM     21  H   UNL     1       5.917   2.264  22.252  0.00  0.00    +0.222 HD
ENDBRANCH  18  20
BRANCH  18  22
ATOM     22  O   UNL     1       8.347   1.581  21.791  0.00  0.00    -0.186 OA
BRANCH  22  23
ATOM     23  P   UNL     1       9.651   1.903  22.883  0.00  0.00    +0.481 P 
ATOM     24  O   UNL     1      10.818   2.192  23.859  0.00  0.00    -0.227 OA
BRANCH  23  25
ATOM     25  O   UNL     1      10.440   2.404  21.536  0.00  0.00    -0.302 OA
ATOM     26  H   UNL     1       9.914   2.098  20.774  0.00  0.00    +0.222 HD
ENDBRANCH  23  25
BRANCH  23  27
ATOM     27  O   UNL     1      10.058   0.326  22.660  0.00  0.00    -0.302 OA
ATOM     28  H   UNL     1       9.575  -0.046  21.896  0.00  0.00    +0.222 HD
ENDBRANCH  23  27
ENDBRANCH  22  23
ENDBRANCH  18  22
ENDBRANCH  17  18
ENDBRANCH  16  17
ENDBRANCH   4  16
TORSDOF 9
ENDMDL
MODEL 6
REMARK VINA RESULT:      -5.8      2.170      3.497
REMARK  Name = 
REMARK  10 active torsions:
REMARK  status: ('A' for Active; 'I' for Inactive)
REMARK    1  A    between atoms: C_1  and  C_2
REMARK    2  A    between atoms: N_4  and  C_5
REMARK    3  A    between atoms: C_8  and  C_10
REMARK    4  A    between atoms: C_10  and  O_11
REMARK    5  A    between atoms: O_11  and  P_12
REMARK    6  A    between atoms: P_12  and  O_13
REMARK    7  A    between atoms: P_12  and  O_15
REMARK    8  A    between atoms: O_15  and  P_16
REMARK    9  A    between atoms: P_16  and  O_17
REMARK   10  A    between atoms: P_16  and  O_18
REMARK                            x       y       z     vdW  Elec       q    Type
REMARK                         _______ _______ _______ _____ _____    ______ ____
ROOT
ATOM      1  C   UNL     1       6.712  -4.201  22.660  0.00  0.00    +0.248 C 
ATOM      2  C   UNL     1       6.156  -2.871  22.302  0.00  0.00    +0.025 C 
ATOM      3  C   UNL     1       7.125  -1.953  22.362  0.00  0.00    +0.007 C 
ATOM      4  C   UNL     1       8.396  -2.555  22.898  0.00  0.00    +0.170 C 
ATOM      5  O   UNL     1       8.121  -3.969  22.889  0.00  0.00    -0.343 OA
ENDROOT
BRANCH   1  14
ATOM      6  C   UNL     1       7.002  -5.469  27.520  0.00  0.00    +0.051 C 
ATOM      7  C   UNL     1       6.413  -5.499  26.148  0.00  0.00    +0.030 A 
ATOM      8  C   UNL     1       5.295  -6.448  25.933  0.00  0.00    +0.257 A 
ATOM      9  O   UNL     1       4.890  -7.191  26.820  0.00  0.00    -0.267 OA
ATOM     10  N   UNL     1       4.756  -6.459  24.687  0.00  0.00    -0.275 N 
ATOM     11  H   UNL     1       3.981  -7.082  24.522  0.00  0.00    +0.173 HD
ATOM     12  C   UNL     1       5.093  -5.625  23.657  0.00  0.00    +0.332 A 
ATOM     13  O   UNL     1       4.429  -5.648  22.630  0.00  0.00    -0.246 OA
ATOM     14  N   UNL     1       6.207  -4.822  23.870  0.00  0.00    -0.270 N 
ATOM     15  C   UNL     1       6.827  -4.758  25.106  0.00  0.00    +0.102 A 
ENDBRANCH   1  14
BRANCH   4  16
ATOM     16  C   UNL     1       8.679  -2.015  24.343  0.00  0.00    +0.208 C 
BRANCH  16  17
ATOM     17  O   UNL     1       9.859  -1.230  24.623  0.00  0.00    -0.283 OA
BRANCH  17  18
ATOM     18  P   UNL     1      10.125   0.200  23.926  0.00  0.00    +0.483 P 
ATOM     19  O   UNL     1      11.360   0.889  24.417  0.00  0.00    -0.227 OA
BRANCH  18  20
ATOM     20  O   UNL     1       8.844   1.086  24.331  0.00  0.00    -0.302 OA
ATOM     21  H   UNL     1       8.870   1.970  23.908  0.00  0.00    +0.222 HD
ENDBRANCH  18  20
BRANCH  18  22
ATOM     22  O   UNL     1      10.055   0.215  22.234  0.00  0.00    -0.186 OA
BRANCH  22  23
ATOM     23  P   UNL     1       9.003   1.587  22.166  0.00  0.00    +0.481 P 
ATOM     24  O   UNL     1       8.061   2.815  22.105  0.00  0.00    -0.227 OA
BRANCH  23  25
ATOM     25  O   UNL     1       8.732   1.100  20.624  0.00  0.00    -0.302 OA
ATOM     26  H   UNL     1       8.670   1.909  20.083  0.00  0.00    +0.222 HD
ENDBRANCH  23  25
BRANCH  23  27
ATOM     27  O   UNL     1      10.351   2.440  21.769  0.00  0.00    -0.302 OA
ATOM     28  H   UNL     1      11.028   1.848  21.387  0.00  0.00    +0.222 HD
ENDBRANCH  23  27
ENDBRANCH  22  23
ENDBRANCH  18  22
ENDBRANCH  17  18
ENDBRANCH  16  17
ENDBRANCH   4  16
TORSDOF 9
ENDMDL
MODEL 7
REMARK VINA RESULT:      -5.7      2.853      3.628
REMARK  Name = 
REMARK  10 active torsions:
REMARK  status: ('A' for Active; 'I' for Inactive)
REMARK    1  A    between atoms: C_1  and  C_2
REMARK    2  A    between atoms: N_4  and  C_5
REMARK    3  A    between atoms: C_8  and  C_10
REMARK    4  A    between atoms: C_10  and  O_11
REMARK    5  A    between atoms: O_11  and  P_12
REMARK    6  A    between atoms: P_12  and  O_13
REMARK    7  A    between atoms: P_12  and  O_15
REMARK    8  A    between atoms: O_15  and  P_16
REMARK    9  A    between atoms: P_16  and  O_17
REMARK   10  A    between atoms: P_16  and  O_18
REMARK                            x       y       z     vdW  Elec       q    Type
REMARK                         _______ _______ _______ _____ _____    ______ ____
ROOT
ATOM      1  C   UNL     1       8.660  -3.615  23.420  0.00  0.00    +0.248 C 
ATOM      2  C   UNL     1       7.880  -2.633  22.624  0.00  0.00    +0.025 C 
ATOM      3  C   UNL     1       8.505  -1.451  22.639  0.00  0.00    +0.007 C 
ATOM      4  C   UNL     1       9.697  -1.491  23.557  0.00  0.00    +0.170 C 
ATOM      5  O   UNL     1       9.833  -2.893  23.859  0.00  0.00    -0.343 OA
ENDROOT
BRANCH   1  14
ATOM      6  C   UNL     1       5.499  -3.334  27.323  0.00  0.00    +0.051 C 
ATOM      7  C   UNL     1       6.605  -3.936  26.520  0.00  0.00    +0.030 A 
ATOM      8  C   UNL     1       7.304  -5.093  27.127  0.00  0.00    +0.257 A 
ATOM      9  O   UNL     1       7.014  -5.521  28.238  0.00  0.00    -0.267 OA
ATOM     10  N   UNL     1       8.298  -5.644  26.383  0.00  0.00    -0.275 N 
ATOM     11  H   UNL     1       8.775  -6.445  26.766  0.00  0.00    +0.173 HD
ATOM     12  C   UNL     1       8.646  -5.282  25.111  0.00  0.00    +0.332 A 
ATOM     13  O   UNL     1       9.467  -5.954  24.504  0.00  0.00    -0.246 OA
ATOM     14  N   UNL     1       8.035  -4.134  24.622  0.00  0.00    -0.270 N 
ATOM     15  C   UNL     1       7.021  -3.501  25.318  0.00  0.00    +0.102 A 
ENDBRANCH   1  14
BRANCH   4  16
ATOM     16  C   UNL     1       9.416  -0.632  24.839  0.00  0.00    +0.208 C 
BRANCH  16  17
ATOM     17  O   UNL     1       8.602   0.559  24.770  0.00  0.00    -0.283 OA
BRANCH  17  18
ATOM     18  P   UNL     1       9.189   1.973  24.261  0.00  0.00    +0.483 P 
ATOM     19  O   UNL     1      10.684   2.014  24.186  0.00  0.00    -0.227 OA
BRANCH  18  20
ATOM     20  O   UNL     1       8.698   3.030  25.370  0.00  0.00    -0.302 OA
ATOM     21  H   UNL     1       9.302   3.801  25.425  0.00  0.00    +0.222 HD
ENDBRANCH  18  20
BRANCH  18  22
ATOM     22  O   UNL     1       8.494   2.588  22.844  0.00  0.00    -0.186 OA
BRANCH  22  23
ATOM     23  P   UNL     1       8.215   4.158  23.515  0.00  0.00    +0.481 P 
ATOM     24  O   UNL     1       7.964   5.564  24.114  0.00  0.00    -0.227 OA
BRANCH  23  25
ATOM     25  O   UNL     1       7.685   4.529  22.008  0.00  0.00    -0.302 OA
ATOM     26  H   UNL     1       8.253   5.252  21.682  0.00  0.00    +0.222 HD
ENDBRANCH  23  25
BRANCH  23  27
ATOM     27  O   UNL     1       9.789   4.455  23.146  0.00  0.00    -0.302 OA
ATOM     28  H   UNL     1       9.917   5.399  22.932  0.00  0.00    +0.222 HD
ENDBRANCH  23  27
ENDBRANCH  22  23
ENDBRANCH  18  22
ENDBRANCH  17  18
ENDBRANCH  16  17
ENDBRANCH   4  16
TORSDOF 9
ENDMDL
MODEL 8
REMARK VINA RESULT:      -5.6      2.337      4.191
REMARK  Name = 
REMARK  10 active torsions:
REMARK  status: ('A' for Active; 'I' for Inactive)
REMARK    1  A    between atoms: C_1  and  C_2
REMARK    2  A    between atoms: N_4  and  C_5
REMARK    3  A    between atoms: C_8  and  C_10
REMARK    4  A    between atoms: C_10  and  O_11
REMARK    5  A    between atoms: O_11  and  P_12
REMARK    6  A    between atoms: P_12  and  O_13
REMARK    7  A    between atoms: P_12  and  O_15
REMARK    8  A    between atoms: O_15  and  P_16
REMARK    9  A    between atoms: P_16  and  O_17
REMARK   10  A    between atoms: P_16  and  O_18
REMARK                            x       y       z     vdW  Elec       q    Type
REMARK                         _______ _______ _______ _____ _____    ______ ____
ROOT
ATOM      1  C   UNL     1       7.073  -4.835  26.458  0.00  0.00    +0.248 C 
ATOM      2  C   UNL     1       8.542  -4.861  26.241  0.00  0.00    +0.025 C 
ATOM      3  C   UNL     1       9.017  -3.611  26.264  0.00  0.00    +0.007 C 
ATOM      4  C   UNL     1       7.892  -2.616  26.366  0.00  0.00    +0.170 C 
ATOM      5  O   UNL     1       6.748  -3.441  26.660  0.00  0.00    -0.343 OA
ENDROOT
BRANCH   1  14
ATOM      6  C   UNL     1       6.083  -5.621  21.589  0.00  0.00    +0.051 C 
ATOM      7  C   UNL     1       5.748  -5.556  23.042  0.00  0.00    +0.030 A 
ATOM      8  C   UNL     1       4.327  -5.773  23.400  0.00  0.00    +0.257 A 
ATOM      9  O   UNL     1       3.462  -5.966  22.553  0.00  0.00    -0.267 OA
ATOM     10  N   UNL     1       4.033  -5.726  24.726  0.00  0.00    -0.275 N 
ATOM     11  H   UNL     1       3.077  -5.890  24.996  0.00  0.00    +0.173 HD
ATOM     12  C   UNL     1       4.935  -5.584  25.745  0.00  0.00    +0.332 A 
ATOM     13  O   UNL     1       4.551  -5.701  26.900  0.00  0.00    -0.246 OA
ATOM     14  N   UNL     1       6.237  -5.287  25.362  0.00  0.00    -0.270 N 
ATOM     15  C   UNL     1       6.621  -5.300  24.032  0.00  0.00    +0.102 A 
ENDBRANCH   1  14
BRANCH   4  16
ATOM     16  C   UNL     1       7.733  -1.844  25.010  0.00  0.00    +0.208 C 
BRANCH  16  17
ATOM     17  O   UNL     1       8.451  -2.265  23.829  0.00  0.00    -0.283 OA
BRANCH  17  18
ATOM     18  P   UNL     1       9.625  -1.373  23.173  0.00  0.00    +0.483 P 
ATOM     19  O   UNL     1      10.730  -2.182  22.569  0.00  0.00    -0.227 OA
BRANCH  18  20
ATOM     20  O   UNL     1      10.219  -0.527  24.406  0.00  0.00    -0.302 OA
ATOM     21  H   UNL     1      10.017   0.429  24.317  0.00  0.00    +0.222 HD
ENDBRANCH  18  20
BRANCH  18  22
ATOM     22  O   UNL     1       9.114  -0.156  22.112  0.00  0.00    -0.186 OA
BRANCH  22  23
ATOM     23  P   UNL     1       9.948   1.103  22.958  0.00  0.00    +0.481 P 
ATOM     24  O   UNL     1      10.694   2.229  23.714  0.00  0.00    -0.227 OA
BRANCH  23  25
ATOM     25  O   UNL     1       8.448   1.547  23.447  0.00  0.00    -0.302 OA
ATOM     26  H   UNL     1       7.839   1.320  22.720  0.00  0.00    +0.222 HD
ENDBRANCH  23  25
BRANCH  23  27
ATOM     27  O   UNL     1       9.848   1.940  21.547  0.00  0.00    -0.302 OA
ATOM     28  H   UNL     1       9.178   2.648  21.617  0.00  0.00    +0.222 HD
ENDBRANCH  23  27
ENDBRANCH  22  23
ENDBRANCH  18  22
ENDBRANCH  17  18
ENDBRANCH  16  17
ENDBRANCH   4  16
TORSDOF 9
ENDMDL
MODEL 9
REMARK VINA RESULT:      -5.5      4.627      7.120
REMARK  Name = 
REMARK  10 active torsions:
REMARK  status: ('A' for Active; 'I' for Inactive)
REMARK    1  A    between atoms: C_1  and  C_2
REMARK    2  A    between atoms: N_4  and  C_5
REMARK    3  A    between atoms: C_8  and  C_10
REMARK    4  A    between atoms: C_10  and  O_11
REMARK    5  A    between atoms: O_11  and  P_12
REMARK    6  A    between atoms: P_12  and  O_13
REMARK    7  A    between atoms: P_12  and  O_15
REMARK    8  A    between atoms: O_15  and  P_16
REMARK    9  A    between atoms: P_16  and  O_17
REMARK   10  A    between atoms: P_16  and  O_18
REMARK                            x       y       z     vdW  Elec       q    Type
REMARK                         _______ _______ _______ _____ _____    ______ ____
ROOT
ATOM      1  C   UNL     1       9.840   0.245  24.540  0.00  0.00    +0.248 C 
ATOM      2  C   UNL     1       9.176  -0.656  25.516  0.00  0.00    +0.025 C 
ATOM      3  C   UNL     1       9.019  -1.866  24.969  0.00  0.00    +0.007 C 
ATOM      4  C   UNL     1       9.441  -1.856  23.525  0.00  0.00    +0.170 C 
ATOM      5  O   UNL     1      10.099  -0.582  23.382  0.00  0.00    -0.343 OA
ENDROOT
BRANCH   1  14
ATOM      6  C   UNL     1       5.563   2.536  23.214  0.00  0.00    +0.051 C 
ATOM      7  C   UNL     1       7.045   2.410  23.340  0.00  0.00    +0.030 A 
ATOM      8  C   UNL     1       7.853   3.478  22.706  0.00  0.00    +0.257 A 
ATOM      9  O   UNL     1       7.340   4.402  22.085  0.00  0.00    -0.267 OA
ATOM     10  N   UNL     1       9.200   3.363  22.838  0.00  0.00    -0.275 N 
ATOM     11  H   UNL     1       9.769   4.088  22.432  0.00  0.00    +0.173 HD
ATOM     12  C   UNL     1       9.858   2.411  23.566  0.00  0.00    +0.332 A 
ATOM     13  O   UNL     1      11.068   2.507  23.717  0.00  0.00    -0.246 OA
ATOM     14  N   UNL     1       9.072   1.378  24.060  0.00  0.00    -0.270 N 
ATOM     15  C   UNL     1       7.692   1.407  23.959  0.00  0.00    +0.102 A 
ENDBRANCH   1  14
BRANCH   4  16
ATOM     16  C   UNL     1       8.183  -1.981  22.596  0.00  0.00    +0.208 C 
BRANCH  16  17
ATOM     17  O   UNL     1       7.582  -3.268  22.333  0.00  0.00    -0.283 OA
BRANCH  17  18
ATOM     18  P   UNL     1       6.217  -3.742  23.051  0.00  0.00    +0.483 P 
ATOM     19  O   UNL     1       5.504  -2.643  23.776  0.00  0.00    -0.227 OA
BRANCH  18  20
ATOM     20  O   UNL     1       6.692  -4.845  24.122  0.00  0.00    -0.302 OA
ATOM     21  H   UNL     1       7.592  -4.652  24.461  0.00  0.00    +0.222 HD
ENDBRANCH  18  20
BRANCH  18  22
ATOM     22  O   UNL     1       5.145  -4.621  22.078  0.00  0.00    -0.186 OA
BRANCH  22  23
ATOM     23  P   UNL     1       5.013  -5.935  23.197  0.00  0.00    +0.481 P 
ATOM     24  O   UNL     1       4.895  -7.111  24.197  0.00  0.00    -0.227 OA
BRANCH  23  25
ATOM     25  O   UNL     1       5.873  -6.764  22.074  0.00  0.00    -0.302 OA
ATOM     26  H   UNL     1       5.375  -7.582  21.889  0.00  0.00    +0.222 HD
ENDBRANCH  23  25
BRANCH  23  27
ATOM     27  O   UNL     1       3.571  -6.241  22.469  0.00  0.00    -0.302 OA
ATOM     28  H   UNL     1       3.683  -6.897  21.753  0.00  0.00    +0.222 HD
ENDBRANCH  23  27
ENDBRANCH  22  23
ENDBRANCH  18  22
ENDBRANCH  17  18
ENDBRANCH  16  17
ENDBRANCH   4  16
TORSDOF 9
ENDMDL
