MODEL 1
REMARK VINA RESULT:      -4.8      0.000      0.000
REMARK  Name = 
REMARK  5 active torsions:
REMARK  status: ('A' for Active; 'I' for Inactive)
REMARK    1  A    between atoms: O_1  and  S_2
REMARK    2  A    between atoms: S_2  and  C_5
REMARK    3  A    between atoms: C_5  and  C_6
REMARK    4  A    between atoms: C_6  and  C_7
REMARK    5  A    between atoms: C_7  and  N_8
REMARK                            x       y       z     vdW  Elec       q    Type
REMARK                         _______ _______ _______ _____ _____    ______ ____
ROOT
ATOM      1  C   UNL     1       7.995  -2.634  24.659  0.00  0.00    +0.040 C 
ENDROOT
BRANCH   1   2
ATOM      2  C   UNL     1       8.998  -3.419  25.495  0.00  0.00    +0.199 C 
BRANCH   2   3
ATOM      3  S   UNL     1       8.830  -5.170  25.181  0.00  0.00    +0.080 S 
ATOM      4  O   UNL     1       8.079  -5.793  26.246  0.00  0.00    -0.147 OA
ATOM      5  O   UNL     1       8.522  -5.400  23.788  0.00  0.00    -0.147 OA
BRANCH   3   6
ATOM      6  O   UNL     1      10.374  -5.592  25.389  0.00  0.00    -0.254 OA
ATOM      7  H   UNL     1      10.442  -6.114  26.215  0.00  0.00    +0.244 HD
ENDBRANCH   3   6
ENDBRANCH   2   3
ENDBRANCH   1   2
BRANCH   1   8
ATOM      8  C   UNL     1       8.478  -1.219  24.327  0.00  0.00    +0.086 C 
BRANCH   8   9
ATOM      9  N   UNL     1       9.888  -1.135  23.916  0.00  0.00    -0.298 NA
ATOM     10  C   UNL     1      10.455   0.196  24.251  0.00  0.00    +0.112 C 
ATOM     11  C   UNL     1       9.958   1.338  23.342  0.00  0.00    +0.175 C 
ATOM     12  O   UNL     1      10.174   1.046  21.955  0.00  0.00    -0.377 OA
ATOM     13  C   UNL     1       9.572  -0.202  21.590  0.00  0.00    +0.175 C 
ATOM     14  C   UNL     1      10.105  -1.347  22.465  0.00  0.00    +0.112 C 
ENDBRANCH   8   9
ENDBRANCH   1   8
TORSDOF 5
ENDMDL
MODEL 2
REMARK VINA RESULT:      -4.7      2.700      5.813
REMARK  Name = 
REMARK  5 active torsions:
REMARK  status: ('A' for Active; 'I' for Inactive)
REMARK    1  A    between atoms: O_1  and  S_2
REMARK    2  A    between atoms: S_2  and  C_5
REMARK    3  A    between atoms: C_5  and  C_6
REMARK    4  A    between atoms: C_6  and  C_7
REMARK    5  A    between atoms: C_7  and  N_8
REMARK                            x       y       z     vdW  Elec       q    Type
REMARK                         _______ _______ _______ _____ _____    ______ ____
ROOT
ATOM      1  C   UNL     1       8.275  -2.455  22.869  0.00  0.00    +0.040 C 
ENDROOT
BRANCH   1   2
ATOM      2  C   UNL     1       8.195  -0.934  22.856  0.00  0.00    +0.199 C 
BRANCH   2   3
ATOM      3  S   UNL     1       9.745  -0.237  22.306  0.00  0.00    +0.080 S 
ATOM      4  O   UNL     1       9.500   0.854  21.391  0.00  0.00    -0.147 OA
ATOM      5  O   UNL     1      10.660  -0.115  23.419  0.00  0.00    -0.147 OA
BRANCH   3   6
ATOM      6  O   UNL     1      10.259  -1.484  21.420  0.00  0.00    -0.254 OA
ATOM      7  H   UNL     1      10.569  -1.142  20.556  0.00  0.00    +0.244 HD
ENDBRANCH   3   6
ENDBRANCH   2   3
ENDBRANCH   1   2
BRANCH   1   8
ATOM      8  C   UNL     1       8.730  -3.014  24.220  0.00  0.00    +0.086 C 
BRANCH   8   9
ATOM      9  N   UNL     1       8.992  -4.462  24.226  0.00  0.00    -0.298 NA
ATOM     10  C   UNL     1       7.753  -5.222  23.921  0.00  0.00    +0.112 C 
ATOM     11  C   UNL     1       6.730  -5.243  25.074  0.00  0.00    +0.175 C 
ATOM     12  O   UNL     1       7.313  -5.719  26.294  0.00  0.00    -0.377 OA
ATOM     13  C   UNL     1       8.471  -4.953  26.648  0.00  0.00    +0.175 C 
ATOM     14  C   UNL     1       9.510  -4.973  25.517  0.00  0.00    +0.112 C 
ENDBRANCH   8   9
ENDBRANCH   1   8
TORSDOF 5
ENDMDL
MODEL 3
REMARK VINA RESULT:      -4.7      3.279      5.727
REMARK  Name = 
REMARK  5 active torsions:
REMARK  status: ('A' for Active; 'I' for Inactive)
REMARK    1  A    between atoms: O_1  and  S_2
REMARK    2  A    between atoms: S_2  and  C_5
REMARK    3  A    between atoms: C_5  and  C_6
REMARK    4  A    between atoms: C_6  and  C_7
REMARK    5  A    between atoms: C_7  and  N_8
REMARK                            x       y       z     vdW  Elec       q    Type
REMARK                         _______ _______ _______ _____ _____    ______ ____
ROOT
ATOM      1  C   UNL     1      10.413   0.490  24.715  0.00  0.00    +0.040 C 
ENDROOT
BRANCH   1   2
ATOM      2  C   UNL     1       9.599   1.756  24.486  0.00  0.00    +0.199 C 
BRANCH   2   3
ATOM      3  S   UNL     1      10.210   2.637  23.057  0.00  0.00    +0.080 S 
ATOM      4  O   UNL     1      11.353   3.441  23.423  0.00  0.00    -0.147 OA
ATOM      5  O   UNL     1      10.220   1.768  21.902  0.00  0.00    -0.147 OA
BRANCH   3   6
ATOM      6  O   UNL     1       8.969   3.650  22.861  0.00  0.00    -0.254 OA
ATOM      7  H   UNL     1       8.246   3.371  23.461  0.00  0.00    +0.244 HD
ENDBRANCH   3   6
ENDBRANCH   2   3
ENDBRANCH   1   2
BRANCH   1   8
ATOM      8  C   UNL     1       9.540  -0.760  24.854  0.00  0.00    +0.086 C 
BRANCH   8   9
ATOM      9  N   UNL     1      10.039  -1.939  24.129  0.00  0.00    -0.298 NA
ATOM     10  C   UNL     1      10.198  -1.638  22.683  0.00  0.00    +0.112 C 
ATOM     11  C   UNL     1       8.867  -1.533  21.914  0.00  0.00    +0.175 C 
ATOM     12  O   UNL     1       8.057  -2.703  22.087  0.00  0.00    -0.377 OA
ATOM     13  C   UNL     1       7.828  -2.972  23.475  0.00  0.00    +0.175 C 
ATOM     14  C   UNL     1       9.157  -3.125  24.232  0.00  0.00    +0.112 C 
ENDBRANCH   8   9
ENDBRANCH   1   8
TORSDOF 5
ENDMDL
MODEL 4
REMARK VINA RESULT:      -4.6      2.498      3.529
REMARK  Name = 
REMARK  5 active torsions:
REMARK  status: ('A' for Active; 'I' for Inactive)
REMARK    1  A    between atoms: O_1  and  S_2
REMARK    2  A    between atoms: S_2  and  C_5
REMARK    3  A    between atoms: C_5  and  C_6
REMARK    4  A    between atoms: C_6  and  C_7
REMARK    5  A    between atoms: C_7  and  N_8
REMARK                            x       y       z     vdW  Elec       q    Type
REMARK                         _______ _______ _______ _____ _____    ______ ____
ROOT
ATOM      1  C   UNL     1      10.471   0.195  24.496  0.00  0.00    +0.040 C 
ENDROOT
BRANCH   1   2
ATOM      2  C   UNL     1       9.554  -0.989  24.773  0.00  0.00    +0.199 C 
BRANCH   2   3
ATOM      3  S   UNL     1       9.794  -2.261  23.541  0.00  0.00    +0.080 S 
ATOM      4  O   UNL     1      10.654  -1.773  22.488  0.00  0.00    -0.147 OA
ATOM      5  O   UNL     1      10.011  -3.539  24.180  0.00  0.00    -0.147 OA
BRANCH   3   6
ATOM      6  O   UNL     1       8.294  -2.291  22.945  0.00  0.00    -0.254 OA
ATOM      7  H   UNL     1       8.339  -2.084  21.989  0.00  0.00    +0.244 HD
ENDBRANCH   3   6
ENDBRANCH   2   3
ENDBRANCH   1   2
BRANCH   1   8
ATOM      8  C   UNL     1       9.736   1.538  24.540  0.00  0.00    +0.086 C 
BRANCH   8   9
ATOM      9  N   UNL     1      10.001   2.418  23.392  0.00  0.00    -0.298 NA
ATOM     10  C   UNL     1       8.975   3.488  23.302  0.00  0.00    +0.112 C 
ATOM     11  C   UNL     1       7.599   2.999  22.810  0.00  0.00    +0.175 C 
ATOM     12  O   UNL     1       7.696   2.304  21.560  0.00  0.00    -0.377 OA
ATOM     13  C   UNL     1       8.629   1.219  21.642  0.00  0.00    +0.175 C 
ATOM     14  C   UNL     1      10.013   1.717  22.087  0.00  0.00    +0.112 C 
ENDBRANCH   8   9
ENDBRANCH   1   8
TORSDOF 5
ENDMDL
MODEL 5
REMARK VINA RESULT:      -4.6      3.631      5.754
REMARK  Name = 
REMARK  5 active torsions:
REMARK  status: ('A' for Active; 'I' for Inactive)
REMARK    1  A    between atoms: O_1  and  S_2
REMARK    2  A    between atoms: S_2  and  C_5
REMARK    3  A    between atoms: C_5  and  C_6
REMARK    4  A    between atoms: C_6  and  C_7
REMARK    5  A    between atoms: C_7  and  N_8
REMARK                            x       y       z     vdW  Elec       q    Type
REMARK                         _______ _______ _______ _____ _____    ______ ____
ROOT
ATOM      1  C   UNL     1       9.914   0.508  24.818  0.00  0.00    +0.040 C 
ENDROOT
BRANCH   1   2
ATOM      2  C   UNL     1      11.039   1.278  24.138  0.00  0.00    +0.199 C 
BRANCH   2   3
ATOM      3  S   UNL     1      10.398   2.749  23.353  0.00  0.00    +0.080 S 
ATOM      4  O   UNL     1       9.065   3.027  23.835  0.00  0.00    -0.147 OA
ATOM      5  O   UNL     1      11.421   3.768  23.294  0.00  0.00    -0.147 OA
BRANCH   3   6
ATOM      6  O   UNL     1      10.242   2.164  21.857  0.00  0.00    -0.254 OA
ATOM      7  H   UNL     1      10.836   1.390  21.766  0.00  0.00    +0.244 HD
ENDBRANCH   3   6
ENDBRANCH   2   3
ENDBRANCH   1   2
BRANCH   1   8
ATOM      8  C   UNL     1       9.546  -0.781  24.079  0.00  0.00    +0.086 C 
BRANCH   8   9
ATOM      9  N   UNL     1       8.902  -0.576  22.773  0.00  0.00    -0.298 NA
ATOM     10  C   UNL     1       7.510  -0.087  22.944  0.00  0.00    +0.112 C 
ATOM     11  C   UNL     1       6.523  -1.164  23.437  0.00  0.00    +0.175 C 
ATOM     12  O   UNL     1       6.538  -2.325  22.597  0.00  0.00    -0.377 OA
ATOM     13  C   UNL     1       7.862  -2.859  22.474  0.00  0.00    +0.175 C 
ATOM     14  C   UNL     1       8.834  -1.798  21.937  0.00  0.00    +0.112 C 
ENDBRANCH   8   9
ENDBRANCH   1   8
TORSDOF 5
ENDMDL
MODEL 6
REMARK VINA RESULT:      -4.6      3.588      5.521
REMARK  Name = 
REMARK  5 active torsions:
REMARK  status: ('A' for Active; 'I' for Inactive)
REMARK    1  A    between atoms: O_1  and  S_2
REMARK    2  A    between atoms: S_2  and  C_5
REMARK    3  A    between atoms: C_5  and  C_6
REMARK    4  A    between atoms: C_6  and  C_7
REMARK    5  A    between atoms: C_7  and  N_8
REMARK                            x       y       z     vdW  Elec       q    Type
REMARK                         _______ _______ _______ _____ _____    ______ ____
ROOT
ATOM      1  C   UNL     1       8.290  -2.928  24.174  0.00  0.00    +0.040 C 
ENDROOT
BRANCH   1   2
ATOM      2  C   UNL     1       9.713  -2.507  23.831  0.00  0.00    +0.199 C 
BRANCH   2   3
ATOM      3  S   UNL     1       9.700  -0.993  22.883  0.00  0.00    +0.080 S 
ATOM      4  O   UNL     1       8.341  -0.553  22.672  0.00  0.00    -0.147 OA
ATOM      5  O   UNL     1      10.733  -0.100  23.357  0.00  0.00    -0.147 OA
BRANCH   3   6
ATOM      6  O   UNL     1      10.220  -1.596  21.478  0.00  0.00    -0.254 OA
ATOM      7  H   UNL     1      10.723  -0.897  21.011  0.00  0.00    +0.244 HD
ENDBRANCH   3   6
ENDBRANCH   2   3
ENDBRANCH   1   2
BRANCH   1   8
ATOM      8  C   UNL     1       7.842  -4.180  23.415  0.00  0.00    +0.086 C 
BRANCH   8   9
ATOM      9  N   UNL     1       7.075  -3.911  22.189  0.00  0.00    -0.298 NA
ATOM     10  C   UNL     1       5.902  -3.048  22.481  0.00  0.00    +0.112 C 
ATOM     11  C   UNL     1       4.761  -3.770  23.224  0.00  0.00    +0.175 C 
ATOM     12  O   UNL     1       4.341  -4.954  22.534  0.00  0.00    -0.377 OA
ATOM     13  C   UNL     1       5.445  -5.838  22.304  0.00  0.00    +0.175 C 
ATOM     14  C   UNL     1       6.562  -5.131  21.521  0.00  0.00    +0.112 C 
ENDBRANCH   8   9
ENDBRANCH   1   8
TORSDOF 5
ENDMDL
MODEL 7
REMARK VINA RESULT:      -4.6      1.360      1.703
REMARK  Name = 
REMARK  5 active torsions:
REMARK  status: ('A' for Active; 'I' for Inactive)
REMARK    1  A    between atoms: O_1  and  S_2
REMARK    2  A    between atoms: S_2  and  C_5
REMARK    3  A    between atoms: C_5  and  C_6
REMARK    4  A    between atoms: C_6  and  C_7
REMARK    5  A    between atoms: C_7  and  N_8
REMARK                            x       y       z     vdW  Elec       q    Type
REMARK                         _______ _______ _______ _____ _____    ______ ____
ROOT
ATOM      1  C   UNL     1       7.428  -3.494  24.045  0.00  0.00    +0.040 C 
ENDROOT
BRANCH   1   2
ATOM      2  C   UNL     1       7.794  -4.942  24.344  0.00  0.00    +0.199 C 
BRANCH   2   3
ATOM      3  S   UNL     1       8.433  -5.090  26.006  0.00  0.00    +0.080 S 
ATOM      4  O   UNL     1       8.854  -3.796  26.491  0.00  0.00    -0.147 OA
ATOM      5  O   UNL     1       7.590  -5.966  26.787  0.00  0.00    -0.147 OA
BRANCH   3   6
ATOM      6  O   UNL     1       9.773  -5.921  25.665  0.00  0.00    -0.254 OA
ATOM      7  H   UNL     1       9.516  -6.742  25.197  0.00  0.00    +0.244 HD
ENDBRANCH   3   6
ENDBRANCH   2   3
ENDBRANCH   1   2
BRANCH   1   8
ATOM      8  C   UNL     1       8.326  -2.863  22.977  0.00  0.00    +0.086 C 
BRANCH   8   9
ATOM      9  N   UNL     1       9.456  -2.087  23.508  0.00  0.00    -0.298 NA
ATOM     10  C   UNL     1       8.974  -0.978  24.371  0.00  0.00    +0.112 C 
ATOM     11  C   UNL     1       8.334   0.189  23.593  0.00  0.00    +0.175 C 
ATOM     12  O   UNL     1       9.211   0.699  22.581  0.00  0.00    -0.377 OA
ATOM     13  C   UNL     1       9.633  -0.341  21.691  0.00  0.00    +0.175 C 
ATOM     14  C   UNL     1      10.315  -1.482  22.463  0.00  0.00    +0.112 C 
ENDBRANCH   8   9
ENDBRANCH   1   8
TORSDOF 5
ENDMDL
MODEL 8
REMARK VINA RESULT:      -4.5      1.311      1.948
REMARK  Name = 
REMARK  5 active torsions:
REMARK  status: ('A' for Active; 'I' for Inactive)
REMARK    1  A    between atoms: O_1  and  S_2
REMARK    2  A    between atoms: S_2  and  C_5
REMARK    3  A    between atoms: C_5  and  C_6
REMARK    4  A    between atoms: C_6  and  C_7
REMARK    5  A    between atoms: C_7  and  N_8
REMARK                            x       y       z     vdW  Elec       q    Type
REMARK                         _______ _______ _______ _____ _____    ______ ____
ROOT
ATOM      1  C   UNL     1       8.722  -1.838  24.803  0.00  0.00    +0.040 C 
ENDROOT
BRANCH   1   2
ATOM      2  C   UNL     1       9.548  -3.021  24.317  0.00  0.00    +0.199 C 
BRANCH   2   3
ATOM      3  S   UNL     1       9.093  -4.503  25.207  0.00  0.00    +0.080 S 
ATOM      4  O   UNL     1       8.958  -4.211  26.615  0.00  0.00    -0.147 OA
ATOM      5  O   UNL     1       8.086  -5.236  24.474  0.00  0.00    -0.147 OA
BRANCH   3   6
ATOM      6  O   UNL     1      10.477  -5.314  25.028  0.00  0.00    -0.254 OA
ATOM      7  H   UNL     1      10.798  -5.575  25.916  0.00  0.00    +0.244 HD
ENDBRANCH   3   6
ENDBRANCH   2   3
ENDBRANCH   1   2
BRANCH   1   8
ATOM      8  C   UNL     1       9.469  -0.506  24.690  0.00  0.00    +0.086 C 
BRANCH   8   9
ATOM      9  N   UNL     1       8.664   0.603  24.155  0.00  0.00    -0.298 NA
ATOM     10  C   UNL     1       8.428   0.427  22.699  0.00  0.00    +0.112 C 
ATOM     11  C   UNL     1       9.669   0.697  21.825  0.00  0.00    +0.175 C 
ATOM     12  O   UNL     1      10.228   1.992  22.079  0.00  0.00    -0.377 OA
ATOM     13  C   UNL     1      10.533   2.159  23.469  0.00  0.00    +0.175 C 
ATOM     14  C   UNL     1       9.284   1.937  24.337  0.00  0.00    +0.112 C 
ENDBRANCH   8   9
ENDBRANCH   1   8
TORSDOF 5
ENDMDL
MODEL 9
REMARK VINA RESULT:      -4.4      2.411      3.070
REMARK  Name = 
REMARK  5 active torsions:
REMARK  status: ('A' for Active; 'I' for Inactive)
REMARK    1  A    between atoms: O_1  and  S_2
REMARK    2  A    between atoms: S_2  and  C_5
REMARK    3  A    between atoms: C_5  and  C_6
REMARK    4  A    between atoms: C_6  and  C_7
REMARK    5  A    between atoms: C_7  and  N_8
REMARK                            x       y       z     vdW  Elec       q    Type
REMARK                         _______ _______ _______ _____ _____    ______ ____
ROOT
ATOM      1  C   UNL     1       6.178  -3.545  25.952  0.00  0.00    +0.040 C 
ENDROOT
BRANCH   1   2
ATOM      2  C   UNL     1       6.490  -4.026  27.363  0.00  0.00    +0.199 C 
BRANCH   2   3
ATOM      3  S   UNL     1       6.734  -5.796  27.374  0.00  0.00    +0.080 S 
ATOM      4  O   UNL     1       6.827  -6.274  28.734  0.00  0.00    -0.147 OA
ATOM      5  O   UNL     1       5.875  -6.424  26.396  0.00  0.00    -0.147 OA
BRANCH   3   6
ATOM      6  O   UNL     1       8.229  -5.827  26.764  0.00  0.00    -0.254 OA
ATOM      7  H   UNL     1       8.312  -5.097  26.117  0.00  0.00    +0.244 HD
ENDBRANCH   3   6
ENDBRANCH   2   3
ENDBRANCH   1   2
BRANCH   1   8
ATOM      8  C   UNL     1       7.363  -2.833  25.292  0.00  0.00    +0.086 C 
BRANCH   8   9
ATOM      9  N   UNL     1       8.177  -3.687  24.413  0.00  0.00    -0.298 NA
ATOM     10  C   UNL     1       9.589  -3.226  24.394  0.00  0.00    +0.112 C 
ATOM     11  C   UNL     1       9.814  -1.925  23.600  0.00  0.00    +0.175 C 
ATOM     12  O   UNL     1       9.310  -2.023  22.261  0.00  0.00    -0.377 OA
ATOM     13  C   UNL     1       7.926  -2.396  22.256  0.00  0.00    +0.175 C 
ATOM     14  C   UNL     1       7.711  -3.719  23.007  0.00  0.00    +0.112 C 
ENDBRANCH   8   9
ENDBRANCH   1   8
TORSDOF 5
ENDMDL
