MODEL 1
REMARK VINA RESULT:      -6.3      0.000      0.000
REMARK  Name = 
REMARK  8 active torsions:
REMARK  status: ('A' for Active; 'I' for Inactive)
REMARK    1  A    between atoms: C_1  and  C_2
REMARK    2  A    between atoms: C_2  and  C_3
REMARK    3  A    between atoms: C_3  and  C_4
REMARK    4  A    between atoms: C_4  and  N_5
REMARK    5  A    between atoms: C_10  and  C_11
REMARK    6  A    between atoms: N_13  and  C_14
REMARK    7  A    between atoms: C_15  and  C_16
REMARK    8  A    between atoms: C_20  and  C_21
REMARK                            x       y       z     vdW  Elec       q    Type
REMARK                         _______ _______ _______ _____ _____    ______ ____
ROOT
ATOM      1  C   UNL     1       8.962  -2.712  23.799  0.00  0.00    +0.234 C 
ATOM      2  N   UNL     1       8.293  -1.502  23.669  0.00  0.00    -0.284 N 
ATOM      3  H   UNL     1       7.403  -1.498  24.152  0.00  0.00    +0.155 HD
ATOM      4  O   UNL     1      10.192  -2.814  23.798  0.00  0.00    -0.274 OA
ENDROOT
BRANCH   2   5
ATOM      5  C   UNL     1       8.990  -0.274  23.504  0.00  0.00    +0.039 A 
ATOM      6  C   UNL     1       9.261   0.510  24.649  0.00  0.00    -0.029 A 
ATOM      7  C   UNL     1       8.952   0.025  26.040  0.00  0.00    +0.045 C 
ATOM      8  C   UNL     1       9.949   1.730  24.512  0.00  0.00    +0.005 A 
ATOM      9  C   UNL     1      10.369   2.177  23.266  0.00  0.00    +0.001 A 
ATOM     10  C   UNL     1      10.104   1.412  22.136  0.00  0.00    +0.005 A 
ATOM     11  C   UNL     1       9.403   0.194  22.232  0.00  0.00    -0.029 A 
ATOM     12  C   UNL     1       9.148  -0.521  20.929  0.00  0.00    +0.045 C 
ENDBRANCH   2   5
BRANCH   1  14
ATOM     13  N   UNL     1       6.756  -3.696  24.617  0.00  0.00    -0.291 NA
ATOM     14  C   UNL     1       8.043  -3.965  23.886  0.00  0.00    +0.143 C 
ATOM     15  C   UNL     1       8.842  -5.133  24.497  0.00  0.00    +0.028 C 
ATOM     16  C   UNL     1       9.076  -4.948  25.998  0.00  0.00    +0.003 C 
ATOM     17  C   UNL     1       7.811  -4.544  26.748  0.00  0.00    +0.015 C 
ATOM     18  C   UNL     1       7.048  -3.422  26.038  0.00  0.00    +0.085 C 
BRANCH  13  19
ATOM     19  C   UNL     1       5.844  -4.864  24.453  0.00  0.00    +0.085 C 
BRANCH  19  20
ATOM     20  C   UNL     1       5.092  -4.984  23.117  0.00  0.00    +0.015 C 
BRANCH  20  22
ATOM     21  C   UNL     1       6.325  -5.669  21.033  0.00  0.00    +0.004 C 
ATOM     22  C   UNL     1       5.578  -6.152  22.267  0.00  0.00    -0.002 C 
ENDBRANCH  20  22
ENDBRANCH  19  20
ENDBRANCH  13  19
ENDBRANCH   1  14
TORSDOF 5
ENDMDL
MODEL 2
REMARK VINA RESULT:      -6.2      1.787      6.858
REMARK  Name = 
REMARK  8 active torsions:
REMARK  status: ('A' for Active; 'I' for Inactive)
REMARK    1  A    between atoms: C_1  and  C_2
REMARK    2  A    between atoms: C_2  and  C_3
REMARK    3  A    between atoms: C_3  and  C_4
REMARK    4  A    between atoms: C_4  and  N_5
REMARK    5  A    between atoms: C_10  and  C_11
REMARK    6  A    between atoms: N_13  and  C_14
REMARK    7  A    between atoms: C_15  and  C_16
REMARK    8  A    between atoms: C_20  and  C_21
REMARK                            x       y       z     vdW  Elec       q    Type
REMARK                         _______ _______ _______ _____ _____    ______ ____
ROOT
ATOM      1  C   UNL     1       8.576  -1.375  24.521  0.00  0.00    +0.234 C 
ATOM      2  N   UNL     1       8.685  -2.695  24.104  0.00  0.00    -0.284 N 
ATOM      3  H   UNL     1       9.646  -3.014  24.074  0.00  0.00    +0.155 HD
ATOM      4  O   UNL     1       7.601  -0.934  25.136  0.00  0.00    -0.274 OA
ENDROOT
BRANCH   2   5
ATOM      5  C   UNL     1       7.654  -3.645  24.343  0.00  0.00    +0.039 A 
ATOM      6  C   UNL     1       7.747  -4.472  25.486  0.00  0.00    -0.029 A 
ATOM      7  C   UNL     1       8.828  -4.290  26.517  0.00  0.00    +0.045 C 
ATOM      8  C   UNL     1       6.740  -5.421  25.744  0.00  0.00    +0.005 A 
ATOM      9  C   UNL     1       5.651  -5.556  24.892  0.00  0.00    +0.001 A 
ATOM     10  C   UNL     1       5.556  -4.747  23.767  0.00  0.00    +0.005 A 
ATOM     11  C   UNL     1       6.553  -3.799  23.466  0.00  0.00    -0.029 A 
ATOM     12  C   UNL     1       6.348  -3.011  22.197  0.00  0.00    +0.045 C 
ENDBRANCH   2   5
BRANCH   1  14
ATOM     13  N   UNL     1       9.358   0.990  23.977  0.00  0.00    -0.291 NA
ATOM     14  C   UNL     1       9.759  -0.454  24.102  0.00  0.00    +0.143 C 
ATOM     15  C   UNL     1      10.396  -1.010  22.814  0.00  0.00    +0.028 C 
ATOM     16  C   UNL     1       9.512  -0.776  21.586  0.00  0.00    +0.003 C 
ATOM     17  C   UNL     1       8.982   0.652  21.503  0.00  0.00    +0.015 C 
ATOM     18  C   UNL     1       8.426   1.143  22.842  0.00  0.00    +0.085 C 
BRANCH  13  19
ATOM     19  C   UNL     1      10.582   1.826  23.805  0.00  0.00    +0.085 C 
BRANCH  19  20
ATOM     20  C   UNL     1      10.376   3.338  23.615  0.00  0.00    +0.015 C 
BRANCH  20  22
ATOM     21  C   UNL     1      11.529   5.575  23.586  0.00  0.00    +0.004 C 
ATOM     22  C   UNL     1      11.676   4.082  23.333  0.00  0.00    -0.002 C 
ENDBRANCH  20  22
ENDBRANCH  19  20
ENDBRANCH  13  19
ENDBRANCH   1  14
TORSDOF 5
ENDMDL
MODEL 3
REMARK VINA RESULT:      -6.2      1.774      7.056
REMARK  Name = 
REMARK  8 active torsions:
REMARK  status: ('A' for Active; 'I' for Inactive)
REMARK    1  A    between atoms: C_1  and  C_2
REMARK    2  A    between atoms: C_2  and  C_3
REMARK    3  A    between atoms: C_3  and  C_4
REMARK    4  A    between atoms: C_4  and  N_5
REMARK    5  A    between atoms: C_10  and  C_11
REMARK    6  A    between atoms: N_13  and  C_14
REMARK    7  A    between atoms: C_15  and  C_16
REMARK    8  A    between atoms: C_20  and  C_21
REMARK                            x       y       z     vdW  Elec       q    Type
REMARK                         _______ _______ _______ _____ _____    ______ ____
ROOT
ATOM      1  C   UNL     1       8.733  -1.394  24.579  0.00  0.00    +0.234 C 
ATOM      2  N   UNL     1       8.788  -2.688  24.081  0.00  0.00    -0.284 N 
ATOM      3  H   UNL     1       9.738  -3.010  23.940  0.00  0.00    +0.155 HD
ATOM      4  O   UNL     1       7.827  -0.982  25.308  0.00  0.00    -0.274 OA
ENDROOT
BRANCH   2   5
ATOM      5  C   UNL     1       7.775  -3.645  24.365  0.00  0.00    +0.039 A 
ATOM      6  C   UNL     1       6.679  -3.755  23.478  0.00  0.00    -0.029 A 
ATOM      7  C   UNL     1       6.619  -2.988  22.185  0.00  0.00    +0.045 C 
ATOM      8  C   UNL     1       5.663  -4.693  23.739  0.00  0.00    +0.005 A 
ATOM      9  C   UNL     1       5.720  -5.517  24.855  0.00  0.00    +0.001 A 
ATOM     10  C   UNL     1       6.794  -5.412  25.731  0.00  0.00    +0.005 A 
ATOM     11  C   UNL     1       7.821  -4.473  25.514  0.00  0.00    -0.029 A 
ATOM     12  C   UNL     1       8.908  -4.435  26.557  0.00  0.00    +0.045 C 
ENDBRANCH   2   5
BRANCH   1  14
ATOM     13  N   UNL     1       9.469   0.990  24.048  0.00  0.00    -0.291 NA
ATOM     14  C   UNL     1       9.880  -0.456  24.099  0.00  0.00    +0.143 C 
ATOM     15  C   UNL     1      10.417  -0.971  22.749  0.00  0.00    +0.028 C 
ATOM     16  C   UNL     1       9.442  -0.703  21.600  0.00  0.00    +0.003 C 
ATOM     17  C   UNL     1       8.906   0.725  21.601  0.00  0.00    +0.015 C 
ATOM     18  C   UNL     1       8.453   1.174  22.993  0.00  0.00    +0.085 C 
BRANCH  13  19
ATOM     19  C   UNL     1      10.675   1.834  23.809  0.00  0.00    +0.085 C 
BRANCH  19  20
ATOM     20  C   UNL     1      10.438   3.324  23.506  0.00  0.00    +0.015 C 
BRANCH  20  22
ATOM     21  C   UNL     1      11.509   5.600  23.582  0.00  0.00    +0.004 C 
ATOM     22  C   UNL     1      11.735   4.111  23.361  0.00  0.00    -0.002 C 
ENDBRANCH  20  22
ENDBRANCH  19  20
ENDBRANCH  13  19
ENDBRANCH   1  14
TORSDOF 5
ENDMDL
MODEL 4
REMARK VINA RESULT:      -6.1      0.402      1.914
REMARK  Name = 
REMARK  8 active torsions:
REMARK  status: ('A' for Active; 'I' for Inactive)
REMARK    1  A    between atoms: C_1  and  C_2
REMARK    2  A    between atoms: C_2  and  C_3
REMARK    3  A    between atoms: C_3  and  C_4
REMARK    4  A    between atoms: C_4  and  N_5
REMARK    5  A    between atoms: C_10  and  C_11
REMARK    6  A    between atoms: N_13  and  C_14
REMARK    7  A    between atoms: C_15  and  C_16
REMARK    8  A    between atoms: C_20  and  C_21
REMARK                            x       y       z     vdW  Elec       q    Type
REMARK                         _______ _______ _______ _____ _____    ______ ____
ROOT
ATOM      1  C   UNL     1       8.769  -2.427  23.956  0.00  0.00    +0.234 C 
ATOM      2  N   UNL     1       8.109  -1.247  23.636  0.00  0.00    -0.284 N 
ATOM      3  H   UNL     1       7.143  -1.249  23.939  0.00  0.00    +0.155 HD
ATOM      4  O   UNL     1       9.978  -2.487  24.196  0.00  0.00    -0.274 OA
ENDROOT
BRANCH   2   5
ATOM      5  C   UNL     1       8.797  -0.006  23.542  0.00  0.00    +0.039 A 
ATOM      6  C   UNL     1       9.504   0.288  22.353  0.00  0.00    -0.029 A 
ATOM      7  C   UNL     1       9.443  -0.608  21.145  0.00  0.00    +0.045 C 
ATOM      8  C   UNL     1      10.193   1.510  22.236  0.00  0.00    +0.005 A 
ATOM      9  C   UNL     1      10.188   2.435  23.271  0.00  0.00    +0.001 A 
ATOM     10  C   UNL     1       9.496   2.151  24.443  0.00  0.00    +0.005 A 
ATOM     11  C   UNL     1       8.810   0.931  24.604  0.00  0.00    -0.029 A 
ATOM     12  C   UNL     1       8.131   0.731  25.935  0.00  0.00    +0.045 C 
ENDBRANCH   2   5
BRANCH   1  14
ATOM     13  N   UNL     1       6.588  -3.530  24.683  0.00  0.00    -0.291 NA
ATOM     14  C   UNL     1       7.880  -3.704  23.932  0.00  0.00    +0.143 C 
ATOM     15  C   UNL     1       8.707  -4.902  24.438  0.00  0.00    +0.028 C 
ATOM     16  C   UNL     1       8.940  -4.844  25.950  0.00  0.00    +0.003 C 
ATOM     17  C   UNL     1       7.666  -4.538  26.732  0.00  0.00    +0.015 C 
ATOM     18  C   UNL     1       6.876  -3.376  26.123  0.00  0.00    +0.085 C 
BRANCH  13  19
ATOM     19  C   UNL     1       5.704  -4.701  24.417  0.00  0.00    +0.085 C 
BRANCH  19  20
ATOM     20  C   UNL     1       5.054  -4.786  23.025  0.00  0.00    +0.015 C 
BRANCH  20  22
ATOM     21  C   UNL     1       6.444  -5.644  21.110  0.00  0.00    +0.004 C 
ATOM     22  C   UNL     1       5.496  -6.016  22.240  0.00  0.00    -0.002 C 
ENDBRANCH  20  22
ENDBRANCH  19  20
ENDBRANCH  13  19
ENDBRANCH   1  14
TORSDOF 5
ENDMDL
MODEL 5
REMARK VINA RESULT:      -5.9      2.518      3.662
REMARK  Name = 
REMARK  8 active torsions:
REMARK  status: ('A' for Active; 'I' for Inactive)
REMARK    1  A    between atoms: C_1  and  C_2
REMARK    2  A    between atoms: C_2  and  C_3
REMARK    3  A    between atoms: C_3  and  C_4
REMARK    4  A    between atoms: C_4  and  N_5
REMARK    5  A    between atoms: C_10  and  C_11
REMARK    6  A    between atoms: N_13  and  C_14
REMARK    7  A    between atoms: C_15  and  C_16
REMARK    8  A    between atoms: C_20  and  C_21
REMARK                            x       y       z     vdW  Elec       q    Type
REMARK                         _______ _______ _______ _____ _____    ______ ____
ROOT
ATOM      1  C   UNL     1       7.787   0.444  23.076  0.00  0.00    +0.234 C 
ATOM      2  N   UNL     1       8.210   1.548  22.348  0.00  0.00    -0.284 N 
ATOM      3  H   UNL     1       8.033   1.450  21.356  0.00  0.00    +0.155 HD
ATOM      4  O   UNL     1       7.394   0.507  24.244  0.00  0.00    -0.274 OA
ENDROOT
BRANCH   2   5
ATOM      5  C   UNL     1       8.240   2.852  22.914  0.00  0.00    +0.039 A 
ATOM      6  C   UNL     1       9.435   3.298  23.524  0.00  0.00    -0.029 A 
ATOM      7  C   UNL     1      10.705   2.491  23.478  0.00  0.00    +0.045 C 
ATOM      8  C   UNL     1       9.490   4.584  24.093  0.00  0.00    +0.005 A 
ATOM      9  C   UNL     1       8.386   5.427  24.062  0.00  0.00    +0.001 A 
ATOM     10  C   UNL     1       7.208   4.993  23.465  0.00  0.00    +0.005 A 
ATOM     11  C   UNL     1       7.110   3.706  22.901  0.00  0.00    -0.029 A 
ATOM     12  C   UNL     1       5.767   3.345  22.319  0.00  0.00    +0.045 C 
ENDBRANCH   2   5
BRANCH   1  14
ATOM     13  N   UNL     1       7.582  -2.095  23.209  0.00  0.00    -0.291 NA
ATOM     14  C   UNL     1       7.899  -0.917  22.329  0.00  0.00    +0.143 C 
ATOM     15  C   UNL     1       9.292  -1.019  21.676  0.00  0.00    +0.028 C 
ATOM     16  C   UNL     1      10.396  -1.262  22.708  0.00  0.00    +0.003 C 
ATOM     17  C   UNL     1      10.045  -2.366  23.699  0.00  0.00    +0.015 C 
ATOM     18  C   UNL     1       8.623  -2.222  24.249  0.00  0.00    +0.085 C 
BRANCH  13  19
ATOM     19  C   UNL     1       7.485  -3.324  22.369  0.00  0.00    +0.085 C 
BRANCH  19  20
ATOM     20  C   UNL     1       7.157  -4.641  23.092  0.00  0.00    +0.015 C 
BRANCH  20  22
ATOM     21  C   UNL     1       6.136  -5.868  21.146  0.00  0.00    +0.004 C 
ATOM     22  C   UNL     1       7.254  -5.857  22.178  0.00  0.00    -0.002 C 
ENDBRANCH  20  22
ENDBRANCH  19  20
ENDBRANCH  13  19
ENDBRANCH   1  14
TORSDOF 5
ENDMDL
MODEL 6
REMARK VINA RESULT:      -5.9      2.429      3.647
REMARK  Name = 
REMARK  8 active torsions:
REMARK  status: ('A' for Active; 'I' for Inactive)
REMARK    1  A    between atoms: C_1  and  C_2
REMARK    2  A    between atoms: C_2  and  C_3
REMARK    3  A    between atoms: C_3  and  C_4
REMARK    4  A    between atoms: C_4  and  N_5
REMARK    5  A    between atoms: C_10  and  C_11
REMARK    6  A    between atoms: N_13  and  C_14
REMARK    7  A    between atoms: C_15  and  C_16
REMARK    8  A    between atoms: C_20  and  C_21
REMARK                            x       y       z     vdW  Elec       q    Type
REMARK                         _______ _______ _______ _____ _____    ______ ____
ROOT
ATOM      1  C   UNL     1       7.836   0.328  23.121  0.00  0.00    +0.234 C 
ATOM      2  N   UNL     1       8.256   1.403  22.349  0.00  0.00    -0.284 N 
ATOM      3  H   UNL     1       8.031   1.288  21.368  0.00  0.00    +0.155 HD
ATOM      4  O   UNL     1       7.498   0.429  24.304  0.00  0.00    -0.274 OA
ENDROOT
BRANCH   2   5
ATOM      5  C   UNL     1       8.347   2.719  22.882  0.00  0.00    +0.039 A 
ATOM      6  C   UNL     1       7.233   3.581  22.751  0.00  0.00    -0.029 A 
ATOM      7  C   UNL     1       5.921   3.109  22.186  0.00  0.00    +0.045 C 
ATOM      8  C   UNL     1       7.299   4.888  23.269  0.00  0.00    +0.005 A 
ATOM      9  C   UNL     1       8.442   5.345  23.911  0.00  0.00    +0.001 A 
ATOM     10  C   UNL     1       9.540   4.503  24.041  0.00  0.00    +0.005 A 
ATOM     11  C   UNL     1       9.518   3.195  23.520  0.00  0.00    -0.029 A 
ATOM     12  C   UNL     1      10.786   2.397  23.695  0.00  0.00    +0.045 C 
ENDBRANCH   2   5
BRANCH   1  14
ATOM     13  N   UNL     1       7.575  -2.200  23.325  0.00  0.00    -0.291 NA
ATOM     14  C   UNL     1       7.877  -1.052  22.402  0.00  0.00    +0.143 C 
ATOM     15  C   UNL     1       9.232  -1.204  21.685  0.00  0.00    +0.028 C 
ATOM     16  C   UNL     1      10.380  -1.452  22.667  0.00  0.00    +0.003 C 
ATOM     17  C   UNL     1      10.051  -2.525  23.700  0.00  0.00    +0.015 C 
ATOM     18  C   UNL     1       8.663  -2.331  24.316  0.00  0.00    +0.085 C 
BRANCH  13  19
ATOM     19  C   UNL     1       7.405  -3.445  22.521  0.00  0.00    +0.085 C 
BRANCH  19  20
ATOM     20  C   UNL     1       7.245  -4.763  23.297  0.00  0.00    +0.015 C 
BRANCH  20  22
ATOM     21  C   UNL     1       6.302  -5.523  21.091  0.00  0.00    +0.004 C 
ATOM     22  C   UNL     1       6.971  -5.955  22.387  0.00  0.00    -0.002 C 
ENDBRANCH  20  22
ENDBRANCH  19  20
ENDBRANCH  13  19
ENDBRANCH   1  14
TORSDOF 5
ENDMDL
MODEL 7
REMARK VINA RESULT:      -5.9      0.746      2.274
REMARK  Name = 
REMARK  8 active torsions:
REMARK  status: ('A' for Active; 'I' for Inactive)
REMARK    1  A    between atoms: C_1  and  C_2
REMARK    2  A    between atoms: C_2  and  C_3
REMARK    3  A    between atoms: C_3  and  C_4
REMARK    4  A    between atoms: C_4  and  N_5
REMARK    5  A    between atoms: C_10  and  C_11
REMARK    6  A    between atoms: N_13  and  C_14
REMARK    7  A    between atoms: C_15  and  C_16
REMARK    8  A    between atoms: C_20  and  C_21
REMARK                            x       y       z     vdW  Elec       q    Type
REMARK                         _______ _______ _______ _____ _____    ______ ____
ROOT
ATOM      1  C   UNL     1       9.034  -2.954  23.852  0.00  0.00    +0.234 C 
ATOM      2  N   UNL     1       8.321  -1.776  23.666  0.00  0.00    -0.284 N 
ATOM      3  H   UNL     1       7.386  -1.824  24.053  0.00  0.00    +0.155 HD
ATOM      4  O   UNL     1      10.260  -2.995  23.980  0.00  0.00    -0.274 OA
ENDROOT
BRANCH   2   5
ATOM      5  C   UNL     1       8.968  -0.513  23.589  0.00  0.00    +0.039 A 
ATOM      6  C   UNL     1       9.422  -0.061  22.328  0.00  0.00    -0.029 A 
ATOM      7  C   UNL     1       9.127  -0.811  21.057  0.00  0.00    +0.045 C 
ATOM      8  C   UNL     1      10.067   1.186  22.225  0.00  0.00    +0.005 A 
ATOM      9  C   UNL     1      10.264   1.983  23.345  0.00  0.00    +0.001 A 
ATOM     10  C   UNL     1       9.821   1.543  24.587  0.00  0.00    +0.005 A 
ATOM     11  C   UNL     1       9.188   0.294  24.732  0.00  0.00    -0.029 A 
ATOM     12  C   UNL     1       8.790  -0.081  26.138  0.00  0.00    +0.045 C 
ENDBRANCH   2   5
BRANCH   1  14
ATOM     13  N   UNL     1       6.731  -4.003  24.170  0.00  0.00    -0.291 NA
ATOM     14  C   UNL     1       8.175  -4.252  23.829  0.00  0.00    +0.143 C 
ATOM     15  C   UNL     1       8.830  -5.305  24.743  0.00  0.00    +0.028 C 
ATOM     16  C   UNL     1       8.653  -4.971  26.226  0.00  0.00    +0.003 C 
ATOM     17  C   UNL     1       7.220  -4.586  26.578  0.00  0.00    +0.015 C 
ATOM     18  C   UNL     1       6.627  -3.585  25.583  0.00  0.00    +0.085 C 
BRANCH  13  19
ATOM     19  C   UNL     1       5.943  -5.240  23.899  0.00  0.00    +0.085 C 
BRANCH  19  20
ATOM     20  C   UNL     1       4.880  -5.163  22.789  0.00  0.00    +0.015 C 
BRANCH  20  22
ATOM     21  C   UNL     1       3.160  -4.708  24.568  0.00  0.00    +0.004 C 
ATOM     22  C   UNL     1       3.475  -5.473  23.292  0.00  0.00    -0.002 C 
ENDBRANCH  20  22
ENDBRANCH  19  20
ENDBRANCH  13  19
ENDBRANCH   1  14
TORSDOF 5
ENDMDL
MODEL 8
REMARK VINA RESULT:      -5.8      1.609      2.689
REMARK  Name = 
REMARK  8 active torsions:
REMARK  status: ('A' for Active; 'I' for Inactive)
REMARK    1  A    between atoms: C_1  and  C_2
REMARK    2  A    between atoms: C_2  and  C_3
REMARK    3  A    between atoms: C_3  and  C_4
REMARK    4  A    between atoms: C_4  and  N_5
REMARK    5  A    between atoms: C_10  and  C_11
REMARK    6  A    between atoms: N_13  and  C_14
REMARK    7  A    between atoms: C_15  and  C_16
REMARK    8  A    between atoms: C_20  and  C_21
REMARK                            x       y       z     vdW  Elec       q    Type
REMARK                         _______ _______ _______ _____ _____    ______ ____
ROOT
ATOM      1  C   UNL     1       7.797  -1.986  24.425  0.00  0.00    +0.234 C 
ATOM      2  N   UNL     1       7.432  -0.785  23.831  0.00  0.00    -0.284 N 
ATOM      3  H   UNL     1       6.471  -0.533  24.024  0.00  0.00    +0.155 HD
ATOM      4  O   UNL     1       8.945  -2.240  24.800  0.00  0.00    -0.274 OA
ENDROOT
BRANCH   2   5
ATOM      5  C   UNL     1       8.378   0.250  23.590  0.00  0.00    +0.039 A 
ATOM      6  C   UNL     1       8.450   1.327  24.503  0.00  0.00    -0.029 A 
ATOM      7  C   UNL     1       7.654   1.346  25.781  0.00  0.00    +0.045 C 
ATOM      8  C   UNL     1       9.376   2.364  24.287  0.00  0.00    +0.005 A 
ATOM      9  C   UNL     1      10.226   2.345  23.188  0.00  0.00    +0.001 A 
ATOM     10  C   UNL     1      10.158   1.289  22.286  0.00  0.00    +0.005 A 
ATOM     11  C   UNL     1       9.232   0.243  22.460  0.00  0.00    -0.029 A 
ATOM     12  C   UNL     1       9.235  -0.821  21.392  0.00  0.00    +0.045 C 
ENDBRANCH   2   5
BRANCH   1  14
ATOM     13  N   UNL     1       7.163  -4.452  24.563  0.00  0.00    -0.291 NA
ATOM     14  C   UNL     1       6.654  -3.037  24.536  0.00  0.00    +0.143 C 
ATOM     15  C   UNL     1       5.635  -2.792  23.406  0.00  0.00    +0.028 C 
ATOM     16  C   UNL     1       6.175  -3.221  22.039  0.00  0.00    +0.003 C 
ATOM     17  C   UNL     1       6.817  -4.604  22.066  0.00  0.00    +0.015 C 
ATOM     18  C   UNL     1       7.765  -4.781  23.255  0.00  0.00    +0.085 C 
BRANCH  13  19
ATOM     19  C   UNL     1       6.039  -5.372  24.902  0.00  0.00    +0.085 C 
BRANCH  19  20
ATOM     20  C   UNL     1       5.896  -5.789  26.375  0.00  0.00    +0.015 C 
BRANCH  20  22
ATOM     21  C   UNL     1       4.071  -7.145  25.295  0.00  0.00    +0.004 C 
ATOM     22  C   UNL     1       4.785  -6.809  26.596  0.00  0.00    -0.002 C 
ENDBRANCH  20  22
ENDBRANCH  19  20
ENDBRANCH  13  19
ENDBRANCH   1  14
TORSDOF 5
ENDMDL
MODEL 9
REMARK VINA RESULT:      -5.8      1.677      3.478
REMARK  Name = 
REMARK  8 active torsions:
REMARK  status: ('A' for Active; 'I' for Inactive)
REMARK    1  A    between atoms: C_1  and  C_2
REMARK    2  A    between atoms: C_2  and  C_3
REMARK    3  A    between atoms: C_3  and  C_4
REMARK    4  A    between atoms: C_4  and  N_5
REMARK    5  A    between atoms: C_10  and  C_11
REMARK    6  A    between atoms: N_13  and  C_14
REMARK    7  A    between atoms: C_15  and  C_16
REMARK    8  A    between atoms: C_20  and  C_21
REMARK                            x       y       z     vdW  Elec       q    Type
REMARK                         _______ _______ _______ _____ _____    ______ ____
ROOT
ATOM      1  C   UNL     1       7.500  -3.361  24.310  0.00  0.00    +0.234 C 
ATOM      2  N   UNL     1       7.431  -1.990  24.100  0.00  0.00    -0.284 N 
ATOM      3  H   UNL     1       6.523  -1.607  24.335  0.00  0.00    +0.155 HD
ATOM      4  O   UNL     1       8.538  -3.952  24.621  0.00  0.00    -0.274 OA
ENDROOT
BRANCH   2   5
ATOM      5  C   UNL     1       8.578  -1.156  24.213  0.00  0.00    +0.039 A 
ATOM      6  C   UNL     1       9.375  -0.943  23.065  0.00  0.00    -0.029 A 
ATOM      7  C   UNL     1       8.978  -1.461  21.709  0.00  0.00    +0.045 C 
ATOM      8  C   UNL     1      10.516  -0.123  23.151  0.00  0.00    +0.005 A 
ATOM      9  C   UNL     1      10.870   0.484  24.349  0.00  0.00    +0.001 A 
ATOM     10  C   UNL     1      10.091   0.277  25.481  0.00  0.00    +0.005 A 
ATOM     11  C   UNL     1       8.953  -0.552  25.438  0.00  0.00    -0.029 A 
ATOM     12  C   UNL     1       8.216  -0.723  26.742  0.00  0.00    +0.045 C 
ENDBRANCH   2   5
BRANCH   1  14
ATOM     13  N   UNL     1       6.385  -5.589  23.766  0.00  0.00    -0.291 NA
ATOM     14  C   UNL     1       6.170  -4.131  24.062  0.00  0.00    +0.143 C 
ATOM     15  C   UNL     1       5.371  -3.410  22.958  0.00  0.00    +0.028 C 
ATOM     16  C   UNL     1       5.986  -3.617  21.572  0.00  0.00    +0.003 C 
ATOM     17  C   UNL     1       6.338  -5.075  21.294  0.00  0.00    +0.015 C 
ATOM     18  C   UNL     1       7.074  -5.729  22.467  0.00  0.00    +0.085 C 
BRANCH  13  19
ATOM     19  C   UNL     1       5.069  -6.291  23.774  0.00  0.00    +0.085 C 
BRANCH  19  20
ATOM     20  C   UNL     1       4.218  -6.170  25.049  0.00  0.00    +0.015 C 
BRANCH  20  22
ATOM     21  C   UNL     1       2.469  -5.594  23.333  0.00  0.00    +0.004 C 
ATOM     22  C   UNL     1       2.726  -6.065  24.757  0.00  0.00    -0.002 C 
ENDBRANCH  20  22
ENDBRANCH  19  20
ENDBRANCH  13  19
ENDBRANCH   1  14
TORSDOF 5
ENDMDL
