MODEL 1
REMARK VINA RESULT:      -7.0      0.000      0.000
REMARK  Name = 
REMARK  7 active torsions:
REMARK  status: ('A' for Active; 'I' for Inactive)
REMARK    1  A    between atoms: C_5  and  C_6
REMARK    2  A    between atoms: CA_7  and  C_25
REMARK    3  A    between atoms: CA_11  and  N_13
REMARK    4  A    between atoms: C_14  and  CA_16
REMARK    5  A    between atoms: CA_16  and  N_18
REMARK    6  A    between atoms: CA_16  and  C_19
REMARK    7  A    between atoms: C_25  and  O_26
REMARK                            x       y       z     vdW  Elec       q    Type
REMARK                         _______ _______ _______ _____ _____    ______ ____
ROOT
ATOM      1  C   UNL     1       7.689  -5.238  25.509  0.00  0.00    +0.169 C 
ATOM      2  CA  UNL     1       8.672  -4.526  24.522  0.00  0.00    +0.191 C 
ATOM      3  C   UNL     1       7.543  -4.815  23.470  0.00  0.00    +0.244 C 
ATOM      4  O   UNL     1       7.347  -4.707  22.284  0.00  0.00    -0.273 OA
ATOM      5  N   UNL     1       6.692  -5.173  24.456  0.00  0.00    -0.249 N 
ATOM      6  CA  UNL     1       5.357  -5.416  24.622  0.00  0.00    +0.122 C 
ATOM      7  C   UNL     1       4.839  -5.435  25.883  0.00  0.00    -0.034 C 
ATOM      8  C   UNL     1       3.369  -5.645  26.189  0.00  0.00    +0.042 C 
ATOM      9  C   UNL     1       5.633  -5.199  27.153  0.00  0.00    +0.103 C 
ATOM     10  S   UNL     1       7.143  -4.243  26.918  0.00  0.00    -0.131 S 
ENDROOT
BRANCH   2  11
ATOM     11  N   UNL     1       8.925  -3.095  24.800  0.00  0.00    -0.300 N 
ATOM     12  H   UNL     1       8.469  -2.627  25.585  0.00  0.00    +0.150 HD
ATOM     13  C   UNL     1       9.752  -2.287  24.054  0.00  0.00    +0.235 C 
ATOM     14  O   UNL     1      10.389  -2.690  23.087  0.00  0.00    -0.274 OA
BRANCH  13  15
ATOM     15  CA  UNL     1       9.796  -0.826  24.572  0.00  0.00    +0.168 C 
BRANCH  15  16
ATOM     16  C   UNL     1       9.253   0.149  23.544  0.00  0.00    -0.022 A 
ATOM     17  C   UNL     1      10.093   0.881  22.687  0.00  0.00    +0.005 A 
ATOM     18  C   UNL     1       9.558   1.759  21.740  0.00  0.00    +0.000 A 
ATOM     19  C   UNL     1       8.179   1.928  21.647  0.00  0.00    +0.000 A 
ATOM     20  C   UNL     1       7.334   1.232  22.507  0.00  0.00    +0.000 A 
ATOM     21  C   UNL     1       7.868   0.351  23.452  0.00  0.00    +0.005 A 
ENDBRANCH  15  16
BRANCH  15  22
ATOM     22  N   UNL     1       9.061  -0.737  25.866  0.00  0.00    -0.316 NA
ATOM     23  H1  UNL     1       9.654  -1.143  26.592  0.00  0.00    +0.119 HD
ATOM     24  H2  UNL     1       8.983   0.253  26.101  0.00  0.00    +0.119 HD
ENDBRANCH  15  22
ENDBRANCH  13  15
ENDBRANCH   2  11
BRANCH   6  25
ATOM     25  C   UNL     1       4.439  -5.637  23.427  0.00  0.00    +0.351 C 
ATOM     26  OXT UNL     1       3.949  -4.727  22.772  0.00  0.00    -0.244 OA
BRANCH  25  27
ATOM     27  O   UNL     1       4.093  -6.905  23.141  0.00  0.00    -0.476 OA
ATOM     28  H   UNL     1       3.880  -7.127  22.209  0.00  0.00    +0.295 HD
ENDBRANCH  25  27
ENDBRANCH   6  25
TORSDOF 6
ENDMDL
MODEL 2
REMARK VINA RESULT:      -7.0      3.051      4.132
REMARK  Name = 
REMARK  7 active torsions:
REMARK  status: ('A' for Active; 'I' for Inactive)
REMARK    1  A    between atoms: C_5  and  C_6
REMARK    2  A    between atoms: CA_7  and  C_25
REMARK    3  A    between atoms: CA_11  and  N_13
REMARK    4  A    between atoms: C_14  and  CA_16
REMARK    5  A    between atoms: CA_16  and  N_18
REMARK    6  A    between atoms: CA_16  and  C_19
REMARK    7  A    between atoms: C_25  and  O_26
REMARK                            x       y       z     vdW  Elec       q    Type
REMARK                         _______ _______ _______ _____ _____    ______ ____
ROOT
ATOM      1  C   UNL     1       7.841  -1.366  25.473  0.00  0.00    +0.169 C 
ATOM      2  CA  UNL     1       9.206  -0.716  25.072  0.00  0.00    +0.191 C 
ATOM      3  C   UNL     1       9.411  -2.057  24.283  0.00  0.00    +0.244 C 
ATOM      4  O   UNL     1      10.261  -2.620  23.635  0.00  0.00    -0.273 OA
ATOM      5  N   UNL     1       8.119  -2.394  24.486  0.00  0.00    -0.249 N 
ATOM      6  CA  UNL     1       7.211  -3.308  24.027  0.00  0.00    +0.122 C 
ATOM      7  C   UNL     1       5.884  -3.098  24.258  0.00  0.00    -0.034 C 
ATOM      8  C   UNL     1       4.784  -4.013  23.757  0.00  0.00    +0.042 C 
ATOM      9  C   UNL     1       5.309  -1.903  24.995  0.00  0.00    +0.103 C 
ATOM     10  S   UNL     1       6.365  -0.443  24.983  0.00  0.00    -0.131 S 
ENDROOT
BRANCH   2  11
ATOM     11  N   UNL     1       9.109   0.501  24.236  0.00  0.00    -0.300 N 
ATOM     12  H   UNL     1       8.217   0.781  23.823  0.00  0.00    +0.150 HD
ATOM     13  C   UNL     1      10.165   1.329  23.934  0.00  0.00    +0.235 C 
ATOM     14  O   UNL     1      11.301   1.149  24.358  0.00  0.00    -0.274 OA
BRANCH  13  15
ATOM     15  CA  UNL     1       9.761   2.510  23.014  0.00  0.00    +0.168 C 
BRANCH  15  16
ATOM     16  C   UNL     1      10.371   3.818  23.482  0.00  0.00    -0.022 A 
ATOM     17  C   UNL     1      11.719   4.144  23.250  0.00  0.00    +0.005 A 
ATOM     18  C   UNL     1      12.245   5.364  23.681  0.00  0.00    +0.000 A 
ATOM     19  C   UNL     1      11.435   6.269  24.362  0.00  0.00    +0.000 A 
ATOM     20  C   UNL     1      10.105   5.952  24.625  0.00  0.00    +0.000 A 
ATOM     21  C   UNL     1       9.578   4.733  24.191  0.00  0.00    +0.005 A 
ENDBRANCH  15  16
BRANCH  15  22
ATOM     22  N   UNL     1      10.137   2.192  21.607  0.00  0.00    -0.316 NA
ATOM     23  H1  UNL     1       9.279   2.146  21.055  0.00  0.00    +0.119 HD
ATOM     24  H2  UNL     1      10.652   2.995  21.243  0.00  0.00    +0.119 HD
ENDBRANCH  15  22
ENDBRANCH  13  15
ENDBRANCH   2  11
BRANCH   6  25
ATOM     25  C   UNL     1       7.654  -4.536  23.242  0.00  0.00    +0.351 C 
ATOM     26  OXT UNL     1       8.336  -5.433  23.717  0.00  0.00    -0.244 OA
BRANCH  25  27
ATOM     27  O   UNL     1       7.338  -4.580  21.935  0.00  0.00    -0.476 OA
ATOM     28  H   UNL     1       7.612  -3.827  21.367  0.00  0.00    +0.295 HD
ENDBRANCH  25  27
ENDBRANCH   6  25
TORSDOF 6
ENDMDL
MODEL 3
REMARK VINA RESULT:      -6.8      2.441      7.195
REMARK  Name = 
REMARK  7 active torsions:
REMARK  status: ('A' for Active; 'I' for Inactive)
REMARK    1  A    between atoms: C_5  and  C_6
REMARK    2  A    between atoms: CA_7  and  C_25
REMARK    3  A    between atoms: CA_11  and  N_13
REMARK    4  A    between atoms: C_14  and  CA_16
REMARK    5  A    between atoms: CA_16  and  N_18
REMARK    6  A    between atoms: CA_16  and  C_19
REMARK    7  A    between atoms: C_25  and  O_26
REMARK                            x       y       z     vdW  Elec       q    Type
REMARK                         _______ _______ _______ _____ _____    ______ ____
ROOT
ATOM      1  C   UNL     1       7.106  -0.755  23.034  0.00  0.00    +0.169 C 
ATOM      2  CA  UNL     1       7.843  -2.126  23.199  0.00  0.00    +0.191 C 
ATOM      3  C   UNL     1       9.126  -1.269  22.914  0.00  0.00    +0.244 C 
ATOM      4  O   UNL     1      10.312  -1.422  22.742  0.00  0.00    -0.273 OA
ATOM      5  N   UNL     1       8.416  -0.128  23.048  0.00  0.00    -0.249 N 
ATOM      6  CA  UNL     1       8.642   1.214  23.183  0.00  0.00    +0.122 C 
ATOM      7  C   UNL     1       7.632   2.015  23.629  0.00  0.00    -0.034 C 
ATOM      8  C   UNL     1       7.778   3.505  23.864  0.00  0.00    +0.042 C 
ATOM      9  C   UNL     1       6.243   1.535  24.002  0.00  0.00    +0.103 C 
ATOM     10  S   UNL     1       6.157  -0.203  24.471  0.00  0.00    -0.131 S 
ENDROOT
BRANCH   2  11
ATOM     11  N   UNL     1       7.770  -2.727  24.549  0.00  0.00    -0.300 N 
ATOM     12  H   UNL     1       7.238  -2.275  25.294  0.00  0.00    +0.150 HD
ATOM     13  C   UNL     1       8.397  -3.894  24.920  0.00  0.00    +0.235 C 
ATOM     14  O   UNL     1       9.064  -4.572  24.147  0.00  0.00    -0.274 OA
BRANCH  13  15
ATOM     15  CA  UNL     1       8.160  -4.259  26.409  0.00  0.00    +0.168 C 
BRANCH  15  16
ATOM     16  C   UNL     1       6.944  -5.150  26.580  0.00  0.00    -0.022 A 
ATOM     17  C   UNL     1       6.153  -5.558  25.492  0.00  0.00    +0.005 A 
ATOM     18  C   UNL     1       5.049  -6.392  25.683  0.00  0.00    +0.000 A 
ATOM     19  C   UNL     1       4.712  -6.819  26.965  0.00  0.00    +0.000 A 
ATOM     20  C   UNL     1       5.469  -6.403  28.057  0.00  0.00    +0.000 A 
ATOM     21  C   UNL     1       6.575  -5.571  27.866  0.00  0.00    +0.005 A 
ENDBRANCH  15  16
BRANCH  15  22
ATOM     22  N   UNL     1       9.393  -4.884  26.967  0.00  0.00    -0.316 NA
ATOM     23  H1  UNL     1       9.260  -5.897  26.962  0.00  0.00    +0.119 HD
ATOM     24  H2  UNL     1      10.148  -4.705  26.304  0.00  0.00    +0.119 HD
ENDBRANCH  15  22
ENDBRANCH  13  15
ENDBRANCH   2  11
BRANCH   6  25
ATOM     25  C   UNL     1      10.004   1.820  22.874  0.00  0.00    +0.351 C 
ATOM     26  OXT UNL     1      10.865   2.018  23.720  0.00  0.00    -0.244 OA
BRANCH  25  27
ATOM     27  O   UNL     1      10.225   2.231  21.612  0.00  0.00    -0.476 OA
ATOM     28  H   UNL     1       9.639   1.886  20.904  0.00  0.00    +0.295 HD
ENDBRANCH  25  27
ENDBRANCH   6  25
TORSDOF 6
ENDMDL
MODEL 4
REMARK VINA RESULT:      -6.8      1.557      1.906
REMARK  Name = 
REMARK  7 active torsions:
REMARK  status: ('A' for Active; 'I' for Inactive)
REMARK    1  A    between atoms: C_5  and  C_6
REMARK    2  A    between atoms: CA_7  and  C_25
REMARK    3  A    between atoms: CA_11  and  N_13
REMARK    4  A    between atoms: C_14  and  CA_16
REMARK    5  A    between atoms: CA_16  and  N_18
REMARK    6  A    between atoms: CA_16  and  C_19
REMARK    7  A    between atoms: C_25  and  O_26
REMARK                            x       y       z     vdW  Elec       q    Type
REMARK                         _______ _______ _______ _____ _____    ______ ____
ROOT
ATOM      1  C   UNL     1       8.755  -4.213  24.639  0.00  0.00    +0.169 C 
ATOM      2  CA  UNL     1       9.213  -2.983  23.788  0.00  0.00    +0.191 C 
ATOM      3  C   UNL     1       7.999  -3.384  22.878  0.00  0.00    +0.244 C 
ATOM      4  O   UNL     1       7.496  -3.066  21.827  0.00  0.00    -0.273 OA
ATOM      5  N   UNL     1       7.557  -4.248  23.818  0.00  0.00    -0.249 N 
ATOM      6  CA  UNL     1       6.435  -4.978  24.097  0.00  0.00    +0.122 C 
ATOM      7  C   UNL     1       6.270  -5.485  25.352  0.00  0.00    -0.034 C 
ATOM      8  C   UNL     1       5.048  -6.268  25.791  0.00  0.00    +0.042 C 
ATOM      9  C   UNL     1       7.244  -5.302  26.499  0.00  0.00    +0.103 C 
ATOM     10  S   UNL     1       8.302  -3.850  26.352  0.00  0.00    -0.131 S 
ENDROOT
BRANCH   2  11
ATOM     11  N   UNL     1       9.094  -1.668  24.457  0.00  0.00    -0.300 N 
ATOM     12  H   UNL     1       8.460  -1.540  25.248  0.00  0.00    +0.150 HD
ATOM     13  C   UNL     1       9.784  -0.537  24.088  0.00  0.00    +0.235 C 
ATOM     14  O   UNL     1      10.597  -0.517  23.170  0.00  0.00    -0.274 OA
BRANCH  13  15
ATOM     15  CA  UNL     1       9.431   0.697  24.959  0.00  0.00    +0.168 C 
BRANCH  15  16
ATOM     16  C   UNL     1       8.779   1.793  24.138  0.00  0.00    -0.022 A 
ATOM     17  C   UNL     1       7.733   1.534  23.235  0.00  0.00    +0.005 A 
ATOM     18  C   UNL     1       7.144   2.570  22.506  0.00  0.00    +0.000 A 
ATOM     19  C   UNL     1       7.602   3.876  22.657  0.00  0.00    +0.000 A 
ATOM     20  C   UNL     1       8.655   4.147  23.526  0.00  0.00    +0.000 A 
ATOM     21  C   UNL     1       9.242   3.112  24.259  0.00  0.00    +0.005 A 
ENDBRANCH  15  16
BRANCH  15  22
ATOM     22  N   UNL     1       8.570   0.268  26.098  0.00  0.00    -0.316 NA
ATOM     23  H1  UNL     1       8.241   1.108  26.576  0.00  0.00    +0.119 HD
ATOM     24  H2  UNL     1       7.735  -0.164  25.700  0.00  0.00    +0.119 HD
ENDBRANCH  15  22
ENDBRANCH  13  15
ENDBRANCH   2  11
BRANCH   6  25
ATOM     25  C   UNL     1       5.361  -5.209  23.043  0.00  0.00    +0.351 C 
ATOM     26  OXT UNL     1       4.431  -4.439  22.844  0.00  0.00    -0.244 OA
BRANCH  25  27
ATOM     27  O   UNL     1       5.406  -6.367  22.359  0.00  0.00    -0.476 OA
ATOM     28  H   UNL     1       5.724  -7.169  22.827  0.00  0.00    +0.295 HD
ENDBRANCH  25  27
ENDBRANCH   6  25
TORSDOF 6
ENDMDL
MODEL 5
REMARK VINA RESULT:      -6.6      3.794      7.924
REMARK  Name = 
REMARK  7 active torsions:
REMARK  status: ('A' for Active; 'I' for Inactive)
REMARK    1  A    between atoms: C_5  and  C_6
REMARK    2  A    between atoms: CA_7  and  C_25
REMARK    3  A    between atoms: CA_11  and  N_13
REMARK    4  A    between atoms: C_14  and  CA_16
REMARK    5  A    between atoms: CA_16  and  N_18
REMARK    6  A    between atoms: CA_16  and  C_19
REMARK    7  A    between atoms: C_25  and  O_26
REMARK                            x       y       z     vdW  Elec       q    Type
REMARK                         _______ _______ _______ _____ _____    ______ ____
ROOT
ATOM      1  C   UNL     1       8.584   1.975  21.814  0.00  0.00    +0.169 C 
ATOM      2  CA  UNL     1       9.733   1.008  22.250  0.00  0.00    +0.191 C 
ATOM      3  C   UNL     1      10.257   2.267  23.028  0.00  0.00    +0.244 C 
ATOM      4  O   UNL     1      11.210   2.607  23.687  0.00  0.00    -0.273 OA
ATOM      5  N   UNL     1       9.095   2.915  22.795  0.00  0.00    -0.249 N 
ATOM      6  CA  UNL     1       8.440   4.036  23.225  0.00  0.00    +0.122 C 
ATOM      7  C   UNL     1       7.107   4.164  22.969  0.00  0.00    -0.034 C 
ATOM      8  C   UNL     1       6.266   5.335  23.436  0.00  0.00    +0.042 C 
ATOM      9  C   UNL     1       6.261   3.142  22.233  0.00  0.00    +0.103 C 
ATOM     10  S   UNL     1       6.914   1.463  22.283  0.00  0.00    -0.131 S 
ENDROOT
BRANCH   2  11
ATOM     11  N   UNL     1       9.317  -0.131  23.098  0.00  0.00    -0.300 N 
ATOM     12  H   UNL     1       8.988   0.021  24.052  0.00  0.00    +0.150 HD
ATOM     13  C   UNL     1       9.344  -1.449  22.705  0.00  0.00    +0.235 C 
ATOM     14  O   UNL     1       9.697  -1.809  21.587  0.00  0.00    -0.274 OA
BRANCH  13  15
ATOM     15  CA  UNL     1       8.875  -2.421  23.819  0.00  0.00    +0.168 C 
BRANCH  15  16
ATOM     16  C   UNL     1       7.661  -3.222  23.387  0.00  0.00    -0.022 A 
ATOM     17  C   UNL     1       6.458  -2.611  22.994  0.00  0.00    +0.005 A 
ATOM     18  C   UNL     1       5.364  -3.379  22.587  0.00  0.00    +0.000 A 
ATOM     19  C   UNL     1       5.453  -4.768  22.581  0.00  0.00    +0.000 A 
ATOM     20  C   UNL     1       6.628  -5.392  22.993  0.00  0.00    +0.000 A 
ATOM     21  C   UNL     1       7.723  -4.624  23.397  0.00  0.00    +0.005 A 
ENDBRANCH  15  16
BRANCH  15  22
ATOM     22  N   UNL     1      10.010  -3.300  24.219  0.00  0.00    -0.316 NA
ATOM     23  H1  UNL     1      10.346  -2.984  25.129  0.00  0.00    +0.119 HD
ATOM     24  H2  UNL     1       9.627  -4.233  24.379  0.00  0.00    +0.119 HD
ENDBRANCH  15  22
ENDBRANCH  13  15
ENDBRANCH   2  11
BRANCH   6  25
ATOM     25  C   UNL     1       9.165   5.125  24.005  0.00  0.00    +0.351 C 
ATOM     26  OXT UNL     1       9.159   5.201  25.226  0.00  0.00    -0.244 OA
BRANCH  25  27
ATOM     27  O   UNL     1       9.770   6.094  23.295  0.00  0.00    -0.476 OA
ATOM     28  H   UNL     1       9.205   6.729  22.802  0.00  0.00    +0.295 HD
ENDBRANCH  25  27
ENDBRANCH   6  25
TORSDOF 6
ENDMDL
MODEL 6
REMARK VINA RESULT:      -6.5      2.927      6.440
REMARK  Name = 
REMARK  7 active torsions:
REMARK  status: ('A' for Active; 'I' for Inactive)
REMARK    1  A    between atoms: C_5  and  C_6
REMARK    2  A    between atoms: CA_7  and  C_25
REMARK    3  A    between atoms: CA_11  and  N_13
REMARK    4  A    between atoms: C_14  and  CA_16
REMARK    5  A    between atoms: CA_16  and  N_18
REMARK    6  A    between atoms: CA_16  and  C_19
REMARK    7  A    between atoms: C_25  and  O_26
REMARK                            x       y       z     vdW  Elec       q    Type
REMARK                         _______ _______ _______ _____ _____    ______ ____
ROOT
ATOM      1  C   UNL     1       9.636  -0.511  24.734  0.00  0.00    +0.169 C 
ATOM      2  CA  UNL     1       9.139  -1.547  25.796  0.00  0.00    +0.191 C 
ATOM      3  C   UNL     1       7.844  -0.660  25.794  0.00  0.00    +0.244 C 
ATOM      4  O   UNL     1       6.793  -0.571  26.382  0.00  0.00    -0.273 OA
ATOM      5  N   UNL     1       8.279   0.004  24.701  0.00  0.00    -0.249 N 
ATOM      6  CA  UNL     1       7.790   0.868  23.761  0.00  0.00    +0.122 C 
ATOM      7  C   UNL     1       8.487   1.053  22.604  0.00  0.00    -0.034 C 
ATOM      8  C   UNL     1       8.021   1.946  21.471  0.00  0.00    +0.042 C 
ATOM      9  C   UNL     1       9.792   0.363  22.256  0.00  0.00    +0.103 C 
ATOM     10  S   UNL     1      10.060  -1.198  23.115  0.00  0.00    -0.131 S 
ENDROOT
BRANCH   2  11
ATOM     11  N   UNL     1       8.960  -2.929  25.300  0.00  0.00    -0.300 N 
ATOM     12  H   UNL     1       9.305  -3.202  24.378  0.00  0.00    +0.150 HD
ATOM     13  C   UNL     1       8.326  -3.933  25.995  0.00  0.00    +0.235 C 
ATOM     14  O   UNL     1       7.866  -3.783  27.121  0.00  0.00    -0.274 OA
BRANCH  13  15
ATOM     15  CA  UNL     1       8.268  -5.268  25.207  0.00  0.00    +0.168 C 
BRANCH  15  16
ATOM     16  C   UNL     1       7.263  -5.204  24.072  0.00  0.00    -0.022 A 
ATOM     17  C   UNL     1       5.942  -4.763  24.263  0.00  0.00    +0.005 A 
ATOM     18  C   UNL     1       5.046  -4.701  23.192  0.00  0.00    +0.000 A 
ATOM     19  C   UNL     1       5.454  -5.093  21.920  0.00  0.00    +0.000 A 
ATOM     20  C   UNL     1       6.750  -5.558  21.718  0.00  0.00    +0.000 A 
ATOM     21  C   UNL     1       7.648  -5.617  22.788  0.00  0.00    +0.005 A 
ENDBRANCH  15  16
BRANCH  15  22
ATOM     22  N   UNL     1       9.634  -5.616  24.722  0.00  0.00    -0.316 NA
ATOM     23  H1  UNL     1       9.823  -6.584  24.987  0.00  0.00    +0.119 HD
ATOM     24  H2  UNL     1       9.601  -5.615  23.701  0.00  0.00    +0.119 HD
ENDBRANCH  15  22
ENDBRANCH  13  15
ENDBRANCH   2  11
BRANCH   6  25
ATOM     25  C   UNL     1       6.472   1.600  23.972  0.00  0.00    +0.351 C 
ATOM     26  OXT UNL     1       6.392   2.800  24.200  0.00  0.00    -0.244 OA
BRANCH  25  27
ATOM     27  O   UNL     1       5.349   0.859  23.987  0.00  0.00    -0.476 OA
ATOM     28  H   UNL     1       4.539   1.253  24.378  0.00  0.00    +0.295 HD
ENDBRANCH  25  27
ENDBRANCH   6  25
TORSDOF 6
ENDMDL
MODEL 7
REMARK VINA RESULT:      -6.5      1.741      2.154
REMARK  Name = 
REMARK  7 active torsions:
REMARK  status: ('A' for Active; 'I' for Inactive)
REMARK    1  A    between atoms: C_5  and  C_6
REMARK    2  A    between atoms: CA_7  and  C_25
REMARK    3  A    between atoms: CA_11  and  N_13
REMARK    4  A    between atoms: C_14  and  CA_16
REMARK    5  A    between atoms: CA_16  and  N_18
REMARK    6  A    between atoms: CA_16  and  C_19
REMARK    7  A    between atoms: C_25  and  O_26
REMARK                            x       y       z     vdW  Elec       q    Type
REMARK                         _______ _______ _______ _____ _____    ______ ____
ROOT
ATOM      1  C   UNL     1       7.578  -4.767  24.627  0.00  0.00    +0.169 C 
ATOM      2  CA  UNL     1       7.517  -3.796  23.402  0.00  0.00    +0.191 C 
ATOM      3  C   UNL     1       6.183  -4.561  23.087  0.00  0.00    +0.244 C 
ATOM      4  O   UNL     1       5.336  -4.611  22.228  0.00  0.00    -0.273 OA
ATOM      5  N   UNL     1       6.217  -5.155  24.299  0.00  0.00    -0.249 N 
ATOM      6  CA  UNL     1       5.391  -5.881  25.111  0.00  0.00    +0.122 C 
ATOM      7  C   UNL     1       5.710  -6.019  26.430  0.00  0.00    -0.034 C 
ATOM      8  C   UNL     1       4.848  -6.757  27.435  0.00  0.00    +0.042 C 
ATOM      9  C   UNL     1       6.933  -5.417  27.095  0.00  0.00    +0.103 C 
ATOM     10  S   UNL     1       7.603  -3.972  26.251  0.00  0.00    -0.131 S 
ENDROOT
BRANCH   2  11
ATOM     11  N   UNL     1       7.360  -2.363  23.735  0.00  0.00    -0.300 N 
ATOM     12  H   UNL     1       6.913  -2.076  24.607  0.00  0.00    +0.150 HD
ATOM     13  C   UNL     1       7.772  -1.324  22.933  0.00  0.00    +0.235 C 
ATOM     14  O   UNL     1       8.341  -1.489  21.860  0.00  0.00    -0.274 OA
BRANCH  13  15
ATOM     15  CA  UNL     1       7.448   0.068  23.536  0.00  0.00    +0.168 C 
BRANCH  15  16
ATOM     16  C   UNL     1       8.684   0.943  23.620  0.00  0.00    -0.022 A 
ATOM     17  C   UNL     1       9.923   0.452  24.067  0.00  0.00    +0.005 A 
ATOM     18  C   UNL     1      11.046   1.282  24.117  0.00  0.00    +0.000 A 
ATOM     19  C   UNL     1      10.943   2.616  23.735  0.00  0.00    +0.000 A 
ATOM     20  C   UNL     1       9.718   3.127  23.316  0.00  0.00    +0.000 A 
ATOM     21  C   UNL     1       8.595   2.297  23.262  0.00  0.00    +0.005 A 
ENDBRANCH  15  16
BRANCH  15  22
ATOM     22  N   UNL     1       6.363   0.711  22.740  0.00  0.00    -0.316 NA
ATOM     23  H1  UNL     1       6.797   1.193  21.951  0.00  0.00    +0.119 HD
ATOM     24  H2  UNL     1       5.807  -0.039  22.328  0.00  0.00    +0.119 HD
ENDBRANCH  15  22
ENDBRANCH  13  15
ENDBRANCH   2  11
BRANCH   6  25
ATOM     25  C   UNL     1       4.112  -6.511  24.576  0.00  0.00    +0.351 C 
ATOM     26  OXT UNL     1       3.018  -5.964  24.618  0.00  0.00    -0.244 OA
BRANCH  25  27
ATOM     27  O   UNL     1       4.192  -7.771  24.110  0.00  0.00    -0.476 OA
ATOM     28  H   UNL     1       5.063  -8.091  23.790  0.00  0.00    +0.295 HD
ENDBRANCH  25  27
ENDBRANCH   6  25
TORSDOF 6
ENDMDL
MODEL 8
REMARK VINA RESULT:      -6.4      2.878      6.800
REMARK  Name = 
REMARK  7 active torsions:
REMARK  status: ('A' for Active; 'I' for Inactive)
REMARK    1  A    between atoms: C_5  and  C_6
REMARK    2  A    between atoms: CA_7  and  C_25
REMARK    3  A    between atoms: CA_11  and  N_13
REMARK    4  A    between atoms: C_14  and  CA_16
REMARK    5  A    between atoms: CA_16  and  N_18
REMARK    6  A    between atoms: CA_16  and  C_19
REMARK    7  A    between atoms: C_25  and  O_26
REMARK                            x       y       z     vdW  Elec       q    Type
REMARK                         _______ _______ _______ _____ _____    ______ ____
ROOT
ATOM      1  C   UNL     1       9.576  -1.157  24.985  0.00  0.00    +0.169 C 
ATOM      2  CA  UNL     1       8.744  -1.583  26.239  0.00  0.00    +0.191 C 
ATOM      3  C   UNL     1       8.233  -0.100  26.184  0.00  0.00    +0.244 C 
ATOM      4  O   UNL     1       7.544   0.657  26.824  0.00  0.00    -0.273 OA
ATOM      5  N   UNL     1       8.794   0.066  24.967  0.00  0.00    -0.249 N 
ATOM      6  CA  UNL     1       8.761   0.962  23.934  0.00  0.00    +0.122 C 
ATOM      7  C   UNL     1       9.240   0.585  22.714  0.00  0.00    -0.034 C 
ATOM      8  C   UNL     1       9.212   1.471  21.485  0.00  0.00    +0.042 C 
ATOM      9  C   UNL     1       9.817  -0.780  22.391  0.00  0.00    +0.103 C 
ATOM     10  S   UNL     1       9.253  -2.102  23.478  0.00  0.00    -0.131 S 
ENDROOT
BRANCH   2  11
ATOM     11  N   UNL     1       7.713  -2.616  25.996  0.00  0.00    -0.300 N 
ATOM     12  H   UNL     1       6.804  -2.364  25.604  0.00  0.00    +0.150 HD
ATOM     13  C   UNL     1       7.865  -3.954  26.274  0.00  0.00    +0.235 C 
ATOM     14  O   UNL     1       8.898  -4.431  26.734  0.00  0.00    -0.274 OA
BRANCH  13  15
ATOM     15  CA  UNL     1       6.602  -4.788  25.937  0.00  0.00    +0.168 C 
BRANCH  15  16
ATOM     16  C   UNL     1       6.526  -5.116  24.458  0.00  0.00    -0.022 A 
ATOM     17  C   UNL     1       7.675  -5.327  23.675  0.00  0.00    +0.005 A 
ATOM     18  C   UNL     1       7.568  -5.642  22.318  0.00  0.00    +0.000 A 
ATOM     19  C   UNL     1       6.313  -5.736  21.722  0.00  0.00    +0.000 A 
ATOM     20  C   UNL     1       5.166  -5.503  22.475  0.00  0.00    +0.000 A 
ATOM     21  C   UNL     1       5.272  -5.192  23.833  0.00  0.00    +0.005 A 
ENDBRANCH  15  16
BRANCH  15  22
ATOM     22  N   UNL     1       6.581  -6.017  26.781  0.00  0.00    -0.316 NA
ATOM     23  H1  UNL     1       7.436  -6.542  26.593  0.00  0.00    +0.119 HD
ATOM     24  H2  UNL     1       6.655  -5.716  27.754  0.00  0.00    +0.119 HD
ENDBRANCH  15  22
ENDBRANCH  13  15
ENDBRANCH   2  11
BRANCH   6  25
ATOM     25  C   UNL     1       8.177   2.356  24.115  0.00  0.00    +0.351 C 
ATOM     26  OXT UNL     1       7.010   2.637  23.878  0.00  0.00    -0.244 OA
BRANCH  25  27
ATOM     27  O   UNL     1       9.022   3.338  24.478  0.00  0.00    -0.476 OA
ATOM     28  H   UNL     1       9.946   3.093  24.704  0.00  0.00    +0.295 HD
ENDBRANCH  25  27
ENDBRANCH   6  25
TORSDOF 6
ENDMDL
MODEL 9
REMARK VINA RESULT:      -6.3      2.263      6.744
REMARK  Name = 
REMARK  7 active torsions:
REMARK  status: ('A' for Active; 'I' for Inactive)
REMARK    1  A    between atoms: C_5  and  C_6
REMARK    2  A    between atoms: CA_7  and  C_25
REMARK    3  A    between atoms: CA_11  and  N_13
REMARK    4  A    between atoms: C_14  and  CA_16
REMARK    5  A    between atoms: CA_16  and  N_18
REMARK    6  A    between atoms: CA_16  and  C_19
REMARK    7  A    between atoms: C_25  and  O_26
REMARK                            x       y       z     vdW  Elec       q    Type
REMARK                         _______ _______ _______ _____ _____    ______ ____
ROOT
ATOM      1  C   UNL     1       7.315  -0.837  22.619  0.00  0.00    +0.169 C 
ATOM      2  CA  UNL     1       8.083  -2.060  22.019  0.00  0.00    +0.191 C 
ATOM      3  C   UNL     1       9.352  -1.279  22.513  0.00  0.00    +0.244 C 
ATOM      4  O   UNL     1      10.556  -1.360  22.461  0.00  0.00    -0.273 OA
ATOM      5  N   UNL     1       8.575  -0.421  23.208  0.00  0.00    -0.249 N 
ATOM      6  CA  UNL     1       8.713   0.544  24.167  0.00  0.00    +0.122 C 
ATOM      7  C   UNL     1       7.610   0.960  24.853  0.00  0.00    -0.034 C 
ATOM      8  C   UNL     1       7.646   1.985  25.968  0.00  0.00    +0.042 C 
ATOM      9  C   UNL     1       6.205   0.429  24.643  0.00  0.00    +0.103 C 
ATOM     10  S   UNL     1       6.134  -1.226  23.932  0.00  0.00    -0.131 S 
ENDROOT
BRANCH   2  11
ATOM     11  N   UNL     1       7.838  -3.355  22.691  0.00  0.00    -0.300 N 
ATOM     12  H   UNL     1       8.408  -3.648  23.486  0.00  0.00    +0.150 HD
ATOM     13  C   UNL     1       6.869  -4.258  22.318  0.00  0.00    +0.235 C 
ATOM     14  O   UNL     1       6.087  -4.060  21.395  0.00  0.00    -0.274 OA
BRANCH  13  15
ATOM     15  CA  UNL     1       6.869  -5.539  23.193  0.00  0.00    +0.168 C 
BRANCH  15  16
ATOM     16  C   UNL     1       6.735  -5.209  24.668  0.00  0.00    -0.022 A 
ATOM     17  C   UNL     1       5.505  -4.854  25.249  0.00  0.00    +0.005 A 
ATOM     18  C   UNL     1       5.414  -4.571  26.614  0.00  0.00    +0.000 A 
ATOM     19  C   UNL     1       6.553  -4.626  27.414  0.00  0.00    +0.000 A 
ATOM     20  C   UNL     1       7.784  -4.949  26.850  0.00  0.00    +0.000 A 
ATOM     21  C   UNL     1       7.875  -5.236  25.485  0.00  0.00    +0.005 A 
ENDBRANCH  15  16
BRANCH  15  22
ATOM     22  N   UNL     1       5.791  -6.457  22.727  0.00  0.00    -0.316 NA
ATOM     23  H1  UNL     1       5.041  -6.436  23.419  0.00  0.00    +0.119 HD
ATOM     24  H2  UNL     1       5.392  -6.048  21.881  0.00  0.00    +0.119 HD
ENDBRANCH  15  22
ENDBRANCH  13  15
ENDBRANCH   2  11
BRANCH   6  25
ATOM     25  C   UNL     1      10.075   1.138  24.500  0.00  0.00    +0.351 C 
ATOM     26  OXT UNL     1      10.482   2.197  24.043  0.00  0.00    -0.244 OA
BRANCH  25  27
ATOM     27  O   UNL     1      10.896   0.405  25.274  0.00  0.00    -0.476 OA
ATOM     28  H   UNL     1      11.863   0.480  25.124  0.00  0.00    +0.295 HD
ENDBRANCH  25  27
ENDBRANCH   6  25
TORSDOF 6
ENDMDL
