MODEL 1
REMARK VINA RESULT:      -6.1      0.000      0.000
REMARK  Name = 
REMARK  9 active torsions:
REMARK  status: ('A' for Active; 'I' for Inactive)
REMARK    1  A    between atoms: O_1  and  N_2
REMARK    2  A    between atoms: C_3  and  C_5
REMARK    3  A    between atoms: C_5  and  C_6
REMARK    4  A    between atoms: C_6  and  C_7
REMARK    5  A    between atoms: C_7  and  C_8
REMARK    6  A    between atoms: C_8  and  C_9
REMARK    7  A    between atoms: C_9  and  C_10
REMARK    8  A    between atoms: C_10  and  C_11
REMARK    9  A    between atoms: N_13  and  C_14
REMARK                            x       y       z     vdW  Elec       q    Type
REMARK                         _______ _______ _______ _____ _____    ______ ____
ROOT
ATOM      1  C   UNL     1       9.128   0.996  22.070  0.00  0.00    +0.009 C 
ENDROOT
BRANCH   1   2
ATOM      2  C   UNL     1      10.316   1.454  22.904  0.00  0.00    +0.000 C 
BRANCH   2   3
ATOM      3  C   UNL     1       9.835   2.389  24.017  0.00  0.00    +0.000 C 
BRANCH   3   4
ATOM      4  C   UNL     1      10.047   3.853  23.647  0.00  0.00    +0.009 C 
BRANCH   4   5
ATOM      5  C   UNL     1      11.529   4.160  23.451  0.00  0.00    +0.098 C 
BRANCH   5   8
ATOM      6  N   UNL     1      13.152   5.987  23.555  0.00  0.00    -0.197 N 
ATOM      7  H   UNL     1      13.433   6.937  23.772  0.00  0.00    +0.182 HD
ATOM      8  C   UNL     1      11.857   5.609  23.758  0.00  0.00    +0.235 C 
ATOM      9  O   UNL     1      11.031   6.424  24.167  0.00  0.00    -0.274 OA
BRANCH   6  10
ATOM     10  O   UNL     1      14.104   5.045  23.131  0.00  0.00    -0.295 OA
ATOM     11  H   UNL     1      13.947   4.978  22.172  0.00  0.00    +0.241 HD
ENDBRANCH   6  10
ENDBRANCH   5   8
ENDBRANCH   4   5
ENDBRANCH   3   4
ENDBRANCH   2   3
ENDBRANCH   1   2
BRANCH   1  12
ATOM     12  C   UNL     1       9.385  -0.286  21.273  0.00  0.00    +0.096 C 
BRANCH  12  13
ATOM     13  C   UNL     1       9.579  -1.437  22.247  0.00  0.00    +0.217 C 
ATOM     14  N   UNL     1       8.431  -1.800  22.927  0.00  0.00    -0.285 N 
ATOM     15  H   UNL     1       7.550  -1.426  22.596  0.00  0.00    +0.155 HD
ATOM     16  O   UNL     1      10.677  -1.974  22.370  0.00  0.00    -0.275 OA
BRANCH  14  17
ATOM     17  C   UNL     1       8.372  -2.796  23.929  0.00  0.00    +0.033 A 
ATOM     18  C   UNL     1       8.632  -2.429  25.254  0.00  0.00    +0.023 A 
ATOM     19  C   UNL     1       8.540  -3.376  26.282  0.00  0.00    +0.002 A 
ATOM     20  C   UNL     1       8.207  -4.698  25.993  0.00  0.00    +0.000 A 
ATOM     21  C   UNL     1       7.980  -5.079  24.677  0.00  0.00    +0.002 A 
ATOM     22  C   UNL     1       8.068  -4.134  23.654  0.00  0.00    +0.023 A 
ENDBRANCH  14  17
ENDBRANCH  12  13
ENDBRANCH   1  12
TORSDOF 9
ENDMDL
MODEL 2
REMARK VINA RESULT:      -6.1      1.489      2.178
REMARK  Name = 
REMARK  9 active torsions:
REMARK  status: ('A' for Active; 'I' for Inactive)
REMARK    1  A    between atoms: O_1  and  N_2
REMARK    2  A    between atoms: C_3  and  C_5
REMARK    3  A    between atoms: C_5  and  C_6
REMARK    4  A    between atoms: C_6  and  C_7
REMARK    5  A    between atoms: C_7  and  C_8
REMARK    6  A    between atoms: C_8  and  C_9
REMARK    7  A    between atoms: C_9  and  C_10
REMARK    8  A    between atoms: C_10  and  C_11
REMARK    9  A    between atoms: N_13  and  C_14
REMARK                            x       y       z     vdW  Elec       q    Type
REMARK                         _______ _______ _______ _____ _____    ______ ____
ROOT
ATOM      1  C   UNL     1       9.178  -0.232  22.431  0.00  0.00    +0.009 C 
ENDROOT
BRANCH   1   2
ATOM      2  C   UNL     1       9.773   1.136  22.129  0.00  0.00    +0.000 C 
BRANCH   2   3
ATOM      3  C   UNL     1      10.320   1.756  23.418  0.00  0.00    +0.000 C 
BRANCH   3   4
ATOM      4  C   UNL     1      10.346   3.279  23.337  0.00  0.00    +0.009 C 
BRANCH   4   5
ATOM      5  C   UNL     1      11.778   3.806  23.378  0.00  0.00    +0.098 C 
BRANCH   5   8
ATOM      6  N   UNL     1      13.061   5.887  23.327  0.00  0.00    -0.197 N 
ATOM      7  H   UNL     1      13.155   6.895  23.397  0.00  0.00    +0.182 HD
ATOM      8  C   UNL     1      11.826   5.321  23.451  0.00  0.00    +0.235 C 
ATOM      9  O   UNL     1      10.833   6.029  23.610  0.00  0.00    -0.274 OA
BRANCH   6  10
ATOM     10  O   UNL     1      14.199   5.077  23.190  0.00  0.00    -0.295 OA
ATOM     11  H   UNL     1      13.843   4.172  23.243  0.00  0.00    +0.241 HD
ENDBRANCH   6  10
ENDBRANCH   5   8
ENDBRANCH   4   5
ENDBRANCH   3   4
ENDBRANCH   2   3
ENDBRANCH   1   2
BRANCH   1  12
ATOM     12  C   UNL     1      10.167  -1.213  23.069  0.00  0.00    +0.096 C 
BRANCH  12  13
ATOM     13  C   UNL     1       9.438  -2.512  23.373  0.00  0.00    +0.217 C 
ATOM     14  N   UNL     1       8.191  -2.611  22.784  0.00  0.00    -0.285 N 
ATOM     15  H   UNL     1       7.953  -1.935  22.069  0.00  0.00    +0.155 HD
ATOM     16  O   UNL     1       9.962  -3.375  24.074  0.00  0.00    -0.275 OA
BRANCH  14  17
ATOM     17  C   UNL     1       7.298  -3.692  22.971  0.00  0.00    +0.033 A 
ATOM     18  C   UNL     1       7.333  -4.753  22.059  0.00  0.00    +0.023 A 
ATOM     19  C   UNL     1       6.497  -5.864  22.234  0.00  0.00    +0.002 A 
ATOM     20  C   UNL     1       5.608  -5.914  23.306  0.00  0.00    +0.000 A 
ATOM     21  C   UNL     1       5.543  -4.850  24.197  0.00  0.00    +0.002 A 
ATOM     22  C   UNL     1       6.378  -3.746  24.024  0.00  0.00    +0.023 A 
ENDBRANCH  14  17
ENDBRANCH  12  13
ENDBRANCH   1  12
TORSDOF 9
ENDMDL
MODEL 3
REMARK VINA RESULT:      -6.1      3.945      7.952
REMARK  Name = 
REMARK  9 active torsions:
REMARK  status: ('A' for Active; 'I' for Inactive)
REMARK    1  A    between atoms: O_1  and  N_2
REMARK    2  A    between atoms: C_3  and  C_5
REMARK    3  A    between atoms: C_5  and  C_6
REMARK    4  A    between atoms: C_6  and  C_7
REMARK    5  A    between atoms: C_7  and  C_8
REMARK    6  A    between atoms: C_8  and  C_9
REMARK    7  A    between atoms: C_9  and  C_10
REMARK    8  A    between atoms: C_10  and  C_11
REMARK    9  A    between atoms: N_13  and  C_14
REMARK                            x       y       z     vdW  Elec       q    Type
REMARK                         _______ _______ _______ _____ _____    ______ ____
ROOT
ATOM      1  C   UNL     1       6.062  -3.025  22.284  0.00  0.00    +0.009 C 
ENDROOT
BRANCH   1   2
ATOM      2  C   UNL     1       5.125  -3.761  23.231  0.00  0.00    +0.000 C 
BRANCH   2   3
ATOM      3  C   UNL     1       5.697  -5.145  23.549  0.00  0.00    +0.000 C 
BRANCH   3   4
ATOM      4  C   UNL     1       5.756  -5.392  25.053  0.00  0.00    +0.009 C 
BRANCH   4   5
ATOM      5  C   UNL     1       6.867  -4.570  25.701  0.00  0.00    +0.098 C 
BRANCH   5   8
ATOM      6  N   UNL     1       8.957  -5.795  26.039  0.00  0.00    -0.197 N 
ATOM      7  H   UNL     1       9.582  -6.387  26.574  0.00  0.00    +0.182 HD
ATOM      8  C   UNL     1       7.763  -5.418  26.583  0.00  0.00    +0.235 C 
ATOM      9  O   UNL     1       7.467  -5.764  27.726  0.00  0.00    -0.274 OA
BRANCH   6  10
ATOM     10  O   UNL     1       9.275  -5.437  24.719  0.00  0.00    -0.295 OA
ATOM     11  H   UNL     1       8.805  -6.101  24.183  0.00  0.00    +0.241 HD
ENDBRANCH   6  10
ENDBRANCH   5   8
ENDBRANCH   4   5
ENDBRANCH   3   4
ENDBRANCH   2   3
ENDBRANCH   1   2
BRANCH   1  12
ATOM     12  C   UNL     1       7.504  -3.541  22.310  0.00  0.00    +0.096 C 
BRANCH  12  13
ATOM     13  C   UNL     1       8.412  -2.429  22.810  0.00  0.00    +0.217 C 
ATOM     14  N   UNL     1       7.994  -1.158  22.459  0.00  0.00    -0.285 N 
ATOM     15  H   UNL     1       7.057  -1.056  22.088  0.00  0.00    +0.155 HD
ATOM     16  O   UNL     1       9.410  -2.688  23.478  0.00  0.00    -0.275 OA
BRANCH  14  17
ATOM     17  C   UNL     1       8.703   0.031  22.751  0.00  0.00    +0.033 A 
ATOM     18  C   UNL     1       8.615   0.562  24.042  0.00  0.00    +0.023 A 
ATOM     19  C   UNL     1       9.338   1.712  24.385  0.00  0.00    +0.002 A 
ATOM     20  C   UNL     1      10.136   2.350  23.438  0.00  0.00    +0.000 A 
ATOM     21  C   UNL     1      10.204   1.849  22.144  0.00  0.00    +0.002 A 
ATOM     22  C   UNL     1       9.486   0.701  21.805  0.00  0.00    +0.023 A 
ENDBRANCH  14  17
ENDBRANCH  12  13
ENDBRANCH   1  12
TORSDOF 9
ENDMDL
MODEL 4
REMARK VINA RESULT:      -6.1      3.463      4.437
REMARK  Name = 
REMARK  9 active torsions:
REMARK  status: ('A' for Active; 'I' for Inactive)
REMARK    1  A    between atoms: O_1  and  N_2
REMARK    2  A    between atoms: C_3  and  C_5
REMARK    3  A    between atoms: C_5  and  C_6
REMARK    4  A    between atoms: C_6  and  C_7
REMARK    5  A    between atoms: C_7  and  C_8
REMARK    6  A    between atoms: C_8  and  C_9
REMARK    7  A    between atoms: C_9  and  C_10
REMARK    8  A    between atoms: C_10  and  C_11
REMARK    9  A    between atoms: N_13  and  C_14
REMARK                            x       y       z     vdW  Elec       q    Type
REMARK                         _______ _______ _______ _____ _____    ______ ____
ROOT
ATOM      1  C   UNL     1       9.804  -0.635  24.423  0.00  0.00    +0.009 C 
ENDROOT
BRANCH   1   2
ATOM      2  C   UNL     1      10.715   0.572  24.252  0.00  0.00    +0.000 C 
BRANCH   2   3
ATOM      3  C   UNL     1       9.911   1.751  23.699  0.00  0.00    +0.000 C 
BRANCH   3   4
ATOM      4  C   UNL     1       9.979   1.807  22.177  0.00  0.00    +0.009 C 
BRANCH   4   5
ATOM      5  C   UNL     1       8.704   1.249  21.549  0.00  0.00    +0.098 C 
BRANCH   5   8
ATOM      6  N   UNL     1       6.497   1.264  22.601  0.00  0.00    -0.197 N 
ATOM      7  H   UNL     1       5.637   1.714  22.894  0.00  0.00    +0.182 HD
ATOM      8  C   UNL     1       7.469   2.007  21.997  0.00  0.00    +0.235 C 
ATOM      9  O   UNL     1       7.317   3.218  21.843  0.00  0.00    -0.274 OA
BRANCH   6  10
ATOM     10  O   UNL     1       6.651  -0.125  22.736  0.00  0.00    -0.295 OA
ATOM     11  H   UNL     1       7.118  -0.221  23.585  0.00  0.00    +0.241 HD
ENDBRANCH   6  10
ENDBRANCH   5   8
ENDBRANCH   4   5
ENDBRANCH   3   4
ENDBRANCH   2   3
ENDBRANCH   1   2
BRANCH   1  12
ATOM     12  C   UNL     1      10.043  -1.746  23.396  0.00  0.00    +0.096 C 
BRANCH  12  13
ATOM     13  C   UNL     1       9.010  -2.841  23.609  0.00  0.00    +0.217 C 
ATOM     14  N   UNL     1       8.053  -2.914  22.613  0.00  0.00    -0.285 N 
ATOM     15  H   UNL     1       8.220  -2.394  21.760  0.00  0.00    +0.155 HD
ATOM     16  O   UNL     1       9.073  -3.579  24.588  0.00  0.00    -0.275 OA
BRANCH  14  17
ATOM     17  C   UNL     1       6.954  -3.804  22.619  0.00  0.00    +0.033 A 
ATOM     18  C   UNL     1       7.126  -5.083  22.079  0.00  0.00    +0.023 A 
ATOM     19  C   UNL     1       6.076  -6.010  22.107  0.00  0.00    +0.002 A 
ATOM     20  C   UNL     1       4.843  -5.661  22.656  0.00  0.00    +0.000 A 
ATOM     21  C   UNL     1       4.653  -4.383  23.164  0.00  0.00    +0.002 A 
ATOM     22  C   UNL     1       5.700  -3.462  23.139  0.00  0.00    +0.023 A 
ENDBRANCH  14  17
ENDBRANCH  12  13
ENDBRANCH   1  12
TORSDOF 9
ENDMDL
MODEL 5
REMARK VINA RESULT:      -5.9      4.046      8.816
REMARK  Name = 
REMARK  9 active torsions:
REMARK  status: ('A' for Active; 'I' for Inactive)
REMARK    1  A    between atoms: O_1  and  N_2
REMARK    2  A    between atoms: C_3  and  C_5
REMARK    3  A    between atoms: C_5  and  C_6
REMARK    4  A    between atoms: C_6  and  C_7
REMARK    5  A    between atoms: C_7  and  C_8
REMARK    6  A    between atoms: C_8  and  C_9
REMARK    7  A    between atoms: C_9  and  C_10
REMARK    8  A    between atoms: C_10  and  C_11
REMARK    9  A    between atoms: N_13  and  C_14
REMARK                            x       y       z     vdW  Elec       q    Type
REMARK                         _______ _______ _______ _____ _____    ______ ____
ROOT
ATOM      1  C   UNL     1       8.989  -4.242  26.364  0.00  0.00    +0.009 C 
ENDROOT
BRANCH   1   2
ATOM      2  C   UNL     1       7.930  -5.232  26.829  0.00  0.00    +0.000 C 
BRANCH   2   3
ATOM      3  C   UNL     1       6.673  -4.475  27.266  0.00  0.00    +0.000 C 
BRANCH   3   4
ATOM      4  C   UNL     1       5.593  -4.518  26.190  0.00  0.00    +0.009 C 
BRANCH   4   5
ATOM      5  C   UNL     1       5.603  -5.857  25.456  0.00  0.00    +0.098 C 
BRANCH   5   8
ATOM      6  N   UNL     1       4.744  -6.625  23.299  0.00  0.00    -0.197 N 
ATOM      7  H   UNL     1       4.656  -6.574  22.290  0.00  0.00    +0.182 HD
ATOM      8  C   UNL     1       5.485  -5.684  23.953  0.00  0.00    +0.235 C 
ATOM      9  O   UNL     1       6.010  -4.764  23.328  0.00  0.00    -0.274 OA
BRANCH   6  10
ATOM     10  O   UNL     1       4.183  -7.699  24.007  0.00  0.00    -0.295 OA
ATOM     11  H   UNL     1       4.249  -7.419  24.937  0.00  0.00    +0.241 HD
ENDBRANCH   6  10
ENDBRANCH   5   8
ENDBRANCH   4   5
ENDBRANCH   3   4
ENDBRANCH   2   3
ENDBRANCH   1   2
BRANCH   1  12
ATOM     12  C   UNL     1       9.120  -4.141  24.841  0.00  0.00    +0.096 C 
BRANCH  12  13
ATOM     13  C   UNL     1       8.911  -2.694  24.426  0.00  0.00    +0.217 C 
ATOM     14  N   UNL     1      10.036  -2.092  23.891  0.00  0.00    -0.285 N 
ATOM     15  H   UNL     1      10.815  -2.689  23.642  0.00  0.00    +0.155 HD
ATOM     16  O   UNL     1       7.815  -2.156  24.561  0.00  0.00    -0.275 OA
BRANCH  14  17
ATOM     17  C   UNL     1      10.109  -0.737  23.493  0.00  0.00    +0.033 A 
ATOM     18  C   UNL     1       9.740  -0.403  22.185  0.00  0.00    +0.023 A 
ATOM     19  C   UNL     1       9.756   0.933  21.765  0.00  0.00    +0.002 A 
ATOM     20  C   UNL     1      10.158   1.941  22.639  0.00  0.00    +0.000 A 
ATOM     21  C   UNL     1      10.558   1.615  23.929  0.00  0.00    +0.002 A 
ATOM     22  C   UNL     1      10.539   0.284  24.347  0.00  0.00    +0.023 A 
ENDBRANCH  14  17
ENDBRANCH  12  13
ENDBRANCH   1  12
TORSDOF 9
ENDMDL
MODEL 6
REMARK VINA RESULT:      -5.9      4.210      7.699
REMARK  Name = 
REMARK  9 active torsions:
REMARK  status: ('A' for Active; 'I' for Inactive)
REMARK    1  A    between atoms: O_1  and  N_2
REMARK    2  A    between atoms: C_3  and  C_5
REMARK    3  A    between atoms: C_5  and  C_6
REMARK    4  A    between atoms: C_6  and  C_7
REMARK    5  A    between atoms: C_7  and  C_8
REMARK    6  A    between atoms: C_8  and  C_9
REMARK    7  A    between atoms: C_9  and  C_10
REMARK    8  A    between atoms: C_10  and  C_11
REMARK    9  A    between atoms: N_13  and  C_14
REMARK                            x       y       z     vdW  Elec       q    Type
REMARK                         _______ _______ _______ _____ _____    ______ ____
ROOT
ATOM      1  C   UNL     1       7.916  -4.490  26.621  0.00  0.00    +0.009 C 
ENDROOT
BRANCH   1   2
ATOM      2  C   UNL     1       6.878  -5.531  26.226  0.00  0.00    +0.000 C 
BRANCH   2   3
ATOM      3  C   UNL     1       5.534  -4.845  25.965  0.00  0.00    +0.000 C 
BRANCH   3   4
ATOM      4  C   UNL     1       5.165  -4.887  24.486  0.00  0.00    +0.009 C 
BRANCH   4   5
ATOM      5  C   UNL     1       4.800  -3.497  23.972  0.00  0.00    +0.098 C 
BRANCH   5   8
ATOM      6  N   UNL     1       6.044  -1.985  22.507  0.00  0.00    -0.197 N 
ATOM      7  H   UNL     1       6.460  -1.723  21.620  0.00  0.00    +0.182 HD
ATOM      8  C   UNL     1       5.436  -3.201  22.627  0.00  0.00    +0.235 C 
ATOM      9  O   UNL     1       5.425  -3.984  21.679  0.00  0.00    -0.274 OA
BRANCH   6  10
ATOM     10  O   UNL     1       6.017  -1.073  23.574  0.00  0.00    -0.295 OA
ATOM     11  H   UNL     1       5.356  -0.415  23.295  0.00  0.00    +0.241 HD
ENDBRANCH   6  10
ENDBRANCH   5   8
ENDBRANCH   4   5
ENDBRANCH   3   4
ENDBRANCH   2   3
ENDBRANCH   1   2
BRANCH   1  12
ATOM     12  C   UNL     1       9.004  -4.266  25.567  0.00  0.00    +0.096 C 
BRANCH  12  13
ATOM     13  C   UNL     1       8.806  -2.894  24.944  0.00  0.00    +0.217 C 
ATOM     14  N   UNL     1       9.800  -2.531  24.052  0.00  0.00    -0.285 N 
ATOM     15  H   UNL     1      10.442  -3.250  23.745  0.00  0.00    +0.155 HD
ATOM     16  O   UNL     1       7.825  -2.212  25.229  0.00  0.00    -0.275 OA
BRANCH  14  17
ATOM     17  C   UNL     1       9.872  -1.280  23.396  0.00  0.00    +0.033 A 
ATOM     18  C   UNL     1       9.489  -1.207  22.052  0.00  0.00    +0.023 A 
ATOM     19  C   UNL     1       9.503   0.021  21.378  0.00  0.00    +0.002 A 
ATOM     20  C   UNL     1       9.916   1.179  22.034  0.00  0.00    +0.000 A 
ATOM     21  C   UNL     1      10.329   1.110  23.358  0.00  0.00    +0.002 A 
ATOM     22  C   UNL     1      10.312  -0.113  24.029  0.00  0.00    +0.023 A 
ENDBRANCH  14  17
ENDBRANCH  12  13
ENDBRANCH   1  12
TORSDOF 9
ENDMDL
MODEL 7
REMARK VINA RESULT:      -5.8      2.960      7.902
REMARK  Name = 
REMARK  9 active torsions:
REMARK  status: ('A' for Active; 'I' for Inactive)
REMARK    1  A    between atoms: O_1  and  N_2
REMARK    2  A    between atoms: C_3  and  C_5
REMARK    3  A    between atoms: C_5  and  C_6
REMARK    4  A    between atoms: C_6  and  C_7
REMARK    5  A    between atoms: C_7  and  C_8
REMARK    6  A    between atoms: C_8  and  C_9
REMARK    7  A    between atoms: C_9  and  C_10
REMARK    8  A    between atoms: C_10  and  C_11
REMARK    9  A    between atoms: N_13  and  C_14
REMARK                            x       y       z     vdW  Elec       q    Type
REMARK                         _______ _______ _______ _____ _____    ______ ____
ROOT
ATOM      1  C   UNL     1       9.285  -2.328  23.494  0.00  0.00    +0.009 C 
ENDROOT
BRANCH   1   2
ATOM      2  C   UNL     1       8.079  -2.695  22.639  0.00  0.00    +0.000 C 
BRANCH   2   3
ATOM      3  C   UNL     1       7.617  -4.113  22.981  0.00  0.00    +0.000 C 
BRANCH   3   4
ATOM      4  C   UNL     1       6.963  -4.171  24.358  0.00  0.00    +0.009 C 
BRANCH   4   5
ATOM      5  C   UNL     1       7.470  -5.369  25.157  0.00  0.00    +0.098 C 
BRANCH   5   8
ATOM      6  N   UNL     1       9.542  -5.076  26.423  0.00  0.00    -0.197 N 
ATOM      7  H   UNL     1      10.067  -4.835  27.257  0.00  0.00    +0.182 HD
ATOM      8  C   UNL     1       8.184  -4.946  26.427  0.00  0.00    +0.235 C 
ATOM      9  O   UNL     1       7.607  -4.507  27.421  0.00  0.00    -0.274 OA
BRANCH   6  10
ATOM     10  O   UNL     1      10.196  -5.619  25.306  0.00  0.00    -0.295 OA
ATOM     11  H   UNL     1       9.721  -6.454  25.147  0.00  0.00    +0.241 HD
ENDBRANCH   6  10
ENDBRANCH   5   8
ENDBRANCH   4   5
ENDBRANCH   3   4
ENDBRANCH   2   3
ENDBRANCH   1   2
BRANCH   1  12
ATOM     12  C   UNL     1      10.396  -1.608  22.725  0.00  0.00    +0.096 C 
BRANCH  12  13
ATOM     13  C   UNL     1      10.046  -0.132  22.627  0.00  0.00    +0.217 C 
ATOM     14  N   UNL     1      10.275   0.581  23.790  0.00  0.00    -0.285 N 
ATOM     15  H   UNL     1      10.819   0.133  24.517  0.00  0.00    +0.155 HD
ATOM     16  O   UNL     1       9.615   0.341  21.578  0.00  0.00    -0.275 OA
BRANCH  14  17
ATOM     17  C   UNL     1       9.968   1.950  23.966  0.00  0.00    +0.033 A 
ATOM     18  C   UNL     1       8.829   2.291  24.703  0.00  0.00    +0.023 A 
ATOM     19  C   UNL     1       8.516   3.636  24.939  0.00  0.00    +0.002 A 
ATOM     20  C   UNL     1       9.324   4.648  24.426  0.00  0.00    +0.000 A 
ATOM     21  C   UNL     1      10.439   4.319  23.664  0.00  0.00    +0.002 A 
ATOM     22  C   UNL     1      10.752   2.980  23.433  0.00  0.00    +0.023 A 
ENDBRANCH  14  17
ENDBRANCH  12  13
ENDBRANCH   1  12
TORSDOF 9
ENDMDL
MODEL 8
REMARK VINA RESULT:      -5.8      3.132      4.226
REMARK  Name = 
REMARK  9 active torsions:
REMARK  status: ('A' for Active; 'I' for Inactive)
REMARK    1  A    between atoms: O_1  and  N_2
REMARK    2  A    between atoms: C_3  and  C_5
REMARK    3  A    between atoms: C_5  and  C_6
REMARK    4  A    between atoms: C_6  and  C_7
REMARK    5  A    between atoms: C_7  and  C_8
REMARK    6  A    between atoms: C_8  and  C_9
REMARK    7  A    between atoms: C_9  and  C_10
REMARK    8  A    between atoms: C_10  and  C_11
REMARK    9  A    between atoms: N_13  and  C_14
REMARK                            x       y       z     vdW  Elec       q    Type
REMARK                         _______ _______ _______ _____ _____    ______ ____
ROOT
ATOM      1  C   UNL     1       8.680  -0.317  25.157  0.00  0.00    +0.009 C 
ENDROOT
BRANCH   1   2
ATOM      2  C   UNL     1      10.145   0.022  24.923  0.00  0.00    +0.000 C 
BRANCH   2   3
ATOM      3  C   UNL     1      10.548  -0.385  23.503  0.00  0.00    +0.000 C 
BRANCH   3   4
ATOM      4  C   UNL     1       9.329  -0.739  22.657  0.00  0.00    +0.009 C 
BRANCH   4   5
ATOM      5  C   UNL     1       9.232   0.161  21.429  0.00  0.00    +0.098 C 
BRANCH   5   8
ATOM      6  N   UNL     1       9.217   2.578  21.802  0.00  0.00    -0.197 N 
ATOM      7  H   UNL     1       8.762   3.457  22.022  0.00  0.00    +0.182 HD
ATOM      8  C   UNL     1       8.469   1.440  21.718  0.00  0.00    +0.235 C 
ATOM      9  O   UNL     1       7.250   1.488  21.872  0.00  0.00    -0.274 OA
BRANCH   6  10
ATOM     10  O   UNL     1      10.613   2.516  21.670  0.00  0.00    -0.295 OA
ATOM     11  H   UNL     1      10.933   3.162  22.325  0.00  0.00    +0.241 HD
ENDBRANCH   6  10
ENDBRANCH   5   8
ENDBRANCH   4   5
ENDBRANCH   3   4
ENDBRANCH   2   3
ENDBRANCH   1   2
BRANCH   1  12
ATOM     12  C   UNL     1       8.452  -1.369  26.246  0.00  0.00    +0.096 C 
BRANCH  12  13
ATOM     13  C   UNL     1       8.233  -2.720  25.584  0.00  0.00    +0.217 C 
ATOM     14  N   UNL     1       7.280  -2.709  24.581  0.00  0.00    -0.285 N 
ATOM     15  H   UNL     1       6.962  -1.808  24.245  0.00  0.00    +0.155 HD
ATOM     16  O   UNL     1       8.883  -3.702  25.933  0.00  0.00    -0.275 OA
BRANCH  14  17
ATOM     17  C   UNL     1       6.855  -3.851  23.864  0.00  0.00    +0.033 A 
ATOM     18  C   UNL     1       7.422  -4.102  22.610  0.00  0.00    +0.023 A 
ATOM     19  C   UNL     1       7.062  -5.247  21.887  0.00  0.00    +0.002 A 
ATOM     20  C   UNL     1       6.121  -6.137  22.402  0.00  0.00    +0.000 A 
ATOM     21  C   UNL     1       5.528  -5.878  23.631  0.00  0.00    +0.002 A 
ATOM     22  C   UNL     1       5.890  -4.740  24.351  0.00  0.00    +0.023 A 
ENDBRANCH  14  17
ENDBRANCH  12  13
ENDBRANCH   1  12
TORSDOF 9
ENDMDL
MODEL 9
REMARK VINA RESULT:      -5.8      2.740      3.449
REMARK  Name = 
REMARK  9 active torsions:
REMARK  status: ('A' for Active; 'I' for Inactive)
REMARK    1  A    between atoms: O_1  and  N_2
REMARK    2  A    between atoms: C_3  and  C_5
REMARK    3  A    between atoms: C_5  and  C_6
REMARK    4  A    between atoms: C_6  and  C_7
REMARK    5  A    between atoms: C_7  and  C_8
REMARK    6  A    between atoms: C_8  and  C_9
REMARK    7  A    between atoms: C_9  and  C_10
REMARK    8  A    between atoms: C_10  and  C_11
REMARK    9  A    between atoms: N_13  and  C_14
REMARK                            x       y       z     vdW  Elec       q    Type
REMARK                         _______ _______ _______ _____ _____    ______ ____
ROOT
ATOM      1  C   UNL     1      10.211  -0.482  24.398  0.00  0.00    +0.009 C 
ENDROOT
BRANCH   1   2
ATOM      2  C   UNL     1       8.904  -0.152  25.106  0.00  0.00    +0.000 C 
BRANCH   2   3
ATOM      3  C   UNL     1       8.664   1.359  25.068  0.00  0.00    +0.000 C 
BRANCH   3   4
ATOM      4  C   UNL     1       7.585   1.728  24.055  0.00  0.00    +0.009 C 
BRANCH   4   5
ATOM      5  C   UNL     1       8.119   2.714  23.020  0.00  0.00    +0.098 C 
BRANCH   5   8
ATOM      6  N   UNL     1      10.180   2.296  21.772  0.00  0.00    -0.197 N 
ATOM      7  H   UNL     1      10.712   1.879  21.016  0.00  0.00    +0.182 HD
ATOM      8  C   UNL     1       8.850   2.014  21.890  0.00  0.00    +0.235 C 
ATOM      9  O   UNL     1       8.312   1.232  21.108  0.00  0.00    -0.274 OA
BRANCH   6  10
ATOM     10  O   UNL     1      10.785   3.223  22.636  0.00  0.00    -0.295 OA
ATOM     11  H   UNL     1      11.665   3.362  22.242  0.00  0.00    +0.241 HD
ENDBRANCH   6  10
ENDBRANCH   5   8
ENDBRANCH   4   5
ENDBRANCH   3   4
ENDBRANCH   2   3
ENDBRANCH   1   2
BRANCH   1  12
ATOM     12  C   UNL     1      10.031  -1.256  23.089  0.00  0.00    +0.096 C 
BRANCH  12  13
ATOM     13  C   UNL     1       9.367  -2.588  23.396  0.00  0.00    +0.217 C 
ATOM     14  N   UNL     1       8.149  -2.770  22.764  0.00  0.00    -0.285 N 
ATOM     15  H   UNL     1       7.901  -2.122  22.027  0.00  0.00    +0.155 HD
ATOM     16  O   UNL     1       9.912  -3.405  24.133  0.00  0.00    -0.275 OA
BRANCH  14  17
ATOM     17  C   UNL     1       7.313  -3.896  22.942  0.00  0.00    +0.033 A 
ATOM     18  C   UNL     1       6.489  -3.946  24.072  0.00  0.00    +0.023 A 
ATOM     19  C   UNL     1       5.613  -5.023  24.261  0.00  0.00    +0.002 A 
ATOM     20  C   UNL     1       5.567  -6.064  23.336  0.00  0.00    +0.000 A 
ATOM     21  C   UNL     1       6.405  -6.039  22.229  0.00  0.00    +0.002 A 
ATOM     22  C   UNL     1       7.275  -4.965  22.039  0.00  0.00    +0.023 A 
ENDBRANCH  14  17
ENDBRANCH  12  13
ENDBRANCH   1  12
TORSDOF 9
ENDMDL
