MODEL 1
REMARK VINA RESULT:      -6.7      0.000      0.000
REMARK  Name = 
REMARK  7 active torsions:
REMARK  status: ('A' for Active; 'I' for Inactive)
REMARK    1  A    between atoms: C_2  and  N_3
REMARK    2  A    between atoms: C_2  and  C_14
REMARK    3  A    between atoms: C_2  and  C_17
REMARK    4  A    between atoms: N_3  and  C_4
REMARK    5  A    between atoms: C_5  and  C_11
REMARK    6  A    between atoms: C_8  and  C_9
REMARK    7  A    between atoms: C_11  and  C_12
REMARK                            x       y       z     vdW  Elec       q    Type
REMARK                         _______ _______ _______ _____ _____    ______ ____
ROOT
ATOM      1  C   UNL     1       7.375  -2.310  24.892  0.00  0.00    +0.190 C 
ENDROOT
BRANCH   1   2
ATOM      2  C   UNL     1       8.631  -1.500  24.605  0.00  0.00    +0.018 A 
ATOM      3  C   UNL     1       9.155  -0.622  25.578  0.00  0.00    +0.048 A 
ATOM      4 CL   UNL     1       8.618  -0.619  27.224  0.00  0.00    -0.083 Cl
ATOM      5  C   UNL     1      10.147   0.316  25.257  0.00  0.00    +0.020 A 
ATOM      6  C   UNL     1      10.659   0.385  23.968  0.00  0.00    +0.003 A 
ATOM      7  C   UNL     1      10.212  -0.517  23.009  0.00  0.00    +0.020 A 
ATOM      8  C   UNL     1       9.216  -1.451  23.322  0.00  0.00    +0.048 A 
ATOM      9 CL   UNL     1       8.741  -2.515  22.039  0.00  0.00    -0.083 Cl
ENDBRANCH   1   2
BRANCH   1  10
ATOM     10  C   UNL     1       6.098  -1.532  24.459  0.00  0.00    +0.235 C 
ATOM     11  O   UNL     1       5.092  -1.368  25.144  0.00  0.00    -0.274 OA
ATOM     12  N   UNL     1       6.124  -1.075  23.163  0.00  0.00    -0.328 N 
ATOM     13  H   UNL     1       5.350  -0.503  22.852  0.00  0.00    +0.145 HD
ATOM     14  H   UNL     1       7.012  -1.009  22.679  0.00  0.00    +0.145 HD
ENDBRANCH   1  10
BRANCH   1  15
ATOM     15  N   UNL     1       7.368  -3.653  24.260  0.00  0.00    -0.329 N 
ATOM     16  H   UNL     1       8.317  -3.988  24.092  0.00  0.00    +0.147 HD
BRANCH  15  17
ATOM     17  C   UNL     1       6.446  -4.665  24.489  0.00  0.00    +0.039 A 
ATOM     18  C   UNL     1       6.167  -5.139  25.786  0.00  0.00    +0.027 A 
ATOM     19  C   UNL     1       5.258  -6.182  26.039  0.00  0.00    -0.049 A 
ATOM     20  C   UNL     1       5.108  -6.711  27.436  0.00  0.00    +0.044 C 
ATOM     21  C   UNL     1       4.565  -6.753  24.978  0.00  0.00    +0.004 A 
ATOM     22  C   UNL     1       4.761  -6.265  23.690  0.00  0.00    +0.013 A 
ATOM     23  C   UNL     1       5.673  -5.219  23.439  0.00  0.00    +0.038 A 
BRANCH  23  24
ATOM     24  C   UNL     1       5.746  -4.796  22.004  0.00  0.00    +0.162 C 
ATOM     25  O   UNL     1       5.424  -3.645  21.705  0.00  0.00    -0.292 OA
ATOM     26  C   UNL     1       6.268  -5.731  20.945  0.00  0.00    +0.091 C 
ENDBRANCH  23  24
ENDBRANCH  15  17
ENDBRANCH   1  15
TORSDOF 5
ENDMDL
MODEL 2
REMARK VINA RESULT:      -6.6      2.062      6.088
REMARK  Name = 
REMARK  7 active torsions:
REMARK  status: ('A' for Active; 'I' for Inactive)
REMARK    1  A    between atoms: C_2  and  N_3
REMARK    2  A    between atoms: C_2  and  C_14
REMARK    3  A    between atoms: C_2  and  C_17
REMARK    4  A    between atoms: N_3  and  C_4
REMARK    5  A    between atoms: C_5  and  C_11
REMARK    6  A    between atoms: C_8  and  C_9
REMARK    7  A    between atoms: C_11  and  C_12
REMARK                            x       y       z     vdW  Elec       q    Type
REMARK                         _______ _______ _______ _____ _____    ______ ____
ROOT
ATOM      1  C   UNL     1       7.187  -3.434  22.995  0.00  0.00    +0.190 C 
ENDROOT
BRANCH   1   2
ATOM      2  C   UNL     1       6.892  -4.080  24.341  0.00  0.00    +0.018 A 
ATOM      3  C   UNL     1       7.945  -4.542  25.159  0.00  0.00    +0.048 A 
ATOM      4 CL   UNL     1       9.606  -4.152  24.860  0.00  0.00    -0.083 Cl
ATOM      5  C   UNL     1       7.701  -5.361  26.271  0.00  0.00    +0.020 A 
ATOM      6  C   UNL     1       6.402  -5.719  26.610  0.00  0.00    +0.003 A 
ATOM      7  C   UNL     1       5.342  -5.219  25.863  0.00  0.00    +0.020 A 
ATOM      8  C   UNL     1       5.580  -4.406  24.746  0.00  0.00    +0.048 A 
ATOM      9 CL   UNL     1       4.177  -3.851  23.895  0.00  0.00    -0.083 Cl
ENDBRANCH   1   2
BRANCH   1  10
ATOM     10  C   UNL     1       6.610  -4.288  21.828  0.00  0.00    +0.235 C 
ATOM     11  O   UNL     1       5.727  -3.936  21.050  0.00  0.00    -0.274 OA
ATOM     12  N   UNL     1       7.116  -5.564  21.755  0.00  0.00    -0.328 N 
ATOM     13  H   UNL     1       6.829  -6.138  20.973  0.00  0.00    +0.145 HD
ATOM     14  H   UNL     1       7.982  -5.781  22.234  0.00  0.00    +0.145 HD
ENDBRANCH   1  10
BRANCH   1  15
ATOM     15  N   UNL     1       6.689  -2.041  22.875  0.00  0.00    -0.329 N 
ATOM     16  H   UNL     1       5.676  -1.999  22.982  0.00  0.00    +0.147 HD
BRANCH  15  17
ATOM     17  C   UNL     1       7.348  -0.893  23.297  0.00  0.00    +0.039 A 
ATOM     18  C   UNL     1       8.251  -0.205  22.465  0.00  0.00    +0.027 A 
ATOM     19  C   UNL     1       8.951   0.942  22.882  0.00  0.00    -0.049 A 
ATOM     20  C   UNL     1       9.986   1.547  21.979  0.00  0.00    +0.044 C 
ATOM     21  C   UNL     1       8.721   1.455  24.153  0.00  0.00    +0.004 A 
ATOM     22  C   UNL     1       7.784   0.843  24.979  0.00  0.00    +0.013 A 
ATOM     23  C   UNL     1       7.084  -0.306  24.560  0.00  0.00    +0.038 A 
BRANCH  23  24
ATOM     24  C   UNL     1       6.094  -0.824  25.557  0.00  0.00    +0.162 C 
ATOM     25  O   UNL     1       4.897  -0.820  25.267  0.00  0.00    -0.292 OA
ATOM     26  C   UNL     1       6.549  -1.409  26.869  0.00  0.00    +0.091 C 
ENDBRANCH  23  24
ENDBRANCH  15  17
ENDBRANCH   1  15
TORSDOF 5
ENDMDL
MODEL 3
REMARK VINA RESULT:      -6.5      2.764      5.692
REMARK  Name = 
REMARK  7 active torsions:
REMARK  status: ('A' for Active; 'I' for Inactive)
REMARK    1  A    between atoms: C_2  and  N_3
REMARK    2  A    between atoms: C_2  and  C_14
REMARK    3  A    between atoms: C_2  and  C_17
REMARK    4  A    between atoms: N_3  and  C_4
REMARK    5  A    between atoms: C_5  and  C_11
REMARK    6  A    between atoms: C_8  and  C_9
REMARK    7  A    between atoms: C_11  and  C_12
REMARK                            x       y       z     vdW  Elec       q    Type
REMARK                         _______ _______ _______ _____ _____    ______ ____
ROOT
ATOM      1  C   UNL     1       6.743  -4.211  25.854  0.00  0.00    +0.190 C 
ENDROOT
BRANCH   1   2
ATOM      2  C   UNL     1       6.523  -4.683  24.425  0.00  0.00    +0.018 A 
ATOM      3  C   UNL     1       7.563  -5.318  23.712  0.00  0.00    +0.048 A 
ATOM      4 CL   UNL     1       9.019  -5.870  24.470  0.00  0.00    -0.083 Cl
ATOM      5  C   UNL     1       7.476  -5.531  22.329  0.00  0.00    +0.020 A 
ATOM      6  C   UNL     1       6.343  -5.141  21.626  0.00  0.00    +0.003 A 
ATOM      7  C   UNL     1       5.275  -4.580  22.316  0.00  0.00    +0.020 A 
ATOM      8  C   UNL     1       5.358  -4.358  23.697  0.00  0.00    +0.048 A 
ATOM      9 CL   UNL     1       3.964  -3.647  24.439  0.00  0.00    -0.083 Cl
ENDBRANCH   1   2
BRANCH   1  10
ATOM     10  C   UNL     1       6.819  -5.417  26.835  0.00  0.00    +0.235 C 
ATOM     11  O   UNL     1       7.719  -5.627  27.644  0.00  0.00    -0.274 OA
ATOM     12  N   UNL     1       5.804  -6.332  26.688  0.00  0.00    -0.328 N 
ATOM     13  H   UNL     1       5.766  -7.099  27.347  0.00  0.00    +0.145 HD
ATOM     14  H   UNL     1       4.961  -6.062  26.197  0.00  0.00    +0.145 HD
ENDBRANCH   1  10
BRANCH   1  15
ATOM     15  N   UNL     1       7.947  -3.360  26.028  0.00  0.00    -0.329 N 
ATOM     16  H   UNL     1       8.791  -3.848  25.729  0.00  0.00    +0.147 HD
BRANCH  15  17
ATOM     17  C   UNL     1       8.009  -1.981  25.874  0.00  0.00    +0.039 A 
ATOM     18  C   UNL     1       7.543  -1.099  26.868  0.00  0.00    +0.027 A 
ATOM     19  C   UNL     1       7.570   0.299  26.721  0.00  0.00    -0.049 A 
ATOM     20  C   UNL     1       6.943   1.167  27.773  0.00  0.00    +0.044 C 
ATOM     21  C   UNL     1       8.115   0.852  25.568  0.00  0.00    +0.004 A 
ATOM     22  C   UNL     1       8.649   0.015  24.593  0.00  0.00    +0.013 A 
ATOM     23  C   UNL     1       8.621  -1.386  24.743  0.00  0.00    +0.038 A 
BRANCH  23  24
ATOM     24  C   UNL     1       9.260  -2.140  23.617  0.00  0.00    +0.162 C 
ATOM     25  O   UNL     1      10.203  -2.893  23.863  0.00  0.00    -0.292 OA
ATOM     26  C   UNL     1       8.722  -2.040  22.213  0.00  0.00    +0.091 C 
ENDBRANCH  23  24
ENDBRANCH  15  17
ENDBRANCH   1  15
TORSDOF 5
ENDMDL
MODEL 4
REMARK VINA RESULT:      -6.5      2.085      6.064
REMARK  Name = 
REMARK  7 active torsions:
REMARK  status: ('A' for Active; 'I' for Inactive)
REMARK    1  A    between atoms: C_2  and  N_3
REMARK    2  A    between atoms: C_2  and  C_14
REMARK    3  A    between atoms: C_2  and  C_17
REMARK    4  A    between atoms: N_3  and  C_4
REMARK    5  A    between atoms: C_5  and  C_11
REMARK    6  A    between atoms: C_8  and  C_9
REMARK    7  A    between atoms: C_11  and  C_12
REMARK                            x       y       z     vdW  Elec       q    Type
REMARK                         _______ _______ _______ _____ _____    ______ ____
ROOT
ATOM      1  C   UNL     1       7.205  -3.859  23.054  0.00  0.00    +0.190 C 
ENDROOT
BRANCH   1   2
ATOM      2  C   UNL     1       6.902  -4.540  24.380  0.00  0.00    +0.018 A 
ATOM      3  C   UNL     1       5.569  -4.702  24.814  0.00  0.00    +0.048 A 
ATOM      4 CL   UNL     1       4.207  -4.431  23.780  0.00  0.00    -0.083 Cl
ATOM      5  C   UNL     1       5.271  -5.089  26.128  0.00  0.00    +0.020 A 
ATOM      6  C   UNL     1       6.291  -5.348  27.035  0.00  0.00    +0.003 A 
ATOM      7  C   UNL     1       7.613  -5.267  26.612  0.00  0.00    +0.020 A 
ATOM      8  C   UNL     1       7.918  -4.874  25.302  0.00  0.00    +0.048 A 
ATOM      9 CL   UNL     1       9.601  -4.804  24.900  0.00  0.00    -0.083 Cl
ENDBRANCH   1   2
BRANCH   1  10
ATOM     10  C   UNL     1       6.720  -4.726  21.856  0.00  0.00    +0.235 C 
ATOM     11  O   UNL     1       5.928  -4.372  20.988  0.00  0.00    -0.274 OA
ATOM     12  N   UNL     1       7.193  -6.017  21.863  0.00  0.00    -0.328 N 
ATOM     13  H   UNL     1       6.966  -6.604  21.070  0.00  0.00    +0.145 HD
ATOM     14  H   UNL     1       8.001  -6.245  22.429  0.00  0.00    +0.145 HD
ENDBRANCH   1  10
BRANCH   1  15
ATOM     15  N   UNL     1       6.633  -2.494  22.934  0.00  0.00    -0.329 N 
ATOM     16  H   UNL     1       5.626  -2.500  23.095  0.00  0.00    +0.147 HD
BRANCH  15  17
ATOM     17  C   UNL     1       7.255  -1.307  23.298  0.00  0.00    +0.039 A 
ATOM     18  C   UNL     1       8.138  -0.633  22.433  0.00  0.00    +0.027 A 
ATOM     19  C   UNL     1       8.800   0.555  22.791  0.00  0.00    -0.049 A 
ATOM     20  C   UNL     1       9.818   1.146  21.860  0.00  0.00    +0.044 C 
ATOM     21  C   UNL     1       8.551   1.124  24.035  0.00  0.00    +0.004 A 
ATOM     22  C   UNL     1       7.631   0.526  24.890  0.00  0.00    +0.013 A 
ATOM     23  C   UNL     1       6.969  -0.665  24.529  0.00  0.00    +0.038 A 
BRANCH  23  24
ATOM     24  C   UNL     1       5.994  -1.163  25.551  0.00  0.00    +0.162 C 
ATOM     25  O   UNL     1       4.809  -1.283  25.235  0.00  0.00    -0.292 OA
ATOM     26  C   UNL     1       6.454  -1.580  26.923  0.00  0.00    +0.091 C 
ENDBRANCH  23  24
ENDBRANCH  15  17
ENDBRANCH   1  15
TORSDOF 5
ENDMDL
MODEL 5
REMARK VINA RESULT:      -6.5      2.435      6.246
REMARK  Name = 
REMARK  7 active torsions:
REMARK  status: ('A' for Active; 'I' for Inactive)
REMARK    1  A    between atoms: C_2  and  N_3
REMARK    2  A    between atoms: C_2  and  C_14
REMARK    3  A    between atoms: C_2  and  C_17
REMARK    4  A    between atoms: N_3  and  C_4
REMARK    5  A    between atoms: C_5  and  C_11
REMARK    6  A    between atoms: C_8  and  C_9
REMARK    7  A    between atoms: C_11  and  C_12
REMARK                            x       y       z     vdW  Elec       q    Type
REMARK                         _______ _______ _______ _____ _____    ______ ____
ROOT
ATOM      1  C   UNL     1       7.875  -4.051  25.261  0.00  0.00    +0.190 C 
ENDROOT
BRANCH   1   2
ATOM      2  C   UNL     1       6.833  -5.142  25.067  0.00  0.00    +0.018 A 
ATOM      3  C   UNL     1       6.396  -5.494  23.772  0.00  0.00    +0.048 A 
ATOM      4 CL   UNL     1       7.197  -4.955  22.333  0.00  0.00    -0.083 Cl
ATOM      5  C   UNL     1       5.267  -6.303  23.575  0.00  0.00    +0.020 A 
ATOM      6  C   UNL     1       4.561  -6.802  24.663  0.00  0.00    +0.003 A 
ATOM      7  C   UNL     1       5.013  -6.531  25.949  0.00  0.00    +0.020 A 
ATOM      8  C   UNL     1       6.136  -5.717  26.151  0.00  0.00    +0.048 A 
ATOM      9 CL   UNL     1       6.594  -5.449  27.801  0.00  0.00    -0.083 Cl
ENDBRANCH   1   2
BRANCH   1  10
ATOM     10  C   UNL     1       9.312  -4.603  25.029  0.00  0.00    +0.235 C 
ATOM     11  O   UNL     1      10.184  -4.070  24.348  0.00  0.00    -0.274 OA
ATOM     12  N   UNL     1       9.545  -5.834  25.596  0.00  0.00    -0.328 N 
ATOM     13  H   UNL     1      10.483  -6.208  25.536  0.00  0.00    +0.145 HD
ATOM     14  H   UNL     1       8.927  -6.167  26.327  0.00  0.00    +0.145 HD
ENDBRANCH   1  10
BRANCH   1  15
ATOM     15  N   UNL     1       7.664  -2.858  24.403  0.00  0.00    -0.329 N 
ATOM     16  H   UNL     1       6.922  -3.019  23.722  0.00  0.00    +0.147 HD
BRANCH  15  17
ATOM     17  C   UNL     1       7.793  -1.532  24.793  0.00  0.00    +0.039 A 
ATOM     18  C   UNL     1       7.459  -1.102  26.092  0.00  0.00    +0.027 A 
ATOM     19  C   UNL     1       7.555   0.241  26.500  0.00  0.00    -0.049 A 
ATOM     20  C   UNL     1       7.065   0.638  27.862  0.00  0.00    +0.044 C 
ATOM     21  C   UNL     1       8.038   1.190  25.607  0.00  0.00    +0.004 A 
ATOM     22  C   UNL     1       8.444   0.793  24.337  0.00  0.00    +0.013 A 
ATOM     23  C   UNL     1       8.347  -0.554  23.931  0.00  0.00    +0.038 A 
BRANCH  23  24
ATOM     24  C   UNL     1       8.849  -0.817  22.545  0.00  0.00    +0.162 C 
ATOM     25  O   UNL     1       8.426  -1.800  21.934  0.00  0.00    -0.292 OA
ATOM     26  C   UNL     1       9.804   0.134  21.872  0.00  0.00    +0.091 C 
ENDBRANCH  23  24
ENDBRANCH  15  17
ENDBRANCH   1  15
TORSDOF 5
ENDMDL
MODEL 6
REMARK VINA RESULT:      -6.5      2.654      4.483
REMARK  Name = 
REMARK  7 active torsions:
REMARK  status: ('A' for Active; 'I' for Inactive)
REMARK    1  A    between atoms: C_2  and  N_3
REMARK    2  A    between atoms: C_2  and  C_14
REMARK    3  A    between atoms: C_2  and  C_17
REMARK    4  A    between atoms: N_3  and  C_4
REMARK    5  A    between atoms: C_5  and  C_11
REMARK    6  A    between atoms: C_8  and  C_9
REMARK    7  A    between atoms: C_11  and  C_12
REMARK                            x       y       z     vdW  Elec       q    Type
REMARK                         _______ _______ _______ _____ _____    ______ ____
ROOT
ATOM      1  C   UNL     1       7.967  -4.468  24.877  0.00  0.00    +0.190 C 
ENDROOT
BRANCH   1   2
ATOM      2  C   UNL     1       8.008  -3.137  24.141  0.00  0.00    +0.018 A 
ATOM      3  C   UNL     1       7.814  -3.086  22.744  0.00  0.00    +0.048 A 
ATOM      4 CL   UNL     1       7.231  -4.434  21.827  0.00  0.00    -0.083 Cl
ATOM      5  C   UNL     1       8.097  -1.925  22.009  0.00  0.00    +0.020 A 
ATOM      6  C   UNL     1       8.555  -0.780  22.650  0.00  0.00    +0.003 A 
ATOM      7  C   UNL     1       8.684  -0.782  24.035  0.00  0.00    +0.020 A 
ATOM      8  C   UNL     1       8.410  -1.941  24.773  0.00  0.00    +0.048 A 
ATOM      9 CL   UNL     1       8.616  -1.817  26.489  0.00  0.00    -0.083 Cl
ENDBRANCH   1   2
BRANCH   1  10
ATOM     10  C   UNL     1       9.353  -4.805  25.500  0.00  0.00    +0.235 C 
ATOM     11  O   UNL     1      10.415  -4.880  24.888  0.00  0.00    -0.274 OA
ATOM     12  N   UNL     1       9.314  -5.109  26.840  0.00  0.00    -0.328 N 
ATOM     13  H   UNL     1      10.195  -5.267  27.311  0.00  0.00    +0.145 HD
ATOM     14  H   UNL     1       8.505  -4.836  27.386  0.00  0.00    +0.145 HD
ENDBRANCH   1  10
BRANCH   1  15
ATOM     15  N   UNL     1       6.925  -4.539  25.932  0.00  0.00    -0.329 N 
ATOM     16  H   UNL     1       6.813  -3.642  26.403  0.00  0.00    +0.147 HD
BRANCH  15  17
ATOM     17  C   UNL     1       5.766  -5.303  25.893  0.00  0.00    +0.039 A 
ATOM     18  C   UNL     1       5.042  -5.497  24.701  0.00  0.00    +0.027 A 
ATOM     19  C   UNL     1       3.851  -6.243  24.644  0.00  0.00    -0.049 A 
ATOM     20  C   UNL     1       3.074  -6.301  23.361  0.00  0.00    +0.044 C 
ATOM     21  C   UNL     1       3.377  -6.857  25.798  0.00  0.00    +0.004 A 
ATOM     22  C   UNL     1       4.102  -6.746  26.980  0.00  0.00    +0.013 A 
ATOM     23  C   UNL     1       5.295  -5.998  27.035  0.00  0.00    +0.038 A 
BRANCH  23  24
ATOM     24  C   UNL     1       5.965  -6.002  28.374  0.00  0.00    +0.162 C 
ATOM     25  O   UNL     1       7.147  -6.340  28.449  0.00  0.00    -0.292 OA
ATOM     26  C   UNL     1       5.235  -5.535  29.607  0.00  0.00    +0.091 C 
ENDBRANCH  23  24
ENDBRANCH  15  17
ENDBRANCH   1  15
TORSDOF 5
ENDMDL
MODEL 7
REMARK VINA RESULT:      -6.5      3.190      6.461
REMARK  Name = 
REMARK  7 active torsions:
REMARK  status: ('A' for Active; 'I' for Inactive)
REMARK    1  A    between atoms: C_2  and  N_3
REMARK    2  A    between atoms: C_2  and  C_14
REMARK    3  A    between atoms: C_2  and  C_17
REMARK    4  A    between atoms: N_3  and  C_4
REMARK    5  A    between atoms: C_5  and  C_11
REMARK    6  A    between atoms: C_8  and  C_9
REMARK    7  A    between atoms: C_11  and  C_12
REMARK                            x       y       z     vdW  Elec       q    Type
REMARK                         _______ _______ _______ _____ _____    ______ ____
ROOT
ATOM      1  C   UNL     1       8.734  -1.069  23.726  0.00  0.00    +0.190 C 
ENDROOT
BRANCH   1   2
ATOM      2  C   UNL     1       7.879  -2.078  24.477  0.00  0.00    +0.018 A 
ATOM      3  C   UNL     1       7.959  -2.179  25.882  0.00  0.00    +0.048 A 
ATOM      4 CL   UNL     1       8.770  -1.005  26.863  0.00  0.00    -0.083 Cl
ATOM      5  C   UNL     1       7.384  -3.257  26.571  0.00  0.00    +0.020 A 
ATOM      6  C   UNL     1       6.695  -4.247  25.881  0.00  0.00    +0.003 A 
ATOM      7  C   UNL     1       6.540  -4.133  24.504  0.00  0.00    +0.020 A 
ATOM      8  C   UNL     1       7.118  -3.062  23.810  0.00  0.00    +0.048 A 
ATOM      9 CL   UNL     1       6.859  -3.037  22.097  0.00  0.00    -0.083 Cl
ENDBRANCH   1   2
BRANCH   1  10
ATOM     10  C   UNL     1       9.797  -1.785  22.841  0.00  0.00    +0.235 C 
ATOM     11  O   UNL     1      10.563  -2.668  23.214  0.00  0.00    -0.274 OA
ATOM     12  N   UNL     1       9.892  -1.294  21.560  0.00  0.00    -0.328 N 
ATOM     13  H   UNL     1      10.517  -1.769  20.922  0.00  0.00    +0.145 HD
ATOM     14  H   UNL     1       9.133  -0.738  21.186  0.00  0.00    +0.145 HD
ENDBRANCH   1  10
BRANCH   1  15
ATOM     15  N   UNL     1       7.953  -0.126  22.887  0.00  0.00    -0.329 N 
ATOM     16  H   UNL     1       7.317  -0.623  22.264  0.00  0.00    +0.147 HD
BRANCH  15  17
ATOM     17  C   UNL     1       7.502   1.132  23.266  0.00  0.00    +0.039 A 
ATOM     18  C   UNL     1       6.221   1.328  23.817  0.00  0.00    +0.027 A 
ATOM     19  C   UNL     1       5.732   2.595  24.181  0.00  0.00    -0.049 A 
ATOM     20  C   UNL     1       4.312   2.736  24.647  0.00  0.00    +0.044 C 
ATOM     21  C   UNL     1       6.552   3.708  24.037  0.00  0.00    +0.004 A 
ATOM     22  C   UNL     1       7.850   3.545  23.561  0.00  0.00    +0.013 A 
ATOM     23  C   UNL     1       8.337   2.274  23.197  0.00  0.00    +0.038 A 
BRANCH  23  24
ATOM     24  C   UNL     1       9.760   2.269  22.729  0.00  0.00    +0.162 C 
ATOM     25  O   UNL     1      10.058   1.612  21.731  0.00  0.00    -0.292 OA
ATOM     26  C   UNL     1      10.805   3.106  23.419  0.00  0.00    +0.091 C 
ENDBRANCH  23  24
ENDBRANCH  15  17
ENDBRANCH   1  15
TORSDOF 5
ENDMDL
MODEL 8
REMARK VINA RESULT:      -6.3      2.310      3.904
REMARK  Name = 
REMARK  7 active torsions:
REMARK  status: ('A' for Active; 'I' for Inactive)
REMARK    1  A    between atoms: C_2  and  N_3
REMARK    2  A    between atoms: C_2  and  C_14
REMARK    3  A    between atoms: C_2  and  C_17
REMARK    4  A    between atoms: N_3  and  C_4
REMARK    5  A    between atoms: C_5  and  C_11
REMARK    6  A    between atoms: C_8  and  C_9
REMARK    7  A    between atoms: C_11  and  C_12
REMARK                            x       y       z     vdW  Elec       q    Type
REMARK                         _______ _______ _______ _____ _____    ______ ____
ROOT
ATOM      1  C   UNL     1       8.194  -1.335  24.554  0.00  0.00    +0.190 C 
ENDROOT
BRANCH   1   2
ATOM      2  C   UNL     1       8.116  -0.343  23.402  0.00  0.00    +0.018 A 
ATOM      3  C   UNL     1       9.119  -0.319  22.409  0.00  0.00    +0.048 A 
ATOM      4 CL   UNL     1      10.311  -1.564  22.249  0.00  0.00    -0.083 Cl
ATOM      5  C   UNL     1       9.211   0.737  21.490  0.00  0.00    +0.020 A 
ATOM      6  C   UNL     1       8.294   1.779  21.521  0.00  0.00    +0.003 A 
ATOM      7  C   UNL     1       7.253   1.742  22.443  0.00  0.00    +0.020 A 
ATOM      8  C   UNL     1       7.160   0.694  23.368  0.00  0.00    +0.048 A 
ATOM      9 CL   UNL     1       5.822   0.766  24.467  0.00  0.00    -0.083 Cl
ENDBRANCH   1   2
BRANCH   1  10
ATOM     10  C   UNL     1       8.702  -0.643  25.853  0.00  0.00    +0.235 C 
ATOM     11  O   UNL     1       8.136  -0.660  26.942  0.00  0.00    -0.274 OA
ATOM     12  N   UNL     1       9.848   0.098  25.689  0.00  0.00    -0.328 N 
ATOM     13  H   UNL     1      10.261   0.511  26.515  0.00  0.00    +0.145 HD
ATOM     14  H   UNL     1      10.429  -0.063  24.875  0.00  0.00    +0.145 HD
ENDBRANCH   1  10
BRANCH   1  15
ATOM     15  N   UNL     1       6.913  -2.029  24.837  0.00  0.00    -0.329 N 
ATOM     16  H   UNL     1       6.132  -1.374  24.853  0.00  0.00    +0.147 HD
BRANCH  15  17
ATOM     17  C   UNL     1       6.565  -3.310  24.429  0.00  0.00    +0.039 A 
ATOM     18  C   UNL     1       6.651  -3.713  23.082  0.00  0.00    +0.027 A 
ATOM     19  C   UNL     1       6.276  -4.995  22.643  0.00  0.00    -0.049 A 
ATOM     20  C   UNL     1       6.282  -5.307  21.175  0.00  0.00    +0.044 C 
ATOM     21  C   UNL     1       5.840  -5.932  23.573  0.00  0.00    +0.004 A 
ATOM     22  C   UNL     1       5.808  -5.595  24.922  0.00  0.00    +0.013 A 
ATOM     23  C   UNL     1       6.183  -4.308  25.360  0.00  0.00    +0.038 A 
BRANCH  23  24
ATOM     24  C   UNL     1       6.115  -4.118  26.844  0.00  0.00    +0.162 C 
ATOM     25  O   UNL     1       5.762  -3.025  27.289  0.00  0.00    -0.292 OA
ATOM     26  C   UNL     1       6.405  -5.257  27.786  0.00  0.00    +0.091 C 
ENDBRANCH  23  24
ENDBRANCH  15  17
ENDBRANCH   1  15
TORSDOF 5
ENDMDL
MODEL 9
REMARK VINA RESULT:      -6.3      2.764      3.935
REMARK  Name = 
REMARK  7 active torsions:
REMARK  status: ('A' for Active; 'I' for Inactive)
REMARK    1  A    between atoms: C_2  and  N_3
REMARK    2  A    between atoms: C_2  and  C_14
REMARK    3  A    between atoms: C_2  and  C_17
REMARK    4  A    between atoms: N_3  and  C_4
REMARK    5  A    between atoms: C_5  and  C_11
REMARK    6  A    between atoms: C_8  and  C_9
REMARK    7  A    between atoms: C_11  and  C_12
REMARK                            x       y       z     vdW  Elec       q    Type
REMARK                         _______ _______ _______ _____ _____    ______ ____
ROOT
ATOM      1  C   UNL     1       8.391  -1.166  24.578  0.00  0.00    +0.190 C 
ENDROOT
BRANCH   1   2
ATOM      2  C   UNL     1       8.091  -0.228  23.419  0.00  0.00    +0.018 A 
ATOM      3  C   UNL     1       8.944  -0.182  22.295  0.00  0.00    +0.048 A 
ATOM      4 CL   UNL     1      10.182  -1.359  22.009  0.00  0.00    -0.083 Cl
ATOM      5  C   UNL     1       8.840   0.840  21.340  0.00  0.00    +0.020 A 
ATOM      6  C   UNL     1       7.869   1.825  21.466  0.00  0.00    +0.003 A 
ATOM      7  C   UNL     1       6.970   1.762  22.524  0.00  0.00    +0.020 A 
ATOM      8  C   UNL     1       7.074   0.748  23.486  0.00  0.00    +0.048 A 
ATOM      9 CL   UNL     1       5.898   0.782  24.758  0.00  0.00    -0.083 Cl
ENDBRANCH   1   2
BRANCH   1  10
ATOM     10  C   UNL     1       9.267  -0.461  25.655  0.00  0.00    +0.235 C 
ATOM     11  O   UNL     1      10.330   0.118  25.448  0.00  0.00    -0.274 OA
ATOM     12  N   UNL     1       8.801  -0.594  26.941  0.00  0.00    -0.328 N 
ATOM     13  H   UNL     1       9.293  -0.097  27.672  0.00  0.00    +0.145 HD
ATOM     14  H   UNL     1       7.837  -0.865  27.093  0.00  0.00    +0.145 HD
ENDBRANCH   1  10
BRANCH   1  15
ATOM     15  N   UNL     1       7.180  -1.730  25.225  0.00  0.00    -0.329 N 
ATOM     16  H   UNL     1       6.486  -1.005  25.406  0.00  0.00    +0.147 HD
BRANCH  15  17
ATOM     17  C   UNL     1       6.635  -2.986  24.995  0.00  0.00    +0.039 A 
ATOM     18  C   UNL     1       5.414  -3.155  24.313  0.00  0.00    +0.027 A 
ATOM     19  C   UNL     1       4.830  -4.416  24.095  0.00  0.00    -0.049 A 
ATOM     20  C   UNL     1       3.469  -4.503  23.467  0.00  0.00    +0.044 C 
ATOM     21  C   UNL     1       5.494  -5.557  24.528  0.00  0.00    +0.004 A 
ATOM     22  C   UNL     1       6.735  -5.436  25.144  0.00  0.00    +0.013 A 
ATOM     23  C   UNL     1       7.319  -4.171  25.362  0.00  0.00    +0.038 A 
BRANCH  23  24
ATOM     24  C   UNL     1       8.667  -4.218  26.013  0.00  0.00    +0.162 C 
ATOM     25  O   UNL     1       8.829  -3.642  27.090  0.00  0.00    -0.292 OA
ATOM     26  C   UNL     1       9.794  -5.011  25.405  0.00  0.00    +0.091 C 
ENDBRANCH  23  24
ENDBRANCH  15  17
ENDBRANCH   1  15
TORSDOF 5
ENDMDL
