MODEL 1
REMARK VINA RESULT:      -5.6      0.000      0.000
REMARK  Name = 
REMARK  2 active torsions:
REMARK  status: ('A' for Active; 'I' for Inactive)
REMARK    1  A    between atoms: C_1  and  C_2
REMARK    2  A    between atoms: C_11  and  O_12
REMARK                            x       y       z     vdW  Elec       q    Type
REMARK                         _______ _______ _______ _____ _____    ______ ____
ROOT
ATOM      1  C   UNL     1       8.320  -2.243  26.495  0.00  0.00    +0.046 C 
ATOM      2  C   UNL     1       8.179  -2.562  25.025  0.00  0.00    -0.019 A 
ATOM      3  C   UNL     1       7.298  -3.697  24.668  0.00  0.00    +0.023 A 
ATOM      4  C   UNL     1       7.190  -4.084  23.329  0.00  0.00    +0.157 A 
ATOM      5  C   UNL     1       6.383  -5.158  22.928  0.00  0.00    +0.102 A 
ATOM      6  C   UNL     1       5.653  -5.853  23.890  0.00  0.00    +0.134 A 
ATOM      7  C   UNL     1       5.732  -5.487  25.227  0.00  0.00    +0.047 A 
ATOM      8 BR   UNL     1       6.268  -5.677  21.105  0.00  0.00    -0.043 Br
ATOM      9  O   UNL     1       7.886  -3.379  22.331  0.00  0.00    -0.420 OA
ATOM     10  C   UNL     1       8.652  -2.258  22.601  0.00  0.00    +0.352 A 
ATOM     11  O   UNL     1       9.178  -1.633  21.687  0.00  0.00    -0.244 OA
ATOM     12  C   UNL     1       6.553  -4.420  25.612  0.00  0.00    +0.015 A 
ATOM     13  C   UNL     1       8.803  -1.882  24.039  0.00  0.00    +0.106 A 
ATOM     14 BR   UNL     1       9.927  -0.401  24.349  0.00  0.00    -0.043 Br
ENDROOT
BRANCH   6  15
ATOM     15  O   UNL     1       4.835  -6.903  23.581  0.00  0.00    -0.506 OA
ATOM     16  H   UNL     1       4.736  -6.927  22.612  0.00  0.00    +0.292 HD
ENDBRANCH   6  15
TORSDOF 1
ENDMDL
MODEL 2
REMARK VINA RESULT:      -5.5      3.444      6.147
REMARK  Name = 
REMARK  2 active torsions:
REMARK  status: ('A' for Active; 'I' for Inactive)
REMARK    1  A    between atoms: C_1  and  C_2
REMARK    2  A    between atoms: C_11  and  O_12
REMARK                            x       y       z     vdW  Elec       q    Type
REMARK                         _______ _______ _______ _____ _____    ______ ____
ROOT
ATOM      1  C   UNL     1       7.455  -3.548  22.791  0.00  0.00    +0.046 C 
ATOM      2  C   UNL     1       7.095  -2.179  23.321  0.00  0.00    -0.019 A 
ATOM      3  C   UNL     1       7.920  -1.042  22.854  0.00  0.00    +0.023 A 
ATOM      4  C   UNL     1       7.680   0.234  23.369  0.00  0.00    +0.157 A 
ATOM      5  C   UNL     1       8.435   1.349  22.977  0.00  0.00    +0.102 A 
ATOM      6  C   UNL     1       9.445   1.185  22.032  0.00  0.00    +0.134 A 
ATOM      7  C   UNL     1       9.702  -0.069  21.494  0.00  0.00    +0.047 A 
ATOM      8 BR   UNL     1       8.102   3.070  23.708  0.00  0.00    -0.043 Br
ATOM      9  O   UNL     1       6.644   0.438  24.298  0.00  0.00    -0.420 OA
ATOM     10  C   UNL     1       5.788  -0.573  24.700  0.00  0.00    +0.352 A 
ATOM     11  O   UNL     1       4.852  -0.328  25.452  0.00  0.00    -0.244 OA
ATOM     12  C   UNL     1       8.948  -1.175  21.906  0.00  0.00    +0.015 A 
ATOM     13  C   UNL     1       6.083  -1.942  24.183  0.00  0.00    +0.106 A 
ATOM     14 BR   UNL     1       4.937  -3.291  24.835  0.00  0.00    -0.043 Br
ENDROOT
BRANCH   6  15
ATOM     15  O   UNL     1      10.218   2.220  21.589  0.00  0.00    -0.506 OA
ATOM     16  H   UNL     1       9.736   2.660  20.865  0.00  0.00    +0.292 HD
ENDBRANCH   6  15
TORSDOF 1
ENDMDL
MODEL 3
REMARK VINA RESULT:      -5.4      2.957      3.308
REMARK  Name = 
REMARK  2 active torsions:
REMARK  status: ('A' for Active; 'I' for Inactive)
REMARK    1  A    between atoms: C_1  and  C_2
REMARK    2  A    between atoms: C_11  and  O_12
REMARK                            x       y       z     vdW  Elec       q    Type
REMARK                         _______ _______ _______ _____ _____    ______ ____
ROOT
ATOM      1  C   UNL     1       7.010   0.806  24.100  0.00  0.00    +0.046 C 
ATOM      2  C   UNL     1       7.940  -0.377  23.957  0.00  0.00    -0.019 A 
ATOM      3  C   UNL     1       7.734  -1.507  24.890  0.00  0.00    +0.023 A 
ATOM      4  C   UNL     1       8.612  -2.594  24.852  0.00  0.00    +0.157 A 
ATOM      5  C   UNL     1       8.477  -3.689  25.718  0.00  0.00    +0.102 A 
ATOM      6  C   UNL     1       7.428  -3.704  26.633  0.00  0.00    +0.134 A 
ATOM      7  C   UNL     1       6.533  -2.644  26.689  0.00  0.00    +0.047 A 
ATOM      8 BR   UNL     1       9.696  -5.144  25.660  0.00  0.00    -0.043 Br
ATOM      9  O   UNL     1       9.659  -2.624  23.915  0.00  0.00    -0.420 OA
ATOM     10  C   UNL     1       9.842  -1.635  22.963  0.00  0.00    +0.352 A 
ATOM     11  O   UNL     1      10.724  -1.745  22.118  0.00  0.00    -0.244 OA
ATOM     12  C   UNL     1       6.689  -1.551  25.827  0.00  0.00    +0.015 A 
ATOM     13  C   UNL     1       8.931  -0.455  23.043  0.00  0.00    +0.106 A 
ATOM     14 BR   UNL     1       9.286   0.897  21.777  0.00  0.00    -0.043 Br
ENDROOT
BRANCH   6  15
ATOM     15  O   UNL     1       7.221  -4.737  27.503  0.00  0.00    -0.506 OA
ATOM     16  H   UNL     1       7.921  -4.699  28.180  0.00  0.00    +0.292 HD
ENDBRANCH   6  15
TORSDOF 1
ENDMDL
MODEL 4
REMARK VINA RESULT:      -5.3      2.735      3.747
REMARK  Name = 
REMARK  2 active torsions:
REMARK  status: ('A' for Active; 'I' for Inactive)
REMARK    1  A    between atoms: C_1  and  C_2
REMARK    2  A    between atoms: C_11  and  O_12
REMARK                            x       y       z     vdW  Elec       q    Type
REMARK                         _______ _______ _______ _____ _____    ______ ____
ROOT
ATOM      1  C   UNL     1      10.780   0.923  24.399  0.00  0.00    +0.046 C 
ATOM      2  C   UNL     1       9.408   0.592  23.858  0.00  0.00    -0.019 A 
ATOM      3  C   UNL     1       9.040  -0.840  23.797  0.00  0.00    +0.023 A 
ATOM      4  C   UNL     1       7.814  -1.207  23.235  0.00  0.00    +0.157 A 
ATOM      5  C   UNL     1       7.413  -2.548  23.137  0.00  0.00    +0.102 A 
ATOM      6  C   UNL     1       8.252  -3.544  23.628  0.00  0.00    +0.134 A 
ATOM      7  C   UNL     1       9.473  -3.211  24.200  0.00  0.00    +0.047 A 
ATOM      8 BR   UNL     1       5.750  -3.023  22.350  0.00  0.00    -0.043 Br
ATOM      9  O   UNL     1       6.929  -0.222  22.763  0.00  0.00    -0.420 OA
ATOM     10  C   UNL     1       7.187   1.134  22.877  0.00  0.00    +0.352 A 
ATOM     11  O   UNL     1       6.349   1.954  22.520  0.00  0.00    -0.244 OA
ATOM     12  C   UNL     1       9.865  -1.869  24.279  0.00  0.00    +0.015 A 
ATOM     13  C   UNL     1       8.519   1.516  23.432  0.00  0.00    +0.106 A 
ATOM     14 BR   UNL     1       8.846   3.372  23.480  0.00  0.00    -0.043 Br
ENDROOT
BRANCH   6  15
ATOM     15  O   UNL     1       7.932  -4.871  23.581  0.00  0.00    -0.506 OA
ATOM     16  H   UNL     1       8.622  -5.325  23.063  0.00  0.00    +0.292 HD
ENDBRANCH   6  15
TORSDOF 1
ENDMDL
MODEL 5
REMARK VINA RESULT:      -5.3      2.868      3.815
REMARK  Name = 
REMARK  2 active torsions:
REMARK  status: ('A' for Active; 'I' for Inactive)
REMARK    1  A    between atoms: C_1  and  C_2
REMARK    2  A    between atoms: C_11  and  O_12
REMARK                            x       y       z     vdW  Elec       q    Type
REMARK                         _______ _______ _______ _____ _____    ______ ____
ROOT
ATOM      1  C   UNL     1       7.183  -4.106  22.353  0.00  0.00    +0.046 C 
ATOM      2  C   UNL     1       7.228  -4.440  23.826  0.00  0.00    -0.019 A 
ATOM      3  C   UNL     1       6.173  -5.343  24.340  0.00  0.00    +0.023 A 
ATOM      4  C   UNL     1       6.122  -5.625  25.708  0.00  0.00    +0.157 A 
ATOM      5  C   UNL     1       5.140  -6.461  26.258  0.00  0.00    +0.102 A 
ATOM      6  C   UNL     1       4.196  -7.043  25.416  0.00  0.00    +0.134 A 
ATOM      7  C   UNL     1       4.226  -6.790  24.051  0.00  0.00    +0.047 A 
ATOM      8 BR   UNL     1       5.079  -6.813  28.124  0.00  0.00    -0.043 Br
ATOM      9  O   UNL     1       7.083  -5.081  26.578  0.00  0.00    -0.420 OA
ATOM     10  C   UNL     1       8.141  -4.304  26.136  0.00  0.00    +0.352 A 
ATOM     11  O   UNL     1       8.996  -3.917  26.925  0.00  0.00    -0.244 OA
ATOM     12  C   UNL     1       5.205  -5.941  23.519  0.00  0.00    +0.015 A 
ATOM     13  C   UNL     1       8.159  -3.967  24.682  0.00  0.00    +0.106 A 
ATOM     14 BR   UNL     1       9.573  -2.835  24.157  0.00  0.00    -0.043 Br
ENDROOT
BRANCH   6  15
ATOM     15  O   UNL     1       3.214  -7.877  25.870  0.00  0.00    -0.506 OA
ATOM     16  H   UNL     1       2.359  -7.427  25.741  0.00  0.00    +0.292 HD
ENDBRANCH   6  15
TORSDOF 1
ENDMDL
MODEL 6
REMARK VINA RESULT:      -5.3      4.090      5.981
REMARK  Name = 
REMARK  2 active torsions:
REMARK  status: ('A' for Active; 'I' for Inactive)
REMARK    1  A    between atoms: C_1  and  C_2
REMARK    2  A    between atoms: C_11  and  O_12
REMARK                            x       y       z     vdW  Elec       q    Type
REMARK                         _______ _______ _______ _____ _____    ______ ____
ROOT
ATOM      1  C   UNL     1       6.562   3.490  22.189  0.00  0.00    +0.046 C 
ATOM      2  C   UNL     1       6.536   2.203  22.980  0.00  0.00    -0.019 A 
ATOM      3  C   UNL     1       7.566   1.192  22.649  0.00  0.00    +0.023 A 
ATOM      4  C   UNL     1       7.542  -0.046  23.296  0.00  0.00    +0.157 A 
ATOM      5  C   UNL     1       8.482  -1.049  23.017  0.00  0.00    +0.102 A 
ATOM      6  C   UNL     1       9.480  -0.800  22.078  0.00  0.00    +0.134 A 
ATOM      7  C   UNL     1       9.536   0.424  21.425  0.00  0.00    +0.047 A 
ATOM      8 BR   UNL     1       8.416  -2.731  23.896  0.00  0.00    -0.043 Br
ATOM      9  O   UNL     1       6.569  -0.314  24.274  0.00  0.00    -0.420 OA
ATOM     10  C   UNL     1       5.639   0.627  24.684  0.00  0.00    +0.352 A 
ATOM     11  O   UNL     1       4.860   0.371  25.595  0.00  0.00    -0.244 OA
ATOM     12  C   UNL     1       8.582   1.410  21.705  0.00  0.00    +0.015 A 
ATOM     13  C   UNL     1       5.639   1.929  23.952  0.00  0.00    +0.106 A 
ATOM     14 BR   UNL     1       4.295   3.134  24.495  0.00  0.00    -0.043 Br
ENDROOT
BRANCH   6  15
ATOM     15  O   UNL     1      10.439  -1.718  21.757  0.00  0.00    -0.506 OA
ATOM     16  H   UNL     1      10.844  -1.442  20.915  0.00  0.00    +0.292 HD
ENDBRANCH   6  15
TORSDOF 1
ENDMDL
MODEL 7
REMARK VINA RESULT:      -5.2      3.699      5.310
REMARK  Name = 
REMARK  2 active torsions:
REMARK  status: ('A' for Active; 'I' for Inactive)
REMARK    1  A    between atoms: C_1  and  C_2
REMARK    2  A    between atoms: C_11  and  O_12
REMARK                            x       y       z     vdW  Elec       q    Type
REMARK                         _______ _______ _______ _____ _____    ______ ____
ROOT
ATOM      1  C   UNL     1      10.212   2.129  22.230  0.00  0.00    +0.046 C 
ATOM      2  C   UNL     1       9.474   1.598  23.437  0.00  0.00    -0.019 A 
ATOM      3  C   UNL     1       9.517   0.135  23.658  0.00  0.00    +0.023 A 
ATOM      4  C   UNL     1       8.790  -0.419  24.715  0.00  0.00    +0.157 A 
ATOM      5  C   UNL     1       8.780  -1.798  24.969  0.00  0.00    +0.102 A 
ATOM      6  C   UNL     1       9.530  -2.642  24.154  0.00  0.00    +0.134 A 
ATOM      7  C   UNL     1      10.270  -2.122  23.101  0.00  0.00    +0.047 A 
ATOM      8 BR   UNL     1       7.768  -2.528  26.401  0.00  0.00    -0.043 Br
ATOM      9  O   UNL     1       8.053   0.412  25.577  0.00  0.00    -0.420 OA
ATOM     10  C   UNL     1       8.050   1.793  25.467  0.00  0.00    +0.352 A 
ATOM     11  O   UNL     1       7.452   2.477  26.290  0.00  0.00    -0.244 OA
ATOM     12  C   UNL     1      10.259  -0.744  22.853  0.00  0.00    +0.015 A 
ATOM     13  C   UNL     1       8.788   2.371  24.306  0.00  0.00    +0.106 A 
ATOM     14 BR   UNL     1       8.674   4.248  24.160  0.00  0.00    -0.043 Br
ENDROOT
BRANCH   6  15
ATOM     15  O   UNL     1       9.583  -3.995  24.341  0.00  0.00    -0.506 OA
ATOM     16  H   UNL     1       9.271  -4.419  23.520  0.00  0.00    +0.292 HD
ENDBRANCH   6  15
TORSDOF 1
ENDMDL
MODEL 8
REMARK VINA RESULT:      -5.2      2.549      5.355
REMARK  Name = 
REMARK  2 active torsions:
REMARK  status: ('A' for Active; 'I' for Inactive)
REMARK    1  A    between atoms: C_1  and  C_2
REMARK    2  A    between atoms: C_11  and  O_12
REMARK                            x       y       z     vdW  Elec       q    Type
REMARK                         _______ _______ _______ _____ _____    ______ ____
ROOT
ATOM      1  C   UNL     1       9.443  -3.999  24.778  0.00  0.00    +0.046 C 
ATOM      2  C   UNL     1       8.519  -3.106  23.983  0.00  0.00    -0.019 A 
ATOM      3  C   UNL     1       8.754  -1.647  24.078  0.00  0.00    +0.023 A 
ATOM      4  C   UNL     1       7.884  -0.771  23.423  0.00  0.00    +0.157 A 
ATOM      5  C   UNL     1       8.045   0.621  23.485  0.00  0.00    +0.102 A 
ATOM      6  C   UNL     1       9.113   1.148  24.206  0.00  0.00    +0.134 A 
ATOM      7  C   UNL     1      10.000   0.303  24.859  0.00  0.00    +0.047 A 
ATOM      8 BR   UNL     1       6.836   1.791  22.603  0.00  0.00    -0.043 Br
ATOM      9  O   UNL     1       6.817  -1.275  22.658  0.00  0.00    -0.420 OA
ATOM     10  C   UNL     1       6.606  -2.630  22.465  0.00  0.00    +0.352 A 
ATOM     11  O   UNL     1       5.708  -3.017  21.727  0.00  0.00    -0.244 OA
ATOM     12  C   UNL     1       9.818  -1.084  24.799  0.00  0.00    +0.015 A 
ATOM     13  C   UNL     1       7.510  -3.558  23.208  0.00  0.00    +0.106 A 
ATOM     14 BR   UNL     1       7.118  -5.388  22.975  0.00  0.00    -0.043 Br
ENDROOT
BRANCH   6  15
ATOM     15  O   UNL     1       9.346   2.490  24.306  0.00  0.00    -0.506 OA
ATOM     16  H   UNL     1       8.746   2.943  23.685  0.00  0.00    +0.292 HD
ENDBRANCH   6  15
TORSDOF 1
ENDMDL
MODEL 9
REMARK VINA RESULT:      -5.2      1.718      4.751
REMARK  Name = 
REMARK  2 active torsions:
REMARK  status: ('A' for Active; 'I' for Inactive)
REMARK    1  A    between atoms: C_1  and  C_2
REMARK    2  A    between atoms: C_11  and  O_12
REMARK                            x       y       z     vdW  Elec       q    Type
REMARK                         _______ _______ _______ _____ _____    ______ ____
ROOT
ATOM      1  C   UNL     1       5.788  -4.219  26.403  0.00  0.00    +0.046 C 
ATOM      2  C   UNL     1       6.595  -3.915  25.162  0.00  0.00    -0.019 A 
ATOM      3  C   UNL     1       7.559  -2.795  25.249  0.00  0.00    +0.023 A 
ATOM      4  C   UNL     1       8.277  -2.421  24.110  0.00  0.00    +0.157 A 
ATOM      5  C   UNL     1       9.195  -1.361  24.125  0.00  0.00    +0.102 A 
ATOM      6  C   UNL     1       9.412  -0.668  25.313  0.00  0.00    +0.134 A 
ATOM      7  C   UNL     1       8.721  -1.022  26.464  0.00  0.00    +0.047 A 
ATOM      8 BR   UNL     1      10.144  -0.859  22.558  0.00  0.00    -0.043 Br
ATOM      9  O   UNL     1       8.107  -3.124  22.904  0.00  0.00    -0.420 OA
ATOM     10  C   UNL     1       7.284  -4.233  22.793  0.00  0.00    +0.352 A 
ATOM     11  O   UNL     1       7.229  -4.858  21.740  0.00  0.00    -0.244 OA
ATOM     12  C   UNL     1       7.797  -2.074  26.430  0.00  0.00    +0.015 A 
ATOM     13  C   UNL     1       6.484  -4.594  24.000  0.00  0.00    +0.106 A 
ATOM     14 BR   UNL     1       5.319  -6.057  23.760  0.00  0.00    -0.043 Br
ENDROOT
BRANCH   6  15
ATOM     15  O   UNL     1      10.296   0.368  25.414  0.00  0.00    -0.506 OA
ATOM     16  H   UNL     1      11.195  -0.003  25.355  0.00  0.00    +0.292 HD
ENDBRANCH   6  15
TORSDOF 1
ENDMDL
