MODEL 1
REMARK VINA RESULT:      -6.6      0.000      0.000
REMARK  Name = 
REMARK  6 active torsions:
REMARK  status: ('A' for Active; 'I' for Inactive)
REMARK    1  A    between atoms: C_2  and  C_3
REMARK    2  A    between atoms: C_2  and  C_4
REMARK    3  A    between atoms: C_2  and  C_20
REMARK    4  A    between atoms: C_4  and  O_5
REMARK    5  A    between atoms: O_5  and  N_6
REMARK    6  A    between atoms: C_20  and  O_21
REMARK                            x       y       z     vdW  Elec       q    Type
REMARK                         _______ _______ _______ _____ _____    ______ ____
ROOT
ATOM      1  N   UNL     1       8.575  -3.524  25.583  0.00  0.00    -0.084 NA
ATOM      2  C   UNL     1       7.640  -4.354  25.235  0.00  0.00    +0.118 C 
ATOM      3  C   UNL     1       7.106  -4.733  23.901  0.00  0.00    +0.012 A 
ATOM      4  C   UNL     1       7.465  -4.333  22.624  0.00  0.00    +0.011 A 
ATOM      5  C   UNL     1       6.740  -4.850  21.549  0.00  0.00    +0.001 A 
ATOM      6  C   UNL     1       5.679  -5.746  21.761  0.00  0.00    +0.001 A 
ATOM      7  C   UNL     1       5.322  -6.141  23.054  0.00  0.00    +0.009 A 
ATOM      8  C   UNL     1       6.041  -5.629  24.123  0.00  0.00    -0.008 A 
ATOM      9  C   UNL     1       5.883  -5.851  25.543  0.00  0.00    -0.008 A 
ATOM     10  C   UNL     1       4.989  -6.641  26.248  0.00  0.00    +0.009 A 
ATOM     11  C   UNL     1       5.075  -6.658  27.646  0.00  0.00    +0.001 A 
ATOM     12  C   UNL     1       6.042  -5.892  28.324  0.00  0.00    +0.001 A 
ATOM     13  C   UNL     1       6.939  -5.094  27.615  0.00  0.00    +0.011 A 
ATOM     14  C   UNL     1       6.838  -5.095  26.235  0.00  0.00    +0.012 A 
ENDROOT
BRANCH   1  15
ATOM     15  O   UNL     1       9.237  -2.948  24.498  0.00  0.00    -0.392 OA
BRANCH  15  16
ATOM     16  C   UNL     1       9.097  -1.520  24.560  0.00  0.00    +0.277 C 
BRANCH  16  17
ATOM     17  C   UNL     1      10.269  -0.883  23.818  0.00  0.00    +0.134 C 
ATOM     18  C   UNL     1      10.614   0.461  24.468  0.00  0.00    +0.023 C 
BRANCH  17  19
ATOM     19  C   UNL     1      10.002  -0.668  22.335  0.00  0.00    +0.311 C 
ATOM     20  O   UNL     1       9.944   0.439  21.814  0.00  0.00    -0.251 OA
BRANCH  19  21
ATOM     21  O   UNL     1       9.928  -1.784  21.583  0.00  0.00    -0.480 OA
ATOM     22  H   UNL     1      10.764  -2.001  21.106  0.00  0.00    +0.295 HD
ENDBRANCH  19  21
ENDBRANCH  17  19
ENDBRANCH  16  17
ENDBRANCH  15  16
ENDBRANCH   1  15
TORSDOF 5
ENDMDL
MODEL 2
REMARK VINA RESULT:      -6.3      2.452      3.972
REMARK  Name = 
REMARK  6 active torsions:
REMARK  status: ('A' for Active; 'I' for Inactive)
REMARK    1  A    between atoms: C_2  and  C_3
REMARK    2  A    between atoms: C_2  and  C_4
REMARK    3  A    between atoms: C_2  and  C_20
REMARK    4  A    between atoms: C_4  and  O_5
REMARK    5  A    between atoms: O_5  and  N_6
REMARK    6  A    between atoms: C_20  and  O_21
REMARK                            x       y       z     vdW  Elec       q    Type
REMARK                         _______ _______ _______ _____ _____    ______ ____
ROOT
ATOM      1  N   UNL     1       8.454  -2.114  22.071  0.00  0.00    -0.084 NA
ATOM      2  C   UNL     1       7.437  -2.457  22.800  0.00  0.00    +0.118 C 
ATOM      3  C   UNL     1       6.682  -1.719  23.848  0.00  0.00    +0.012 A 
ATOM      4  C   UNL     1       6.825  -0.434  24.344  0.00  0.00    +0.011 A 
ATOM      5  C   UNL     1       5.970  -0.032  25.372  0.00  0.00    +0.001 A 
ATOM      6  C   UNL     1       5.000  -0.908  25.885  0.00  0.00    +0.001 A 
ATOM      7  C   UNL     1       4.867  -2.206  25.381  0.00  0.00    +0.009 A 
ATOM      8  C   UNL     1       5.714  -2.607  24.358  0.00  0.00    -0.008 A 
ATOM      9  C   UNL     1       5.806  -3.874  23.669  0.00  0.00    -0.008 A 
ATOM     10  C   UNL     1       5.078  -5.044  23.811  0.00  0.00    +0.009 A 
ATOM     11  C   UNL     1       5.398  -6.133  22.989  0.00  0.00    +0.001 A 
ATOM     12  C   UNL     1       6.436  -6.046  22.042  0.00  0.00    +0.001 A 
ATOM     13  C   UNL     1       7.172  -4.870  21.902  0.00  0.00    +0.011 A 
ATOM     14  C   UNL     1       6.836  -3.808  22.722  0.00  0.00    +0.012 A 
ENDROOT
BRANCH   1  15
ATOM     15  O   UNL     1       8.855  -0.792  22.266  0.00  0.00    -0.392 OA
BRANCH  15  16
ATOM     16  C   UNL     1      10.244  -0.765  22.632  0.00  0.00    +0.277 C 
BRANCH  16  17
ATOM     17  C   UNL     1      10.540   0.562  23.327  0.00  0.00    +0.134 C 
ATOM     18  C   UNL     1      10.277   0.419  24.829  0.00  0.00    +0.023 C 
BRANCH  17  19
ATOM     19  C   UNL     1       9.722   1.726  22.783  0.00  0.00    +0.311 C 
ATOM     20  O   UNL     1       9.108   2.509  23.497  0.00  0.00    -0.251 OA
BRANCH  19  21
ATOM     21  O   UNL     1       9.787   1.917  21.451  0.00  0.00    -0.480 OA
ATOM     22  H   UNL     1       8.907   1.927  21.005  0.00  0.00    +0.295 HD
ENDBRANCH  19  21
ENDBRANCH  17  19
ENDBRANCH  16  17
ENDBRANCH  15  16
ENDBRANCH   1  15
TORSDOF 5
ENDMDL
MODEL 3
REMARK VINA RESULT:      -6.3      2.410      4.181
REMARK  Name = 
REMARK  6 active torsions:
REMARK  status: ('A' for Active; 'I' for Inactive)
REMARK    1  A    between atoms: C_2  and  C_3
REMARK    2  A    between atoms: C_2  and  C_4
REMARK    3  A    between atoms: C_2  and  C_20
REMARK    4  A    between atoms: C_4  and  O_5
REMARK    5  A    between atoms: O_5  and  N_6
REMARK    6  A    between atoms: C_20  and  O_21
REMARK                            x       y       z     vdW  Elec       q    Type
REMARK                         _______ _______ _______ _____ _____    ______ ____
ROOT
ATOM      1  N   UNL     1       6.643  -1.285  23.072  0.00  0.00    -0.084 NA
ATOM      2  C   UNL     1       6.991  -2.484  23.427  0.00  0.00    +0.118 C 
ATOM      3  C   UNL     1       7.695  -2.988  24.635  0.00  0.00    +0.012 A 
ATOM      4  C   UNL     1       8.173  -2.331  25.756  0.00  0.00    +0.011 A 
ATOM      5  C   UNL     1       8.834  -3.088  26.725  0.00  0.00    +0.001 A 
ATOM      6  C   UNL     1       9.011  -4.472  26.560  0.00  0.00    +0.001 A 
ATOM      7  C   UNL     1       8.529  -5.125  25.422  0.00  0.00    +0.009 A 
ATOM      8  C   UNL     1       7.870  -4.375  24.459  0.00  0.00    -0.008 A 
ATOM      9  C   UNL     1       7.292  -4.782  23.198  0.00  0.00    -0.008 A 
ATOM     10  C   UNL     1       7.211  -6.024  22.591  0.00  0.00    +0.009 A 
ATOM     11  C   UNL     1       6.580  -6.116  21.343  0.00  0.00    +0.001 A 
ATOM     12  C   UNL     1       6.043  -4.976  20.716  0.00  0.00    +0.001 A 
ATOM     13  C   UNL     1       6.128  -3.724  21.325  0.00  0.00    +0.011 A 
ATOM     14  C   UNL     1       6.752  -3.659  22.558  0.00  0.00    +0.012 A 
ENDROOT
BRANCH   1  15
ATOM     15  O   UNL     1       6.924  -0.318  24.037  0.00  0.00    -0.392 OA
BRANCH  15  16
ATOM     16  C   UNL     1       7.430   0.863  23.394  0.00  0.00    +0.277 C 
BRANCH  16  17
ATOM     17  C   UNL     1       8.953   0.773  23.336  0.00  0.00    +0.134 C 
ATOM     18  C   UNL     1       9.562   1.895  24.181  0.00  0.00    +0.023 C 
BRANCH  17  19
ATOM     19  C   UNL     1       9.510   0.852  21.921  0.00  0.00    +0.311 C 
ATOM     20  O   UNL     1       9.412  -0.056  21.106  0.00  0.00    -0.251 OA
BRANCH  19  21
ATOM     21  O   UNL     1      10.045   2.038  21.566  0.00  0.00    -0.480 OA
ATOM     22  H   UNL     1      10.989   1.982  21.286  0.00  0.00    +0.295 HD
ENDBRANCH  19  21
ENDBRANCH  17  19
ENDBRANCH  16  17
ENDBRANCH  15  16
ENDBRANCH   1  15
TORSDOF 5
ENDMDL
MODEL 4
REMARK VINA RESULT:      -6.2      2.389      6.738
REMARK  Name = 
REMARK  6 active torsions:
REMARK  status: ('A' for Active; 'I' for Inactive)
REMARK    1  A    between atoms: C_2  and  C_3
REMARK    2  A    between atoms: C_2  and  C_4
REMARK    3  A    between atoms: C_2  and  C_20
REMARK    4  A    between atoms: C_4  and  O_5
REMARK    5  A    between atoms: O_5  and  N_6
REMARK    6  A    between atoms: C_20  and  O_21
REMARK                            x       y       z     vdW  Elec       q    Type
REMARK                         _______ _______ _______ _____ _____    ______ ____
ROOT
ATOM      1  N   UNL     1       7.759  -2.051  22.619  0.00  0.00    -0.084 NA
ATOM      2  C   UNL     1       7.936  -1.091  23.475  0.00  0.00    +0.118 C 
ATOM      3  C   UNL     1       7.418  -0.893  24.854  0.00  0.00    +0.012 A 
ATOM      4  C   UNL     1       6.609  -1.686  25.650  0.00  0.00    +0.011 A 
ATOM      5  C   UNL     1       6.260  -1.204  26.913  0.00  0.00    +0.001 A 
ATOM      6  C   UNL     1       6.715   0.049  27.356  0.00  0.00    +0.001 A 
ATOM      7  C   UNL     1       7.528   0.845  26.543  0.00  0.00    +0.009 A 
ATOM      8  C   UNL     1       7.877   0.366  25.289  0.00  0.00    -0.008 A 
ATOM      9  C   UNL     1       8.681   0.974  24.252  0.00  0.00    -0.008 A 
ATOM     10  C   UNL     1       9.344   2.189  24.207  0.00  0.00    +0.009 A 
ATOM     11  C   UNL     1      10.058   2.517  23.046  0.00  0.00    +0.001 A 
ATOM     12  C   UNL     1      10.100   1.638  21.948  0.00  0.00    +0.001 A 
ATOM     13  C   UNL     1       9.429   0.416  21.991  0.00  0.00    +0.011 A 
ATOM     14  C   UNL     1       8.734   0.112  23.148  0.00  0.00    +0.012 A 
ENDROOT
BRANCH   1  15
ATOM     15  O   UNL     1       7.004  -3.111  23.123  0.00  0.00    -0.392 OA
BRANCH  15  16
ATOM     16  C   UNL     1       7.649  -4.352  22.796  0.00  0.00    +0.277 C 
BRANCH  16  17
ATOM     17  C   UNL     1       7.924  -5.115  24.089  0.00  0.00    +0.134 C 
ATOM     18  C   UNL     1       6.640  -5.190  24.920  0.00  0.00    +0.023 C 
BRANCH  17  19
ATOM     19  C   UNL     1       9.031  -4.497  24.933  0.00  0.00    +0.311 C 
ATOM     20  O   UNL     1       9.205  -4.763  26.116  0.00  0.00    -0.251 OA
BRANCH  19  21
ATOM     21  O   UNL     1       9.893  -3.697  24.276  0.00  0.00    -0.480 OA
ATOM     22  H   UNL     1      10.030  -3.947  23.331  0.00  0.00    +0.295 HD
ENDBRANCH  19  21
ENDBRANCH  17  19
ENDBRANCH  16  17
ENDBRANCH  15  16
ENDBRANCH   1  15
TORSDOF 5
ENDMDL
MODEL 5
REMARK VINA RESULT:      -6.0      2.499      6.004
REMARK  Name = 
REMARK  6 active torsions:
REMARK  status: ('A' for Active; 'I' for Inactive)
REMARK    1  A    between atoms: C_2  and  C_3
REMARK    2  A    between atoms: C_2  and  C_4
REMARK    3  A    between atoms: C_2  and  C_20
REMARK    4  A    between atoms: C_4  and  O_5
REMARK    5  A    between atoms: O_5  and  N_6
REMARK    6  A    between atoms: C_20  and  O_21
REMARK                            x       y       z     vdW  Elec       q    Type
REMARK                         _______ _______ _______ _____ _____    ______ ____
ROOT
ATOM      1  N   UNL     1       7.991  -3.331  26.356  0.00  0.00    -0.084 NA
ATOM      2  C   UNL     1       7.914  -3.306  25.060  0.00  0.00    +0.118 C 
ATOM      3  C   UNL     1       7.193  -4.182  24.099  0.00  0.00    +0.012 A 
ATOM      4  C   UNL     1       6.368  -5.276  24.300  0.00  0.00    +0.011 A 
ATOM      5  C   UNL     1       5.857  -5.925  23.174  0.00  0.00    +0.001 A 
ATOM      6  C   UNL     1       6.177  -5.481  21.881  0.00  0.00    +0.001 A 
ATOM      7  C   UNL     1       7.015  -4.378  21.688  0.00  0.00    +0.009 A 
ATOM      8  C   UNL     1       7.522  -3.731  22.805  0.00  0.00    -0.008 A 
ATOM      9  C   UNL     1       8.408  -2.593  22.899  0.00  0.00    -0.008 A 
ATOM     10  C   UNL     1       8.995  -1.812  21.917  0.00  0.00    +0.009 A 
ATOM     11  C   UNL     1       9.825  -0.754  22.314  0.00  0.00    +0.001 A 
ATOM     12  C   UNL     1      10.062  -0.490  23.676  0.00  0.00    +0.001 A 
ATOM     13  C   UNL     1       9.475  -1.279  24.665  0.00  0.00    +0.011 A 
ATOM     14  C   UNL     1       8.657  -2.315  24.250  0.00  0.00    +0.012 A 
ENDROOT
BRANCH   1  15
ATOM     15  O   UNL     1       7.195  -4.317  26.939  0.00  0.00    -0.392 OA
BRANCH  15  16
ATOM     16  C   UNL     1       6.039  -3.706  27.532  0.00  0.00    +0.277 C 
BRANCH  16  17
ATOM     17  C   UNL     1       5.103  -4.806  28.026  0.00  0.00    +0.134 C 
ATOM     18  C   UNL     1       4.663  -4.496  29.459  0.00  0.00    +0.023 C 
BRANCH  17  19
ATOM     19  C   UNL     1       5.726  -6.195  27.983  0.00  0.00    +0.311 C 
ATOM     20  O   UNL     1       5.325  -7.091  27.251  0.00  0.00    -0.251 OA
BRANCH  19  21
ATOM     21  O   UNL     1       6.831  -6.367  28.736  0.00  0.00    -0.480 OA
ATOM     22  H   UNL     1       6.730  -7.048  29.443  0.00  0.00    +0.295 HD
ENDBRANCH  19  21
ENDBRANCH  17  19
ENDBRANCH  16  17
ENDBRANCH  15  16
ENDBRANCH   1  15
TORSDOF 5
ENDMDL
MODEL 6
REMARK VINA RESULT:      -6.0      2.706      6.664
REMARK  Name = 
REMARK  6 active torsions:
REMARK  status: ('A' for Active; 'I' for Inactive)
REMARK    1  A    between atoms: C_2  and  C_3
REMARK    2  A    between atoms: C_2  and  C_4
REMARK    3  A    between atoms: C_2  and  C_20
REMARK    4  A    between atoms: C_4  and  O_5
REMARK    5  A    between atoms: O_5  and  N_6
REMARK    6  A    between atoms: C_20  and  O_21
REMARK                            x       y       z     vdW  Elec       q    Type
REMARK                         _______ _______ _______ _____ _____    ______ ____
ROOT
ATOM      1  N   UNL     1       7.985  -1.091  26.590  0.00  0.00    -0.084 NA
ATOM      2  C   UNL     1       8.259  -0.264  25.628  0.00  0.00    +0.118 C 
ATOM      3  C   UNL     1       8.932  -0.466  24.317  0.00  0.00    +0.012 A 
ATOM      4  C   UNL     1       9.448  -1.603  23.720  0.00  0.00    +0.011 A 
ATOM      5  C   UNL     1      10.063  -1.465  22.474  0.00  0.00    +0.001 A 
ATOM      6  C   UNL     1      10.154  -0.209  21.852  0.00  0.00    +0.001 A 
ATOM      7  C   UNL     1       9.634   0.934  22.466  0.00  0.00    +0.009 A 
ATOM      8  C   UNL     1       9.022   0.799  23.703  0.00  0.00    -0.008 A 
ATOM      9  C   UNL     1       8.419   1.797  24.557  0.00  0.00    -0.008 A 
ATOM     10  C   UNL     1       8.262   3.164  24.392  0.00  0.00    +0.009 A 
ATOM     11  C   UNL     1       7.627   3.890  25.408  0.00  0.00    +0.001 A 
ATOM     12  C   UNL     1       7.159   3.251  26.572  0.00  0.00    +0.001 A 
ATOM     13  C   UNL     1       7.321   1.876  26.741  0.00  0.00    +0.011 A 
ATOM     14  C   UNL     1       7.948   1.180  25.724  0.00  0.00    +0.012 A 
ENDROOT
BRANCH   1  15
ATOM     15  O   UNL     1       8.325  -2.412  26.299  0.00  0.00    -0.392 OA
BRANCH  15  16
ATOM     16  C   UNL     1       7.127  -3.181  26.107  0.00  0.00    +0.277 C 
BRANCH  16  17
ATOM     17  C   UNL     1       7.513  -4.569  25.604  0.00  0.00    +0.134 C 
ATOM     18  C   UNL     1       6.686  -5.626  26.342  0.00  0.00    +0.023 C 
BRANCH  17  19
ATOM     19  C   UNL     1       8.993  -4.884  25.771  0.00  0.00    +0.311 C 
ATOM     20  O   UNL     1       9.760  -5.033  24.828  0.00  0.00    -0.251 OA
BRANCH  19  21
ATOM     21  O   UNL     1       9.451  -4.896  27.038  0.00  0.00    -0.480 OA
ATOM     22  H   UNL     1       9.460  -5.792  27.452  0.00  0.00    +0.295 HD
ENDBRANCH  19  21
ENDBRANCH  17  19
ENDBRANCH  16  17
ENDBRANCH  15  16
ENDBRANCH   1  15
TORSDOF 5
ENDMDL
MODEL 7
REMARK VINA RESULT:      -6.0      3.841      8.280
REMARK  Name = 
REMARK  6 active torsions:
REMARK  status: ('A' for Active; 'I' for Inactive)
REMARK    1  A    between atoms: C_2  and  C_3
REMARK    2  A    between atoms: C_2  and  C_4
REMARK    3  A    between atoms: C_2  and  C_20
REMARK    4  A    between atoms: C_4  and  O_5
REMARK    5  A    between atoms: O_5  and  N_6
REMARK    6  A    between atoms: C_20  and  O_21
REMARK                            x       y       z     vdW  Elec       q    Type
REMARK                         _______ _______ _______ _____ _____    ______ ____
ROOT
ATOM      1  N   UNL     1      10.638   0.871  23.606  0.00  0.00    -0.084 NA
ATOM      2  C   UNL     1       9.906   1.872  23.989  0.00  0.00    +0.118 C 
ATOM      3  C   UNL     1       8.538   1.928  24.568  0.00  0.00    +0.012 A 
ATOM      4  C   UNL     1       7.642   0.924  24.895  0.00  0.00    +0.011 A 
ATOM      5  C   UNL     1       6.395   1.300  25.400  0.00  0.00    +0.001 A 
ATOM      6  C   UNL     1       6.065   2.655  25.566  0.00  0.00    +0.001 A 
ATOM      7  C   UNL     1       6.976   3.661  25.229  0.00  0.00    +0.009 A 
ATOM      8  C   UNL     1       8.215   3.290  24.729  0.00  0.00    -0.008 A 
ATOM      9  C   UNL     1       9.325   4.107  24.293  0.00  0.00    -0.008 A 
ATOM     10  C   UNL     1       9.487   5.482  24.259  0.00  0.00    +0.009 A 
ATOM     11  C   UNL     1      10.696   6.000  23.775  0.00  0.00    +0.001 A 
ATOM     12  C   UNL     1      11.724   5.147  23.331  0.00  0.00    +0.001 A 
ATOM     13  C   UNL     1      11.560   3.762  23.361  0.00  0.00    +0.011 A 
ATOM     14  C   UNL     1      10.360   3.274  23.845  0.00  0.00    +0.012 A 
ENDROOT
BRANCH   1  15
ATOM     15  O   UNL     1      10.052  -0.370  23.853  0.00  0.00    -0.392 OA
BRANCH  15  16
ATOM     16  C   UNL     1       9.926  -1.092  22.618  0.00  0.00    +0.277 C 
BRANCH  16  17
ATOM     17  C   UNL     1       9.042  -2.314  22.854  0.00  0.00    +0.134 C 
ATOM     18  C   UNL     1       7.570  -1.910  22.728  0.00  0.00    +0.023 C 
BRANCH  17  19
ATOM     19  C   UNL     1       9.267  -2.972  24.208  0.00  0.00    +0.311 C 
ATOM     20  O   UNL     1      10.041  -3.904  24.384  0.00  0.00    -0.251 OA
BRANCH  19  21
ATOM     21  O   UNL     1       8.630  -2.402  25.251  0.00  0.00    -0.480 OA
ATOM     22  H   UNL     1       8.472  -1.434  25.141  0.00  0.00    +0.295 HD
ENDBRANCH  19  21
ENDBRANCH  17  19
ENDBRANCH  16  17
ENDBRANCH  15  16
ENDBRANCH   1  15
TORSDOF 5
ENDMDL
MODEL 8
REMARK VINA RESULT:      -5.9      2.260      2.384
REMARK  Name = 
REMARK  6 active torsions:
REMARK  status: ('A' for Active; 'I' for Inactive)
REMARK    1  A    between atoms: C_2  and  C_3
REMARK    2  A    between atoms: C_2  and  C_4
REMARK    3  A    between atoms: C_2  and  C_20
REMARK    4  A    between atoms: C_4  and  O_5
REMARK    5  A    between atoms: O_5  and  N_6
REMARK    6  A    between atoms: C_20  and  O_21
REMARK                            x       y       z     vdW  Elec       q    Type
REMARK                         _______ _______ _______ _____ _____    ______ ____
ROOT
ATOM      1  N   UNL     1       7.021  -1.387  24.189  0.00  0.00    -0.084 NA
ATOM      2  C   UNL     1       6.258  -2.436  24.126  0.00  0.00    +0.118 C 
ATOM      3  C   UNL     1       6.311  -3.641  23.257  0.00  0.00    +0.012 A 
ATOM      4  C   UNL     1       7.205  -4.017  22.268  0.00  0.00    +0.011 A 
ATOM      5  C   UNL     1       6.965  -5.215  21.591  0.00  0.00    +0.001 A 
ATOM      6  C   UNL     1       5.849  -6.007  21.905  0.00  0.00    +0.001 A 
ATOM      7  C   UNL     1       4.949  -5.616  22.901  0.00  0.00    +0.009 A 
ATOM      8  C   UNL     1       5.187  -4.428  23.576  0.00  0.00    -0.008 A 
ATOM      9  C   UNL     1       4.427  -3.785  24.624  0.00  0.00    -0.008 A 
ATOM     10  C   UNL     1       3.261  -4.164  25.268  0.00  0.00    +0.009 A 
ATOM     11  C   UNL     1       2.745  -3.324  26.264  0.00  0.00    +0.001 A 
ATOM     12  C   UNL     1       3.392  -2.121  26.604  0.00  0.00    +0.001 A 
ATOM     13  C   UNL     1       4.563  -1.736  25.952  0.00  0.00    +0.011 A 
ATOM     14  C   UNL     1       5.055  -2.582  24.975  0.00  0.00    +0.012 A 
ENDROOT
BRANCH   1  15
ATOM     15  O   UNL     1       8.120  -1.449  23.333  0.00  0.00    -0.392 OA
BRANCH  15  16
ATOM     16  C   UNL     1       9.328  -1.448  24.110  0.00  0.00    +0.277 C 
BRANCH  16  17
ATOM     17  C   UNL     1      10.343  -0.529  23.435  0.00  0.00    +0.134 C 
ATOM     18  C   UNL     1      10.580   0.702  24.315  0.00  0.00    +0.023 C 
BRANCH  17  19
ATOM     19  C   UNL     1       9.918  -0.076  22.045  0.00  0.00    +0.311 C 
ATOM     20  O   UNL     1       9.811   1.101  21.723  0.00  0.00    -0.251 OA
BRANCH  19  21
ATOM     21  O   UNL     1       9.756  -1.054  21.132  0.00  0.00    -0.480 OA
ATOM     22  H   UNL     1       9.193  -0.795  20.364  0.00  0.00    +0.295 HD
ENDBRANCH  19  21
ENDBRANCH  17  19
ENDBRANCH  16  17
ENDBRANCH  15  16
ENDBRANCH   1  15
TORSDOF 5
ENDMDL
MODEL 9
REMARK VINA RESULT:      -5.8      3.129      6.650
REMARK  Name = 
REMARK  6 active torsions:
REMARK  status: ('A' for Active; 'I' for Inactive)
REMARK    1  A    between atoms: C_2  and  C_3
REMARK    2  A    between atoms: C_2  and  C_4
REMARK    3  A    between atoms: C_2  and  C_20
REMARK    4  A    between atoms: C_4  and  O_5
REMARK    5  A    between atoms: O_5  and  N_6
REMARK    6  A    between atoms: C_20  and  O_21
REMARK                            x       y       z     vdW  Elec       q    Type
REMARK                         _______ _______ _______ _____ _____    ______ ____
ROOT
ATOM      1  N   UNL     1       6.715  -0.838  25.878  0.00  0.00    -0.084 NA
ATOM      2  C   UNL     1       7.090  -0.330  24.744  0.00  0.00    +0.118 C 
ATOM      3  C   UNL     1       8.206  -0.684  23.828  0.00  0.00    +0.012 A 
ATOM      4  C   UNL     1       9.165  -1.680  23.897  0.00  0.00    +0.011 A 
ATOM      5  C   UNL     1      10.120  -1.740  22.880  0.00  0.00    +0.001 A 
ATOM      6  C   UNL     1      10.105  -0.814  21.824  0.00  0.00    +0.001 A 
ATOM      7  C   UNL     1       9.135   0.192  21.766  0.00  0.00    +0.009 A 
ATOM      8  C   UNL     1       8.185   0.251  22.774  0.00  0.00    -0.008 A 
ATOM      9  C   UNL     1       7.093   1.178  22.970  0.00  0.00    -0.008 A 
ATOM     10  C   UNL     1       6.667   2.258  22.213  0.00  0.00    +0.009 A 
ATOM     11  C   UNL     1       5.557   2.988  22.659  0.00  0.00    +0.001 A 
ATOM     12  C   UNL     1       4.889   2.638  23.848  0.00  0.00    +0.001 A 
ATOM     13  C   UNL     1       5.320   1.554  24.612  0.00  0.00    +0.011 A 
ATOM     14  C   UNL     1       6.415   0.847  24.151  0.00  0.00    +0.012 A 
ENDROOT
BRANCH   1  15
ATOM     15  O   UNL     1       7.453  -1.959  26.255  0.00  0.00    -0.392 OA
BRANCH  15  16
ATOM     16  C   UNL     1       6.571  -3.084  26.400  0.00  0.00    +0.277 C 
BRANCH  16  17
ATOM     17  C   UNL     1       7.213  -4.296  25.731  0.00  0.00    +0.134 C 
ATOM     18  C   UNL     1       6.123  -5.301  25.346  0.00  0.00    +0.023 C 
BRANCH  17  19
ATOM     19  C   UNL     1       8.250  -4.991  26.602  0.00  0.00    +0.311 C 
ATOM     20  O   UNL     1       9.447  -4.737  26.556  0.00  0.00    -0.251 OA
BRANCH  19  21
ATOM     21  O   UNL     1       7.765  -5.851  27.519  0.00  0.00    -0.480 OA
ATOM     22  H   UNL     1       7.255  -5.417  28.244  0.00  0.00    +0.295 HD
ENDBRANCH  19  21
ENDBRANCH  17  19
ENDBRANCH  16  17
ENDBRANCH  15  16
ENDBRANCH   1  15
TORSDOF 5
ENDMDL
