MODEL 1
REMARK VINA RESULT:      -3.9      0.000      0.000
REMARK  Name = 
REMARK  7 active torsions:
REMARK  status: ('A' for Active; 'I' for Inactive)
REMARK    1  A    between atoms: C_1  and  C_2
REMARK    2  A    between atoms: C_2  and  C_4
REMARK    3  A    between atoms: C_4  and  S_5
REMARK    4  A    between atoms: S_5  and  C_6
REMARK    5  A    between atoms: C_6  and  C_7
REMARK    6  A    between atoms: C_7  and  S_8
REMARK    7  A    between atoms: S_8  and  O_9
REMARK                            x       y       z     vdW  Elec       q    Type
REMARK                         _______ _______ _______ _____ _____    ______ ____
ROOT
ATOM      1  C   UNL     1       6.576  -3.934  24.490  0.00  0.00    +0.094 C 
ENDROOT
BRANCH   1   2
ATOM      2  S   UNL     1       7.454  -4.219  22.916  0.00  0.00    -0.151 S 
BRANCH   2   3
ATOM      3  C   UNL     1       8.303  -2.620  22.752  0.00  0.00    +0.143 C 
BRANCH   3   5
ATOM      4  C   UNL     1       9.644  -1.182  24.424  0.00  0.00    +0.087 C 
ATOM      5  C   UNL     1       9.404  -2.529  23.791  0.00  0.00    +0.140 C 
ATOM      6  O   UNL     1      10.074  -3.511  24.113  0.00  0.00    -0.297 OA
ENDBRANCH   3   5
ENDBRANCH   2   3
ENDBRANCH   1   2
BRANCH   1   7
ATOM      7  C   UNL     1       6.657  -5.204  25.317  0.00  0.00    +0.208 C 
BRANCH   7   8
ATOM      8  S   UNL     1       7.816  -5.001  26.654  0.00  0.00    +0.081 S 
ATOM      9  O   UNL     1       7.438  -5.848  27.760  0.00  0.00    -0.147 OA
ATOM     10  O   UNL     1       8.123  -3.597  26.816  0.00  0.00    -0.147 OA
BRANCH   8  11
ATOM     11  O   UNL     1       9.102  -5.653  25.931  0.00  0.00    -0.254 OA
ATOM     12  H   UNL     1       8.802  -6.106  25.113  0.00  0.00    +0.244 HD
ENDBRANCH   8  11
ENDBRANCH   7   8
ENDBRANCH   1   7
TORSDOF 6
ENDMDL
MODEL 2
REMARK VINA RESULT:      -3.9      3.462      4.980
REMARK  Name = 
REMARK  7 active torsions:
REMARK  status: ('A' for Active; 'I' for Inactive)
REMARK    1  A    between atoms: C_1  and  C_2
REMARK    2  A    between atoms: C_2  and  C_4
REMARK    3  A    between atoms: C_4  and  S_5
REMARK    4  A    between atoms: S_5  and  C_6
REMARK    5  A    between atoms: C_6  and  C_7
REMARK    6  A    between atoms: C_7  and  S_8
REMARK    7  A    between atoms: S_8  and  O_9
REMARK                            x       y       z     vdW  Elec       q    Type
REMARK                         _______ _______ _______ _____ _____    ______ ____
ROOT
ATOM      1  C   UNL     1      10.304  -0.174  24.562  0.00  0.00    +0.094 C 
ENDROOT
BRANCH   1   2
ATOM      2  S   UNL     1       9.702   1.534  24.333  0.00  0.00    -0.151 S 
BRANCH   2   3
ATOM      3  C   UNL     1      10.162   1.784  22.593  0.00  0.00    +0.143 C 
BRANCH   3   5
ATOM      4  C   UNL     1       7.755   1.972  21.681  0.00  0.00    +0.087 C 
ATOM      5  C   UNL     1       9.067   1.231  21.700  0.00  0.00    +0.140 C 
ATOM      6  O   UNL     1       9.239   0.223  21.013  0.00  0.00    -0.297 OA
ENDBRANCH   3   5
ENDBRANCH   2   3
ENDBRANCH   1   2
BRANCH   1   7
ATOM      7  C   UNL     1       9.107  -1.107  24.546  0.00  0.00    +0.208 C 
BRANCH   7   8
ATOM      8  S   UNL     1       9.416  -2.493  23.471  0.00  0.00    +0.081 S 
ATOM      9  O   UNL     1       8.284  -2.696  22.599  0.00  0.00    -0.147 OA
ATOM     10  O   UNL     1      10.018  -3.566  24.231  0.00  0.00    -0.147 OA
BRANCH   8  11
ATOM     11  O   UNL     1      10.611  -1.839  22.608  0.00  0.00    -0.254 OA
ATOM     12  H   UNL     1      10.766  -2.400  21.817  0.00  0.00    +0.244 HD
ENDBRANCH   8  11
ENDBRANCH   7   8
ENDBRANCH   1   7
TORSDOF 6
ENDMDL
MODEL 3
REMARK VINA RESULT:      -3.8      3.359      3.973
REMARK  Name = 
REMARK  7 active torsions:
REMARK  status: ('A' for Active; 'I' for Inactive)
REMARK    1  A    between atoms: C_1  and  C_2
REMARK    2  A    between atoms: C_2  and  C_4
REMARK    3  A    between atoms: C_4  and  S_5
REMARK    4  A    between atoms: S_5  and  C_6
REMARK    5  A    between atoms: C_6  and  C_7
REMARK    6  A    between atoms: C_7  and  S_8
REMARK    7  A    between atoms: S_8  and  O_9
REMARK                            x       y       z     vdW  Elec       q    Type
REMARK                         _______ _______ _______ _____ _____    ______ ____
ROOT
ATOM      1  C   UNL     1       7.459  -4.530  23.865  0.00  0.00    +0.094 C 
ENDROOT
BRANCH   1   2
ATOM      2  S   UNL     1       8.541  -3.077  24.081  0.00  0.00    -0.151 S 
BRANCH   2   3
ATOM      3  C   UNL     1       8.322  -2.294  22.456  0.00  0.00    +0.143 C 
BRANCH   3   5
ATOM      4  C   UNL     1       9.360  -0.168  21.425  0.00  0.00    +0.087 C 
ATOM      5  C   UNL     1       9.564  -1.495  22.112  0.00  0.00    +0.140 C 
ATOM      6  O   UNL     1      10.694  -1.903  22.385  0.00  0.00    -0.297 OA
ENDBRANCH   3   5
ENDBRANCH   2   3
ENDBRANCH   1   2
BRANCH   1   7
ATOM      7  C   UNL     1       7.521  -4.959  22.410  0.00  0.00    +0.208 C 
BRANCH   7   8
ATOM      8  S   UNL     1       5.885  -5.286  21.788  0.00  0.00    +0.081 S 
ATOM      9  O   UNL     1       5.960  -5.695  20.406  0.00  0.00    -0.147 OA
ATOM     10  O   UNL     1       4.980  -4.256  22.249  0.00  0.00    -0.147 OA
BRANCH   8  11
ATOM     11  O   UNL     1       5.565  -6.587  22.687  0.00  0.00    -0.254 OA
ATOM     12  H   UNL     1       4.599  -6.761  22.651  0.00  0.00    +0.244 HD
ENDBRANCH   8  11
ENDBRANCH   7   8
ENDBRANCH   1   7
TORSDOF 6
ENDMDL
MODEL 4
REMARK VINA RESULT:      -3.8      2.228      2.817
REMARK  Name = 
REMARK  7 active torsions:
REMARK  status: ('A' for Active; 'I' for Inactive)
REMARK    1  A    between atoms: C_1  and  C_2
REMARK    2  A    between atoms: C_2  and  C_4
REMARK    3  A    between atoms: C_4  and  S_5
REMARK    4  A    between atoms: S_5  and  C_6
REMARK    5  A    between atoms: C_6  and  C_7
REMARK    6  A    between atoms: C_7  and  S_8
REMARK    7  A    between atoms: S_8  and  O_9
REMARK                            x       y       z     vdW  Elec       q    Type
REMARK                         _______ _______ _______ _____ _____    ______ ____
ROOT
ATOM      1  C   UNL     1       8.220  -2.463  24.107  0.00  0.00    +0.094 C 
ENDROOT
BRANCH   1   2
ATOM      2  S   UNL     1       8.516  -2.057  22.352  0.00  0.00    -0.151 S 
BRANCH   2   3
ATOM      3  C   UNL     1      10.244  -1.504  22.459  0.00  0.00    +0.143 C 
BRANCH   3   5
ATOM      4  C   UNL     1       9.839   0.994  21.954  0.00  0.00    +0.087 C 
ATOM      5  C   UNL     1      10.281  -0.064  22.933  0.00  0.00    +0.140 C 
ATOM      6  O   UNL     1      10.651   0.236  24.069  0.00  0.00    -0.297 OA
ENDBRANCH   3   5
ENDBRANCH   2   3
ENDBRANCH   1   2
BRANCH   1   7
ATOM      7  C   UNL     1       9.392  -3.286  24.609  0.00  0.00    +0.208 C 
BRANCH   7   8
ATOM      8  S   UNL     1       8.888  -4.968  24.908  0.00  0.00    +0.081 S 
ATOM      9  O   UNL     1       8.480  -5.582  23.667  0.00  0.00    -0.147 OA
ATOM     10  O   UNL     1       8.084  -5.024  26.108  0.00  0.00    -0.147 OA
BRANCH   8  11
ATOM     11  O   UNL     1      10.332  -5.560  25.317  0.00  0.00    -0.254 OA
ATOM     12  H   UNL     1      10.266  -6.539  25.357  0.00  0.00    +0.244 HD
ENDBRANCH   8  11
ENDBRANCH   7   8
ENDBRANCH   1   7
TORSDOF 6
ENDMDL
MODEL 5
REMARK VINA RESULT:      -3.7      4.018      5.931
REMARK  Name = 
REMARK  7 active torsions:
REMARK  status: ('A' for Active; 'I' for Inactive)
REMARK    1  A    between atoms: C_1  and  C_2
REMARK    2  A    between atoms: C_2  and  C_4
REMARK    3  A    between atoms: C_4  and  S_5
REMARK    4  A    between atoms: S_5  and  C_6
REMARK    5  A    between atoms: C_6  and  C_7
REMARK    6  A    between atoms: C_7  and  S_8
REMARK    7  A    between atoms: S_8  and  O_9
REMARK                            x       y       z     vdW  Elec       q    Type
REMARK                         _______ _______ _______ _____ _____    ______ ____
ROOT
ATOM      1  C   UNL     1       8.693  -1.180  22.368  0.00  0.00    +0.094 C 
ENDROOT
BRANCH   1   2
ATOM      2  S   UNL     1       9.682  -2.220  23.495  0.00  0.00    -0.151 S 
BRANCH   2   3
ATOM      3  C   UNL     1       8.435  -3.471  23.922  0.00  0.00    +0.143 C 
BRANCH   3   5
ATOM      4  C   UNL     1       8.126  -5.074  25.921  0.00  0.00    +0.087 C 
ATOM      5  C   UNL     1       9.041  -4.475  24.884  0.00  0.00    +0.140 C 
ATOM      6  O   UNL     1      10.229  -4.797  24.822  0.00  0.00    -0.297 OA
ENDBRANCH   3   5
ENDBRANCH   2   3
ENDBRANCH   1   2
BRANCH   1   7
ATOM      7  C   UNL     1       9.608  -0.136  21.756  0.00  0.00    +0.208 C 
BRANCH   7   8
ATOM      8  S   UNL     1       9.031   1.503  22.147  0.00  0.00    +0.081 S 
ATOM      9  O   UNL     1       9.010   1.684  23.579  0.00  0.00    -0.147 OA
ATOM     10  O   UNL     1       7.904   1.830  21.303  0.00  0.00    -0.147 OA
BRANCH   8  11
ATOM     11  O   UNL     1      10.283   2.325  21.549  0.00  0.00    -0.254 OA
ATOM     12  H   UNL     1      10.094   3.285  21.634  0.00  0.00    +0.244 HD
ENDBRANCH   8  11
ENDBRANCH   7   8
ENDBRANCH   1   7
TORSDOF 6
ENDMDL
MODEL 6
REMARK VINA RESULT:      -3.7      2.600      4.518
REMARK  Name = 
REMARK  7 active torsions:
REMARK  status: ('A' for Active; 'I' for Inactive)
REMARK    1  A    between atoms: C_1  and  C_2
REMARK    2  A    between atoms: C_2  and  C_4
REMARK    3  A    between atoms: C_4  and  S_5
REMARK    4  A    between atoms: S_5  and  C_6
REMARK    5  A    between atoms: C_6  and  C_7
REMARK    6  A    between atoms: C_7  and  S_8
REMARK    7  A    between atoms: S_8  and  O_9
REMARK                            x       y       z     vdW  Elec       q    Type
REMARK                         _______ _______ _______ _____ _____    ______ ____
ROOT
ATOM      1  C   UNL     1       7.594  -2.447  22.227  0.00  0.00    +0.094 C 
ENDROOT
BRANCH   1   2
ATOM      2  S   UNL     1       5.995  -2.892  22.984  0.00  0.00    -0.151 S 
BRANCH   2   3
ATOM      3  C   UNL     1       6.558  -4.171  24.146  0.00  0.00    +0.143 C 
BRANCH   3   5
ATOM      4  C   UNL     1       6.565  -5.950  22.276  0.00  0.00    +0.087 C 
ATOM      5  C   UNL     1       7.308  -5.246  23.384  0.00  0.00    +0.140 C 
ATOM      6  O   UNL     1       8.476  -5.534  23.648  0.00  0.00    -0.297 OA
ENDBRANCH   3   5
ENDBRANCH   2   3
ENDBRANCH   1   2
BRANCH   1   7
ATOM      7  C   UNL     1       8.205  -1.315  23.034  0.00  0.00    +0.208 C 
BRANCH   7   8
ATOM      8  S   UNL     1       9.969  -1.520  23.155  0.00  0.00    +0.081 S 
ATOM      9  O   UNL     1      10.272  -2.812  23.724  0.00  0.00    -0.147 OA
ATOM     10  O   UNL     1      10.565  -0.295  23.640  0.00  0.00    -0.147 OA
BRANCH   8  11
ATOM     11  O   UNL     1      10.293  -1.573  21.576  0.00  0.00    -0.254 OA
ATOM     12  H   UNL     1      10.163  -2.494  21.262  0.00  0.00    +0.244 HD
ENDBRANCH   8  11
ENDBRANCH   7   8
ENDBRANCH   1   7
TORSDOF 6
ENDMDL
MODEL 7
REMARK VINA RESULT:      -3.5      4.030      5.390
REMARK  Name = 
REMARK  7 active torsions:
REMARK  status: ('A' for Active; 'I' for Inactive)
REMARK    1  A    between atoms: C_1  and  C_2
REMARK    2  A    between atoms: C_2  and  C_4
REMARK    3  A    between atoms: C_4  and  S_5
REMARK    4  A    between atoms: S_5  and  C_6
REMARK    5  A    between atoms: C_6  and  C_7
REMARK    6  A    between atoms: C_7  and  S_8
REMARK    7  A    between atoms: S_8  and  O_9
REMARK                            x       y       z     vdW  Elec       q    Type
REMARK                         _______ _______ _______ _____ _____    ______ ____
ROOT
ATOM      1  C   UNL     1       7.183  -0.874  23.020  0.00  0.00    +0.094 C 
ENDROOT
BRANCH   1   2
ATOM      2  S   UNL     1       6.135  -2.357  23.202  0.00  0.00    -0.151 S 
BRANCH   2   3
ATOM      3  C   UNL     1       7.320  -3.629  22.675  0.00  0.00    +0.143 C 
BRANCH   3   5
ATOM      4  C   UNL     1       7.064  -6.065  21.862  0.00  0.00    +0.087 C 
ATOM      5  C   UNL     1       6.617  -4.628  21.776  0.00  0.00    +0.140 C 
ATOM      6  O   UNL     1       5.714  -4.287  21.010  0.00  0.00    -0.297 OA
ENDBRANCH   3   5
ENDBRANCH   2   3
ENDBRANCH   1   2
BRANCH   1   7
ATOM      7  C   UNL     1       8.602  -1.242  23.412  0.00  0.00    +0.208 C 
BRANCH   7   8
ATOM      8  S   UNL     1       9.774  -0.341  22.419  0.00  0.00    +0.081 S 
ATOM      9  O   UNL     1      10.748   0.298  23.272  0.00  0.00    -0.147 OA
ATOM     10  O   UNL     1       9.074   0.364  21.369  0.00  0.00    -0.147 OA
BRANCH   8  11
ATOM     11  O   UNL     1      10.477  -1.607  21.707  0.00  0.00    -0.254 OA
ATOM     12  H   UNL     1      11.292  -1.297  21.256  0.00  0.00    +0.244 HD
ENDBRANCH   8  11
ENDBRANCH   7   8
ENDBRANCH   1   7
TORSDOF 6
ENDMDL
MODEL 8
REMARK VINA RESULT:      -3.4      4.427      6.384
REMARK  Name = 
REMARK  7 active torsions:
REMARK  status: ('A' for Active; 'I' for Inactive)
REMARK    1  A    between atoms: C_1  and  C_2
REMARK    2  A    between atoms: C_2  and  C_4
REMARK    3  A    between atoms: C_4  and  S_5
REMARK    4  A    between atoms: S_5  and  C_6
REMARK    5  A    between atoms: C_6  and  C_7
REMARK    6  A    between atoms: C_7  and  S_8
REMARK    7  A    between atoms: S_8  and  O_9
REMARK                            x       y       z     vdW  Elec       q    Type
REMARK                         _______ _______ _______ _____ _____    ______ ____
ROOT
ATOM      1  C   UNL     1       9.441   0.300  24.398  0.00  0.00    +0.094 C 
ENDROOT
BRANCH   1   2
ATOM      2  S   UNL     1       9.113  -1.043  23.207  0.00  0.00    -0.151 S 
BRANCH   2   3
ATOM      3  C   UNL     1       8.223  -2.197  24.292  0.00  0.00    +0.143 C 
BRANCH   3   5
ATOM      4  C   UNL     1       7.886  -4.687  23.703  0.00  0.00    +0.087 C 
ATOM      5  C   UNL     1       8.816  -3.585  24.143  0.00  0.00    +0.140 C 
ATOM      6  O   UNL     1      10.007  -3.808  24.364  0.00  0.00    -0.297 OA
ENDBRANCH   3   5
ENDBRANCH   2   3
ENDBRANCH   1   2
BRANCH   1   7
ATOM      7  C   UNL     1      10.688   1.041  23.949  0.00  0.00    +0.208 C 
BRANCH   7   8
ATOM      8  S   UNL     1      10.253   2.615  23.239  0.00  0.00    +0.081 S 
ATOM      9  O   UNL     1      11.347   3.543  23.404  0.00  0.00    -0.147 OA
ATOM     10  O   UNL     1       8.890   2.943  23.592  0.00  0.00    -0.147 OA
BRANCH   8  11
ATOM     11  O   UNL     1      10.209   2.153  21.694  0.00  0.00    -0.254 OA
ATOM     12  H   UNL     1       9.806   2.875  21.164  0.00  0.00    +0.244 HD
ENDBRANCH   8  11
ENDBRANCH   7   8
ENDBRANCH   1   7
TORSDOF 6
ENDMDL
MODEL 9
REMARK VINA RESULT:      -3.4      2.245      4.242
REMARK  Name = 
REMARK  7 active torsions:
REMARK  status: ('A' for Active; 'I' for Inactive)
REMARK    1  A    between atoms: C_1  and  C_2
REMARK    2  A    between atoms: C_2  and  C_4
REMARK    3  A    between atoms: C_4  and  S_5
REMARK    4  A    between atoms: S_5  and  C_6
REMARK    5  A    between atoms: C_6  and  C_7
REMARK    6  A    between atoms: C_7  and  S_8
REMARK    7  A    between atoms: S_8  and  O_9
REMARK                            x       y       z     vdW  Elec       q    Type
REMARK                         _______ _______ _______ _____ _____    ______ ____
ROOT
ATOM      1  C   UNL     1       6.955  -2.097  23.162  0.00  0.00    +0.094 C 
ENDROOT
BRANCH   1   2
ATOM      2  S   UNL     1       5.665  -3.336  22.799  0.00  0.00    -0.151 S 
BRANCH   2   3
ATOM      3  C   UNL     1       6.640  -4.855  23.012  0.00  0.00    +0.143 C 
BRANCH   3   5
ATOM      4  C   UNL     1       5.537  -5.740  25.172  0.00  0.00    +0.087 C 
ATOM      5  C   UNL     1       6.757  -5.172  24.491  0.00  0.00    +0.140 C 
ATOM      6  O   UNL     1       7.803  -4.983  25.114  0.00  0.00    -0.297 OA
ENDBRANCH   3   5
ENDBRANCH   2   3
ENDBRANCH   1   2
BRANCH   1   7
ATOM      7  C   UNL     1       8.215  -2.486  22.410  0.00  0.00    +0.208 C 
BRANCH   7   8
ATOM      8  S   UNL     1       9.661  -1.980  23.319  0.00  0.00    +0.081 S 
ATOM      9  O   UNL     1       9.295  -0.997  24.310  0.00  0.00    -0.147 OA
ATOM     10  O   UNL     1      10.764  -1.792  22.403  0.00  0.00    -0.147 OA
BRANCH   8  11
ATOM     11  O   UNL     1       9.946  -3.378  24.071  0.00  0.00    -0.254 OA
ATOM     12  H   UNL     1      10.130  -3.190  25.017  0.00  0.00    +0.244 HD
ENDBRANCH   8  11
ENDBRANCH   7   8
ENDBRANCH   1   7
TORSDOF 6
ENDMDL
