MODEL 1
REMARK VINA RESULT:      -7.3      0.000      0.000
REMARK  Name = 
REMARK  7 active torsions:
REMARK  status: ('A' for Active; 'I' for Inactive)
REMARK    1  A    between atoms: CB_5  and  CG1_6
REMARK    2  A    between atoms: CA_8  and  C_26
REMARK    3  A    between atoms: CA_12  and  N_14
REMARK    4  A    between atoms: C_15  and  C_17
REMARK    5  A    between atoms: C_17  and  C_20
REMARK    6  A    between atoms: N_18  and  O_19
REMARK    7  A    between atoms: C_26  and  O_27
REMARK                            x       y       z     vdW  Elec       q    Type
REMARK                         _______ _______ _______ _____ _____    ______ ____
ROOT
ATOM      1  N   UNK A   1       8.206  -3.145  24.000  0.00  0.00    -0.296 N 
ATOM      2  H   UNK A   1       8.394  -2.674  24.889  0.00  0.00    +0.150 HD
ATOM      3  C   UNK A   0       7.855  -4.465  24.099  0.00  0.00    +0.268 C 
ATOM      4  O   UNK A   0       7.438  -5.126  23.156  0.00  0.00    -0.268 OA
ENDROOT
BRANCH   1   6
ATOM      5  C   UNK A   1       7.244  -1.062  22.810  0.00  0.00    +0.169 C 
ATOM      6  C   UNK A   1       8.109  -2.358  22.743  0.00  0.00    +0.191 C 
ATOM      7  C   UNK A   1       9.290  -1.354  22.525  0.00  0.00    +0.244 C 
ATOM      8  O   UNK A   1      10.488  -1.388  22.361  0.00  0.00    -0.273 OA
ATOM      9  N   UNK A   2       8.485  -0.312  22.819  0.00  0.00    -0.249 N 
ATOM     10  C   UNK A   2       8.594   1.025  23.105  0.00  0.00    +0.126 C 
ATOM     11  C   UNK A   2       7.557   1.665  23.729  0.00  0.00    -0.010 C 
ATOM     12  C   UNK A   2       6.259   0.981  24.147  0.00  0.00    +0.108 C 
ATOM     13  S   UNK A   2       6.376  -0.804  24.373  0.00  0.00    -0.131 S 
BRANCH  10  14
ATOM     14  C   UNK A   2       9.845   1.791  22.714  0.00  0.00    +0.352 C 
ATOM     15  O   UNK A   2      10.774   1.999  23.482  0.00  0.00    -0.244 OA
BRANCH  14  16
ATOM     16  O   UNK A   2       9.908   2.277  21.460  0.00  0.00    -0.476 OA
ATOM     17  H   UNK A   2      10.423   1.783  20.788  0.00  0.00    +0.295 HD
ENDBRANCH  14  16
ENDBRANCH  10  14
BRANCH  11  18
ATOM     18  C   UNK A   2       7.606   3.067  24.168  0.00  0.00    -0.001 C 
ATOM     19  C   UNK A   2       7.849   3.499  25.415  0.00  0.00    +0.009 C 
ENDBRANCH  11  18
ENDBRANCH   1   6
BRANCH   3  20
ATOM     20  C   UNK A   0       8.062  -5.107  25.478  0.00  0.00    +0.190 C 
ATOM     21  N   UNK A   0       9.186  -5.642  25.878  0.00  0.00    -0.080 NA
BRANCH  20  22
ATOM     22  C   UNK A   0       6.939  -5.173  26.418  0.00  0.00    +0.107 A 
ATOM     23  N   UNK A   0       6.191  -6.342  26.581  0.00  0.00    -0.223 NA
ATOM     24  C   UNK A   0       5.244  -6.166  27.464  0.00  0.00    +0.156 A 
ATOM     25  N   UNK A   0       4.391  -7.134  27.832  0.00  0.00    -0.338 N 
ATOM     26  H   UNK A   0       4.676  -8.081  27.606  0.00  0.00    +0.144 HD
ATOM     27  H   UNK A   0       3.909  -7.039  28.717  0.00  0.00    +0.144 HD
ATOM     28  S   UNK A   0       5.162  -4.597  28.152  0.00  0.00    -0.060 S 
ATOM     29  C   UNK A   0       6.500  -4.117  27.199  0.00  0.00    +0.078 A 
ENDBRANCH  20  22
BRANCH  21  30
ATOM     30  O   UNK A   0      10.227  -5.573  24.953  0.00  0.00    -0.409 OA
ATOM     31  H   UNK A   0      10.865  -4.984  25.404  0.00  0.00    +0.328 HD
ENDBRANCH  21  30
ENDBRANCH   3  20
TORSDOF 7
ENDMDL
MODEL 2
REMARK VINA RESULT:      -7.1      1.828      2.080
REMARK  Name = 
REMARK  7 active torsions:
REMARK  status: ('A' for Active; 'I' for Inactive)
REMARK    1  A    between atoms: CB_5  and  CG1_6
REMARK    2  A    between atoms: CA_8  and  C_26
REMARK    3  A    between atoms: CA_12  and  N_14
REMARK    4  A    between atoms: C_15  and  C_17
REMARK    5  A    between atoms: C_17  and  C_20
REMARK    6  A    between atoms: N_18  and  O_19
REMARK    7  A    between atoms: C_26  and  O_27
REMARK                            x       y       z     vdW  Elec       q    Type
REMARK                         _______ _______ _______ _____ _____    ______ ____
ROOT
ATOM      1  N   UNK A   1       7.301  -3.397  24.256  0.00  0.00    -0.296 N 
ATOM      2  H   UNK A   1       6.374  -3.241  24.660  0.00  0.00    +0.150 HD
ATOM      3  C   UNK A   0       7.903  -4.577  24.605  0.00  0.00    +0.268 C 
ATOM      4  O   UNK A   0       8.930  -4.993  24.084  0.00  0.00    -0.268 OA
ENDROOT
BRANCH   1   6
ATOM      5  C   UNK A   1       7.270  -1.031  23.215  0.00  0.00    +0.169 C 
ATOM      6  C   UNK A   1       7.817  -2.492  23.195  0.00  0.00    +0.191 C 
ATOM      7  C   UNK A   1       9.179  -1.806  23.548  0.00  0.00    +0.244 C 
ATOM      8  O   UNK A   1      10.324  -2.127  23.770  0.00  0.00    -0.273 OA
ATOM      9  N   UNK A   2       8.555  -0.627  23.753  0.00  0.00    -0.249 N 
ATOM     10  C   UNK A   2       8.829   0.604  24.293  0.00  0.00    +0.126 C 
ATOM     11  C   UNK A   2       7.795   1.423  24.658  0.00  0.00    -0.010 C 
ATOM     12  C   UNK A   2       6.322   1.054  24.512  0.00  0.00    +0.108 C 
ATOM     13  S   UNK A   2       5.981  -0.715  24.440  0.00  0.00    -0.131 S 
BRANCH  10  14
ATOM     14  C   UNK A   2      10.267   1.061  24.464  0.00  0.00    +0.352 C 
ATOM     15  O   UNK A   2      10.793   1.909  23.755  0.00  0.00    -0.244 OA
BRANCH  14  16
ATOM     16  O   UNK A   2      10.992   0.476  25.435  0.00  0.00    -0.476 OA
ATOM     17  H   UNK A   2      10.644   0.483  26.352  0.00  0.00    +0.295 HD
ENDBRANCH  14  16
ENDBRANCH  10  14
BRANCH  11  18
ATOM     18  C   UNK A   2       7.974   2.716  25.334  0.00  0.00    -0.001 C 
ATOM     19  C   UNK A   2       7.951   3.924  24.751  0.00  0.00    +0.009 C 
ENDBRANCH  11  18
ENDBRANCH   1   6
BRANCH   3  20
ATOM     20  C   UNK A   0       7.233  -5.351  25.750  0.00  0.00    +0.190 C 
ATOM     21  N   UNK A   0       7.782  -5.554  26.920  0.00  0.00    -0.080 NA
BRANCH  20  22
ATOM     22  C   UNK A   0       5.909  -5.944  25.541  0.00  0.00    +0.107 A 
ATOM     23  N   UNK A   0       5.314  -5.973  24.278  0.00  0.00    -0.223 NA
ATOM     24  C   UNK A   0       4.138  -6.544  24.333  0.00  0.00    +0.156 A 
ATOM     25  N   UNK A   0       3.358  -6.727  23.258  0.00  0.00    -0.338 N 
ATOM     26  H   UNK A   0       3.822  -6.655  22.359  0.00  0.00    +0.144 HD
ATOM     27  H   UNK A   0       2.635  -7.434  23.304  0.00  0.00    +0.144 HD
ATOM     28  S   UNK A   0       3.650  -7.071  25.890  0.00  0.00    -0.060 S 
ATOM     29  C   UNK A   0       5.126  -6.496  26.540  0.00  0.00    +0.078 A 
ENDBRANCH  20  22
BRANCH  21  30
ATOM     30  O   UNK A   0       9.046  -4.986  27.077  0.00  0.00    -0.409 OA
ATOM     31  H   UNK A   0       8.855  -4.209  27.640  0.00  0.00    +0.328 HD
ENDBRANCH  21  30
ENDBRANCH   3  20
TORSDOF 7
ENDMDL
MODEL 3
REMARK VINA RESULT:      -7.0      3.152      7.972
REMARK  Name = 
REMARK  7 active torsions:
REMARK  status: ('A' for Active; 'I' for Inactive)
REMARK    1  A    between atoms: CB_5  and  CG1_6
REMARK    2  A    between atoms: CA_8  and  C_26
REMARK    3  A    between atoms: CA_12  and  N_14
REMARK    4  A    between atoms: C_15  and  C_17
REMARK    5  A    between atoms: C_17  and  C_20
REMARK    6  A    between atoms: N_18  and  O_19
REMARK    7  A    between atoms: C_26  and  O_27
REMARK                            x       y       z     vdW  Elec       q    Type
REMARK                         _______ _______ _______ _____ _____    ______ ____
ROOT
ATOM      1  N   UNK A   1       9.178   0.110  24.152  0.00  0.00    -0.296 N 
ATOM      2  H   UNK A   1       8.321   0.439  23.700  0.00  0.00    +0.150 HD
ATOM      3  C   UNK A   0      10.267   0.928  24.009  0.00  0.00    +0.268 C 
ATOM      4  O   UNK A   0      11.316   0.771  24.620  0.00  0.00    -0.268 OA
ENDROOT
BRANCH   1   6
ATOM      5  C   UNK A   1       7.732  -1.679  25.331  0.00  0.00    +0.169 C 
ATOM      6  C   UNK A   1       9.138  -1.054  25.075  0.00  0.00    +0.191 C 
ATOM      7  C   UNK A   1       9.433  -2.427  24.383  0.00  0.00    +0.244 C 
ATOM      8  O   UNK A   1      10.345  -2.972  23.805  0.00  0.00    -0.273 OA
ATOM      9  N   UNK A   2       8.131  -2.772  24.465  0.00  0.00    -0.249 N 
ATOM     10  C   UNK A   2       7.284  -3.727  23.963  0.00  0.00    +0.126 C 
ATOM     11  C   UNK A   2       5.934  -3.507  23.987  0.00  0.00    -0.010 C 
ATOM     12  C   UNK A   2       5.285  -2.241  24.540  0.00  0.00    +0.108 C 
ATOM     13  S   UNK A   2       6.353  -0.789  24.576  0.00  0.00    -0.131 S 
BRANCH  10  14
ATOM     14  C   UNK A   2       7.841  -5.024  23.404  0.00  0.00    +0.352 C 
ATOM     15  O   UNK A   2       7.464  -5.520  22.351  0.00  0.00    -0.244 OA
BRANCH  14  16
ATOM     16  O   UNK A   2       8.782  -5.658  24.128  0.00  0.00    -0.476 OA
ATOM     17  H   UNK A   2       9.725  -5.532  23.890  0.00  0.00    +0.295 HD
ENDBRANCH  14  16
ENDBRANCH  10  14
BRANCH  11  18
ATOM     18  C   UNK A   2       4.945  -4.416  23.389  0.00  0.00    -0.001 C 
ATOM     19  C   UNK A   2       3.666  -4.555  23.768  0.00  0.00    +0.009 C 
ENDBRANCH  11  18
ENDBRANCH   1   6
BRANCH   3  20
ATOM     20  C   UNK A   0      10.119   2.057  22.978  0.00  0.00    +0.190 C 
ATOM     21  N   UNK A   0       9.776   1.871  21.730  0.00  0.00    -0.080 NA
BRANCH  20  22
ATOM     22  C   UNK A   0      10.408   3.438  23.375  0.00  0.00    +0.107 A 
ATOM     23  N   UNK A   0      11.703   3.960  23.310  0.00  0.00    -0.223 NA
ATOM     24  C   UNK A   0      11.722   5.203  23.716  0.00  0.00    +0.156 A 
ATOM     25  N   UNK A   0      12.833   5.954  23.734  0.00  0.00    -0.338 N 
ATOM     26  H   UNK A   0      13.604   5.615  23.169  0.00  0.00    +0.144 HD
ATOM     27  H   UNK A   0      12.731   6.961  23.748  0.00  0.00    +0.144 HD
ATOM     28  S   UNK A   0      10.209   5.835  24.217  0.00  0.00    -0.060 S 
ATOM     29  C   UNK A   0       9.470   4.332  23.861  0.00  0.00    +0.078 A 
ENDBRANCH  20  22
BRANCH  21  30
ATOM     30  O   UNK A   0       9.522   0.544  21.385  0.00  0.00    -0.409 OA
ATOM     31  H   UNK A   0       9.909   0.057  22.141  0.00  0.00    +0.328 HD
ENDBRANCH  21  30
ENDBRANCH   3  20
TORSDOF 7
ENDMDL
MODEL 4
REMARK VINA RESULT:      -6.9      2.535      7.562
REMARK  Name = 
REMARK  7 active torsions:
REMARK  status: ('A' for Active; 'I' for Inactive)
REMARK    1  A    between atoms: CB_5  and  CG1_6
REMARK    2  A    between atoms: CA_8  and  C_26
REMARK    3  A    between atoms: CA_12  and  N_14
REMARK    4  A    between atoms: C_15  and  C_17
REMARK    5  A    between atoms: C_17  and  C_20
REMARK    6  A    between atoms: N_18  and  O_19
REMARK    7  A    between atoms: C_26  and  O_27
REMARK                            x       y       z     vdW  Elec       q    Type
REMARK                         _______ _______ _______ _____ _____    ______ ____
ROOT
ATOM      1  N   UNK A   1       8.818  -1.491  23.876  0.00  0.00    -0.296 N 
ATOM      2  H   UNK A   1       8.639  -1.311  24.867  0.00  0.00    +0.150 HD
ATOM      3  C   UNK A   0       9.141  -0.388  23.130  0.00  0.00    +0.268 C 
ATOM      4  O   UNK A   0       9.545  -0.448  21.975  0.00  0.00    -0.268 OA
ENDROOT
BRANCH   1   6
ATOM      5  C   UNK A   1       8.688  -4.012  24.427  0.00  0.00    +0.169 C 
ATOM      6  C   UNK A   1       8.934  -2.886  23.377  0.00  0.00    +0.191 C 
ATOM      7  C   UNK A   1       7.622  -3.442  22.727  0.00  0.00    +0.244 C 
ATOM      8  O   UNK A   1       6.913  -3.206  21.776  0.00  0.00    -0.273 OA
ATOM      9  N   UNK A   2       7.397  -4.224  23.803  0.00  0.00    -0.249 N 
ATOM     10  C   UNK A   2       6.384  -4.985  24.330  0.00  0.00    +0.126 C 
ATOM     11  C   UNK A   2       6.419  -5.327  25.654  0.00  0.00    -0.010 C 
ATOM     12  C   UNK A   2       7.528  -4.906  26.615  0.00  0.00    +0.108 C 
ATOM     13  S   UNK A   2       8.448  -3.436  26.123  0.00  0.00    -0.131 S 
BRANCH  10  14
ATOM     14  C   UNK A   2       5.245  -5.460  23.444  0.00  0.00    +0.352 C 
ATOM     15  O   UNK A   2       4.248  -4.790  23.214  0.00  0.00    -0.244 OA
BRANCH  14  16
ATOM     16  O   UNK A   2       5.346  -6.692  22.912  0.00  0.00    -0.476 OA
ATOM     17  H   UNK A   2       4.908  -7.441  23.370  0.00  0.00    +0.295 HD
ENDBRANCH  14  16
ENDBRANCH  10  14
BRANCH  11  18
ATOM     18  C   UNK A   2       5.342  -6.053  26.342  0.00  0.00    -0.001 C 
ATOM     19  C   UNK A   2       5.338  -6.433  27.629  0.00  0.00    +0.009 C 
ENDBRANCH  11  18
ENDBRANCH   1   6
BRANCH   3  20
ATOM     20  C   UNK A   0       8.919   0.967  23.816  0.00  0.00    +0.190 C 
ATOM     21  N   UNK A   0       9.541   1.353  24.900  0.00  0.00    -0.080 NA
BRANCH  20  22
ATOM     22  C   UNK A   0       7.929   1.899  23.268  0.00  0.00    +0.107 A 
ATOM     23  N   UNK A   0       8.300   3.152  22.775  0.00  0.00    -0.223 NA
ATOM     24  C   UNK A   0       7.254   3.808  22.345  0.00  0.00    +0.156 A 
ATOM     25  N   UNK A   0       7.327   5.030  21.797  0.00  0.00    -0.338 N 
ATOM     26  H   UNK A   0       8.246   5.317  21.478  0.00  0.00    +0.144 HD
ATOM     27  H   UNK A   0       6.562   5.340  21.211  0.00  0.00    +0.144 HD
ATOM     28  S   UNK A   0       5.755   2.992  22.509  0.00  0.00    -0.060 S 
ATOM     29  C   UNK A   0       6.567   1.656  23.206  0.00  0.00    +0.078 A 
ENDBRANCH  20  22
BRANCH  21  30
ATOM     30  O   UNK A   0      10.466   0.436  25.400  0.00  0.00    -0.409 OA
ATOM     31  H   UNK A   0      11.266   0.643  24.875  0.00  0.00    +0.328 HD
ENDBRANCH  21  30
ENDBRANCH   3  20
TORSDOF 7
ENDMDL
MODEL 5
REMARK VINA RESULT:      -6.9      2.587      3.452
REMARK  Name = 
REMARK  7 active torsions:
REMARK  status: ('A' for Active; 'I' for Inactive)
REMARK    1  A    between atoms: CB_5  and  CG1_6
REMARK    2  A    between atoms: CA_8  and  C_26
REMARK    3  A    between atoms: CA_12  and  N_14
REMARK    4  A    between atoms: C_15  and  C_17
REMARK    5  A    between atoms: C_17  and  C_20
REMARK    6  A    between atoms: N_18  and  O_19
REMARK    7  A    between atoms: C_26  and  O_27
REMARK                            x       y       z     vdW  Elec       q    Type
REMARK                         _______ _______ _______ _____ _____    ______ ____
ROOT
ATOM      1  N   UNK A   1       8.461  -3.320  25.156  0.00  0.00    -0.296 N 
ATOM      2  H   UNK A   1       7.579  -3.047  24.716  0.00  0.00    +0.150 HD
ATOM      3  C   UNK A   0       8.509  -4.605  25.626  0.00  0.00    +0.268 C 
ATOM      4  O   UNK A   0       9.534  -5.143  26.025  0.00  0.00    -0.268 OA
ENDROOT
BRANCH   1   6
ATOM      5  C   UNK A   1       9.824  -1.659  23.718  0.00  0.00    +0.169 C 
ATOM      6  C   UNK A   1       9.651  -2.433  25.062  0.00  0.00    +0.191 C 
ATOM      7  C   UNK A   1       9.429  -1.003  25.659  0.00  0.00    +0.244 C 
ATOM      8  O   UNK A   1       9.191  -0.498  26.732  0.00  0.00    -0.273 OA
ATOM      9  N   UNK A   2       9.378  -0.471  24.420  0.00  0.00    -0.249 N 
ATOM     10  C   UNK A   2       9.023   0.710  23.820  0.00  0.00    +0.126 C 
ATOM     11  C   UNK A   2       8.753   0.727  22.479  0.00  0.00    -0.010 C 
ATOM     12  C   UNK A   2       8.812  -0.505  21.580  0.00  0.00    +0.108 C 
ATOM     13  S   UNK A   2       8.626  -2.082  22.434  0.00  0.00    -0.131 S 
BRANCH  10  14
ATOM     14  C   UNK A   2       8.952   1.990  24.635  0.00  0.00    +0.352 C 
ATOM     15  O   UNK A   2       9.646   2.972  24.407  0.00  0.00    -0.244 OA
BRANCH  14  16
ATOM     16  O   UNK A   2       8.091   2.020  25.668  0.00  0.00    -0.476 OA
ATOM     17  H   UNK A   2       7.888   2.883  26.089  0.00  0.00    +0.295 HD
ENDBRANCH  14  16
ENDBRANCH  10  14
BRANCH  11  18
ATOM     18  C   UNK A   2       8.270   1.913  21.756  0.00  0.00    -0.001 C 
ATOM     19  C   UNK A   2       7.037   2.437  21.827  0.00  0.00    +0.009 C 
ENDBRANCH  11  18
ENDBRANCH   1   6
BRANCH   3  20
ATOM     20  C   UNK A   0       7.164  -5.345  25.676  0.00  0.00    +0.190 C 
ATOM     21  N   UNK A   0       6.722  -5.997  26.720  0.00  0.00    -0.080 NA
BRANCH  20  22
ATOM     22  C   UNK A   0       6.313  -5.374  24.483  0.00  0.00    +0.107 A 
ATOM     23  N   UNK A   0       6.858  -5.399  23.197  0.00  0.00    -0.223 NA
ATOM     24  C   UNK A   0       5.913  -5.418  22.294  0.00  0.00    +0.156 A 
ATOM     25  N   UNK A   0       6.157  -5.468  20.976  0.00  0.00    -0.338 N 
ATOM     26  H   UNK A   0       7.089  -5.767  20.710  0.00  0.00    +0.144 HD
ATOM     27  H   UNK A   0       5.420  -5.795  20.363  0.00  0.00    +0.144 HD
ATOM     28  S   UNK A   0       4.312  -5.389  22.905  0.00  0.00    -0.060 S 
ATOM     29  C   UNK A   0       4.929  -5.354  24.501  0.00  0.00    +0.078 A 
ENDBRANCH  20  22
BRANCH  21  30
ATOM     30  O   UNK A   0       7.565  -5.959  27.831  0.00  0.00    -0.409 OA
ATOM     31  H   UNK A   0       8.107  -6.764  27.706  0.00  0.00    +0.328 HD
ENDBRANCH  21  30
ENDBRANCH   3  20
TORSDOF 7
ENDMDL
MODEL 6
REMARK VINA RESULT:      -6.9      2.999      3.821
REMARK  Name = 
REMARK  7 active torsions:
REMARK  status: ('A' for Active; 'I' for Inactive)
REMARK    1  A    between atoms: CB_5  and  CG1_6
REMARK    2  A    between atoms: CA_8  and  C_26
REMARK    3  A    between atoms: CA_12  and  N_14
REMARK    4  A    between atoms: C_15  and  C_17
REMARK    5  A    between atoms: C_17  and  C_20
REMARK    6  A    between atoms: N_18  and  O_19
REMARK    7  A    between atoms: C_26  and  O_27
REMARK                            x       y       z     vdW  Elec       q    Type
REMARK                         _______ _______ _______ _____ _____    ______ ____
ROOT
ATOM      1  N   UNK A   1       7.328  -3.583  25.724  0.00  0.00    -0.296 N 
ATOM      2  H   UNK A   1       6.699  -3.324  24.961  0.00  0.00    +0.150 HD
ATOM      3  C   UNK A   0       6.823  -4.489  26.618  0.00  0.00    +0.268 C 
ATOM      4  O   UNK A   0       7.496  -5.029  27.488  0.00  0.00    -0.268 OA
ENDROOT
BRANCH   1   6
ATOM      5  C   UNK A   1       9.313  -2.731  24.304  0.00  0.00    +0.169 C 
ATOM      6  C   UNK A   1       8.753  -3.160  25.695  0.00  0.00    +0.191 C 
ATOM      7  C   UNK A   1       8.979  -1.655  26.060  0.00  0.00    +0.244 C 
ATOM      8  O   UNK A   1       8.826  -0.920  27.009  0.00  0.00    -0.273 OA
ATOM      9  N   UNK A   2       9.236  -1.360  24.769  0.00  0.00    -0.249 N 
ATOM     10  C   UNK A   2       9.370  -0.250  23.972  0.00  0.00    +0.126 C 
ATOM     11  C   UNK A   2       9.255  -0.381  22.615  0.00  0.00    -0.010 C 
ATOM     12  C   UNK A   2       8.974  -1.702  21.905  0.00  0.00    +0.108 C 
ATOM     13  S   UNK A   2       8.174  -2.959  22.920  0.00  0.00    -0.131 S 
BRANCH  10  14
ATOM     14  C   UNK A   2       9.664   1.104  24.592  0.00  0.00    +0.352 C 
ATOM     15  O   UNK A   2      10.733   1.685  24.464  0.00  0.00    -0.244 OA
BRANCH  14  16
ATOM     16  O   UNK A   2       8.694   1.671  25.333  0.00  0.00    -0.476 OA
ATOM     17  H   UNK A   2       8.329   2.537  25.052  0.00  0.00    +0.295 HD
ENDBRANCH  14  16
ENDBRANCH  10  14
BRANCH  11  18
ATOM     18  C   UNK A   2       9.282   0.752  21.678  0.00  0.00    -0.001 C 
ATOM     19  C   UNK A   2       8.262   1.577  21.402  0.00  0.00    +0.009 C 
ENDBRANCH  11  18
ENDBRANCH   1   6
BRANCH   3  20
ATOM     20  C   UNK A   0       5.317  -4.767  26.506  0.00  0.00    +0.190 C 
ATOM     21  N   UNK A   0       4.484  -4.716  27.512  0.00  0.00    -0.080 NA
BRANCH  20  22
ATOM     22  C   UNK A   0       4.750  -5.150  25.210  0.00  0.00    +0.107 A 
ATOM     23  N   UNK A   0       5.564  -5.542  24.144  0.00  0.00    -0.223 NA
ATOM     24  C   UNK A   0       4.842  -5.833  23.093  0.00  0.00    +0.156 A 
ATOM     25  N   UNK A   0       5.368  -6.262  21.936  0.00  0.00    -0.338 N 
ATOM     26  H   UNK A   0       6.317  -6.615  21.986  0.00  0.00    +0.144 HD
ATOM     27  H   UNK A   0       4.767  -6.761  21.292  0.00  0.00    +0.144 HD
ATOM     28  S   UNK A   0       3.149  -5.645  23.289  0.00  0.00    -0.060 S 
ATOM     29  C   UNK A   0       3.399  -5.141  24.906  0.00  0.00    +0.078 A 
ENDBRANCH  20  22
BRANCH  21  30
ATOM     30  O   UNK A   0       5.061  -4.361  28.731  0.00  0.00    -0.409 OA
ATOM     31  H   UNK A   0       4.417  -3.714  29.083  0.00  0.00    +0.328 HD
ENDBRANCH  21  30
ENDBRANCH   3  20
TORSDOF 7
ENDMDL
MODEL 7
REMARK VINA RESULT:      -6.9      2.448      7.032
REMARK  Name = 
REMARK  7 active torsions:
REMARK  status: ('A' for Active; 'I' for Inactive)
REMARK    1  A    between atoms: CB_5  and  CG1_6
REMARK    2  A    between atoms: CA_8  and  C_26
REMARK    3  A    between atoms: CA_12  and  N_14
REMARK    4  A    between atoms: C_15  and  C_17
REMARK    5  A    between atoms: C_17  and  C_20
REMARK    6  A    between atoms: N_18  and  O_19
REMARK    7  A    between atoms: C_26  and  O_27
REMARK                            x       y       z     vdW  Elec       q    Type
REMARK                         _______ _______ _______ _____ _____    ______ ____
ROOT
ATOM      1  N   UNK A   1       7.706  -2.308  22.900  0.00  0.00    -0.296 N 
ATOM      2  H   UNK A   1       7.037  -1.919  23.569  0.00  0.00    +0.150 HD
ATOM      3  C   UNK A   0       8.704  -1.457  22.506  0.00  0.00    +0.268 C 
ATOM      4  O   UNK A   0       9.674  -1.811  21.846  0.00  0.00    -0.268 OA
ENDROOT
BRANCH   1   6
ATOM      5  C   UNK A   1       7.806  -4.727  23.806  0.00  0.00    +0.169 C 
ATOM      6  C   UNK A   1       7.691  -3.761  22.586  0.00  0.00    +0.191 C 
ATOM      7  C   UNK A   1       6.255  -4.371  22.457  0.00  0.00    +0.244 C 
ATOM      8  O   UNK A   1       5.281  -4.252  21.749  0.00  0.00    -0.273 OA
ATOM      9  N   UNK A   2       6.390  -4.993  23.647  0.00  0.00    -0.249 N 
ATOM     10  C   UNK A   2       5.606  -5.651  24.560  0.00  0.00    +0.126 C 
ATOM     11  C   UNK A   2       6.057  -5.809  25.843  0.00  0.00    -0.010 C 
ATOM     12  C   UNK A   2       7.399  -5.286  26.346  0.00  0.00    +0.108 C 
ATOM     13  S   UNK A   2       8.090  -3.918  25.396  0.00  0.00    -0.131 S 
BRANCH  10  14
ATOM     14  C   UNK A   2       4.259  -6.217  24.145  0.00  0.00    +0.352 C 
ATOM     15  O   UNK A   2       3.229  -5.558  24.129  0.00  0.00    -0.244 OA
BRANCH  14  16
ATOM     16  O   UNK A   2       4.213  -7.517  23.800  0.00  0.00    -0.476 OA
ATOM     17  H   UNK A   2       4.375  -7.764  22.865  0.00  0.00    +0.295 HD
ENDBRANCH  14  16
ENDBRANCH  10  14
BRANCH  11  18
ATOM     18  C   UNK A   2       5.261  -6.409  26.923  0.00  0.00    -0.001 C 
ATOM     19  C   UNK A   2       4.607  -5.745  27.889  0.00  0.00    +0.009 C 
ENDBRANCH  11  18
ENDBRANCH   1   6
BRANCH   3  20
ATOM     20  C   UNK A   0       8.517   0.015  22.901  0.00  0.00    +0.190 C 
ATOM     21  N   UNK A   0       8.660   1.020  22.076  0.00  0.00    -0.080 NA
BRANCH  20  22
ATOM     22  C   UNK A   0       8.193   0.353  24.289  0.00  0.00    +0.107 A 
ATOM     23  N   UNK A   0       8.792  -0.313  25.361  0.00  0.00    -0.223 NA
ATOM     24  C   UNK A   0       8.348   0.152  26.500  0.00  0.00    +0.156 A 
ATOM     25  N   UNK A   0       8.775  -0.293  27.692  0.00  0.00    -0.338 N 
ATOM     26  H   UNK A   0       9.648  -0.809  27.684  0.00  0.00    +0.144 HD
ATOM     27  H   UNK A   0       8.644   0.301  28.501  0.00  0.00    +0.144 HD
ATOM     28  S   UNK A   0       7.178   1.399  26.380  0.00  0.00    -0.060 S 
ATOM     29  C   UNK A   0       7.275   1.316  24.673  0.00  0.00    +0.078 A 
ENDBRANCH  20  22
BRANCH  21  30
ATOM     30  O   UNK A   0       8.982   0.661  20.767  0.00  0.00    -0.409 OA
ATOM     31  H   UNK A   0       8.098   0.564  20.357  0.00  0.00    +0.328 HD
ENDBRANCH  21  30
ENDBRANCH   3  20
TORSDOF 7
ENDMDL
MODEL 8
REMARK VINA RESULT:      -6.9      2.852      7.905
REMARK  Name = 
REMARK  7 active torsions:
REMARK  status: ('A' for Active; 'I' for Inactive)
REMARK    1  A    between atoms: CB_5  and  CG1_6
REMARK    2  A    between atoms: CA_8  and  C_26
REMARK    3  A    between atoms: CA_12  and  N_14
REMARK    4  A    between atoms: C_15  and  C_17
REMARK    5  A    between atoms: C_17  and  C_20
REMARK    6  A    between atoms: N_18  and  O_19
REMARK    7  A    between atoms: C_26  and  O_27
REMARK                            x       y       z     vdW  Elec       q    Type
REMARK                         _______ _______ _______ _____ _____    ______ ____
ROOT
ATOM      1  N   UNK A   1       8.271   0.232  24.720  0.00  0.00    -0.296 N 
ATOM      2  H   UNK A   1       7.322   0.388  25.067  0.00  0.00    +0.150 HD
ATOM      3  C   UNK A   0       8.696   1.111  23.759  0.00  0.00    +0.268 C 
ATOM      4  O   UNK A   0       9.852   1.171  23.360  0.00  0.00    -0.268 OA
ENDROOT
BRANCH   1   6
ATOM      5  C   UNK A   1       8.470  -1.772  26.340  0.00  0.00    +0.169 C 
ATOM      6  C   UNK A   1       9.167  -0.741  25.400  0.00  0.00    +0.191 C 
ATOM      7  C   UNK A   1       9.502  -2.006  24.542  0.00  0.00    +0.244 C 
ATOM      8  O   UNK A   1      10.068  -2.275  23.507  0.00  0.00    -0.273 OA
ATOM      9  N   UNK A   2       8.688  -2.765  25.306  0.00  0.00    -0.249 N 
ATOM     10  C   UNK A   2       8.116  -4.011  25.279  0.00  0.00    +0.126 C 
ATOM     11  C   UNK A   2       7.032  -4.270  26.072  0.00  0.00    -0.010 C 
ATOM     12  C   UNK A   2       6.391  -3.244  27.003  0.00  0.00    +0.108 C 
ATOM     13  S   UNK A   2       6.696  -1.522  26.567  0.00  0.00    -0.131 S 
BRANCH  10  14
ATOM     14  C   UNK A   2       8.695  -5.099  24.391  0.00  0.00    +0.352 C 
ATOM     15  O   UNK A   2       8.226  -5.399  23.302  0.00  0.00    -0.244 OA
BRANCH  14  16
ATOM     16  O   UNK A   2       9.766  -5.771  24.852  0.00  0.00    -0.476 OA
ATOM     17  H   UNK A   2       9.732  -6.151  25.756  0.00  0.00    +0.295 HD
ENDBRANCH  14  16
ENDBRANCH  10  14
BRANCH  11  18
ATOM     18  C   UNK A   2       6.283  -5.535  26.050  0.00  0.00    -0.001 C 
ATOM     19  C   UNK A   2       5.158  -5.778  25.361  0.00  0.00    +0.009 C 
ENDBRANCH  11  18
ENDBRANCH   1   6
BRANCH   3  20
ATOM     20  C   UNK A   0       7.608   2.011  23.154  0.00  0.00    +0.190 C 
ATOM     21  N   UNK A   0       6.492   1.567  22.636  0.00  0.00    -0.080 NA
BRANCH  20  22
ATOM     22  C   UNK A   0       7.817   3.461  23.106  0.00  0.00    +0.107 A 
ATOM     23  N   UNK A   0       7.258   4.245  22.094  0.00  0.00    -0.223 NA
ATOM     24  C   UNK A   0       7.580   5.502  22.251  0.00  0.00    +0.156 A 
ATOM     25  N   UNK A   0       7.157   6.478  21.434  0.00  0.00    -0.338 N 
ATOM     26  H   UNK A   0       6.360   6.249  20.849  0.00  0.00    +0.144 HD
ATOM     27  H   UNK A   0       7.169   7.430  21.776  0.00  0.00    +0.144 HD
ATOM     28  S   UNK A   0       8.582   5.841  23.601  0.00  0.00    -0.060 S 
ATOM     29  C   UNK A   0       8.581   4.178  24.010  0.00  0.00    +0.078 A 
ENDBRANCH  20  22
BRANCH  21  30
ATOM     30  O   UNK A   0       6.335   0.182  22.687  0.00  0.00    -0.409 OA
ATOM     31  H   UNK A   0       5.773   0.010  21.905  0.00  0.00    +0.328 HD
ENDBRANCH  21  30
ENDBRANCH   3  20
TORSDOF 7
ENDMDL
MODEL 9
REMARK VINA RESULT:      -6.8      3.143      3.682
REMARK  Name = 
REMARK  7 active torsions:
REMARK  status: ('A' for Active; 'I' for Inactive)
REMARK    1  A    between atoms: CB_5  and  CG1_6
REMARK    2  A    between atoms: CA_8  and  C_26
REMARK    3  A    between atoms: CA_12  and  N_14
REMARK    4  A    between atoms: C_15  and  C_17
REMARK    5  A    between atoms: C_17  and  C_20
REMARK    6  A    between atoms: N_18  and  O_19
REMARK    7  A    between atoms: C_26  and  O_27
REMARK                            x       y       z     vdW  Elec       q    Type
REMARK                         _______ _______ _______ _____ _____    ______ ____
ROOT
ATOM      1  N   UNK A   1       7.670  -2.681  25.139  0.00  0.00    -0.296 N 
ATOM      2  H   UNK A   1       7.792  -2.546  24.133  0.00  0.00    +0.150 HD
ATOM      3  C   UNK A   0       8.034  -3.913  25.614  0.00  0.00    +0.268 C 
ATOM      4  O   UNK A   0       8.109  -4.183  26.807  0.00  0.00    -0.268 OA
ENDROOT
BRANCH   1   6
ATOM      5  C   UNK A   1       8.302  -0.302  25.928  0.00  0.00    +0.169 C 
ATOM      6  C   UNK A   1       7.339  -1.526  26.014  0.00  0.00    +0.191 C 
ATOM      7  C   UNK A   1       6.298  -0.534  25.395  0.00  0.00    +0.244 C 
ATOM      8  O   UNK A   1       5.142  -0.540  25.039  0.00  0.00    -0.273 OA
ATOM      9  N   UNK A   2       7.270   0.375  25.167  0.00  0.00    -0.249 N 
ATOM     10  C   UNK A   2       7.445   1.543  24.470  0.00  0.00    +0.126 C 
ATOM     11  C   UNK A   2       8.712   1.970  24.181  0.00  0.00    -0.010 C 
ATOM     12  C   UNK A   2       9.978   1.217  24.582  0.00  0.00    +0.108 C 
ATOM     13  S   UNK A   2       9.755  -0.546  24.882  0.00  0.00    -0.131 S 
BRANCH  10  14
ATOM     14  C   UNK A   2       6.242   2.365  24.042  0.00  0.00    +0.352 C 
ATOM     15  O   UNK A   2       5.922   3.418  24.577  0.00  0.00    -0.244 OA
BRANCH  14  16
ATOM     16  O   UNK A   2       5.489   1.885  23.035  0.00  0.00    -0.476 OA
ATOM     17  H   UNK A   2       4.771   2.447  22.673  0.00  0.00    +0.295 HD
ENDBRANCH  14  16
ENDBRANCH  10  14
BRANCH  11  18
ATOM     18  C   UNK A   2       9.012   3.151  23.358  0.00  0.00    -0.001 C 
ATOM     19  C   UNK A   2       9.519   4.313  23.796  0.00  0.00    +0.009 C 
ENDBRANCH  11  18
ENDBRANCH   1   6
BRANCH   3  20
ATOM     20  C   UNK A   0       8.303  -4.984  24.548  0.00  0.00    +0.190 C 
ATOM     21  N   UNK A   0       9.409  -5.678  24.466  0.00  0.00    -0.080 NA
BRANCH  20  22
ATOM     22  C   UNK A   0       7.293  -5.246  23.518  0.00  0.00    +0.107 A 
ATOM     23  N   UNK A   0       5.997  -5.645  23.853  0.00  0.00    -0.223 NA
ATOM     24  C   UNK A   0       5.276  -5.824  22.777  0.00  0.00    +0.156 A 
ATOM     25  N   UNK A   0       3.984  -6.186  22.809  0.00  0.00    -0.338 N 
ATOM     26  H   UNK A   0       3.510  -6.052  23.696  0.00  0.00    +0.144 HD
ATOM     27  H   UNK A   0       3.414  -6.001  21.994  0.00  0.00    +0.144 HD
ATOM     28  S   UNK A   0       6.088  -5.547  21.293  0.00  0.00    -0.060 S 
ATOM     29  C   UNK A   0       7.514  -5.153  22.155  0.00  0.00    +0.078 A 
ENDBRANCH  20  22
BRANCH  21  30
ATOM     30  O   UNK A   0      10.352  -5.392  25.453  0.00  0.00    -0.409 OA
ATOM     31  H   UNK A   0      10.697  -4.524  25.163  0.00  0.00    +0.328 HD
ENDBRANCH  21  30
ENDBRANCH   3  20
TORSDOF 7
ENDMDL
