MODEL 1
REMARK VINA RESULT:      -7.5      0.000      0.000
REMARK  Name = 
REMARK  7 active torsions:
REMARK  status: ('A' for Active; 'I' for Inactive)
REMARK    1  A    between atoms: C_2  and  C_3
REMARK    2  A    between atoms: C_2  and  C_5
REMARK    3  A    between atoms: C_2  and  C_11
REMARK    4  A    between atoms: C_3  and  C_4
REMARK    5  A    between atoms: C_12  and  O_13
REMARK    6  A    between atoms: C_20  and  O_21
REMARK    7  A    between atoms: O_21  and  C_22
REMARK                            x       y       z     vdW  Elec       q    Type
REMARK                         _______ _______ _______ _____ _____    ______ ____
ROOT
ATOM      1  C   UNL     1       9.125   2.869  23.611  0.00  0.00    +0.086 A 
ATOM      2  C   UNL     1       8.602   2.397  24.924  0.00  0.00    +0.345 A 
ATOM      3  O   UNL     1       8.119   3.155  25.757  0.00  0.00    -0.245 OA
ATOM      4  O   UNL     1       8.686   1.036  25.202  0.00  0.00    -0.422 OA
ATOM      5  C   UNL     1       9.243   0.117  24.298  0.00  0.00    +0.146 A 
ATOM      6  C   UNL     1       9.270  -1.225  24.678  0.00  0.00    +0.092 A 
ATOM      7  C   UNL     1       9.810  -2.176  23.815  0.00  0.00    +0.124 A 
ATOM      8  C   UNL     1      10.312  -1.764  22.579  0.00  0.00    +0.046 A 
ATOM      9  C   UNL     1      10.273  -0.410  22.213  0.00  0.00    +0.019 A 
ATOM     10  C   UNL     1       9.743   0.549  23.080  0.00  0.00    +0.059 A 
ATOM     11  C   UNL     1       9.671   1.974  22.768  0.00  0.00    +0.138 A 
ENDROOT
BRANCH   7  12
ATOM     12  O   UNL     1       9.789  -3.460  24.282  0.00  0.00    -0.495 OA
ATOM     13  C   UNL     1       8.554  -4.161  24.187  0.00  0.00    +0.277 C 
ENDBRANCH   7  12
BRANCH  11  14
ATOM     14  O   UNL     1      10.192   2.346  21.546  0.00  0.00    -0.506 OA
ATOM     15  H   UNL     1      10.931   2.951  21.744  0.00  0.00    +0.292 HD
ENDBRANCH  11  14
BRANCH   1  16
ATOM     16  C   UNL     1       8.998   4.349  23.238  0.00  0.00    +0.059 C 
BRANCH  16  17
ATOM     17  C   UNL     1      10.016   5.237  23.953  0.00  0.00    -0.040 A 
ATOM     18  C   UNL     1       9.640   6.137  24.959  0.00  0.00    +0.004 A 
ATOM     19  C   UNL     1      10.595   6.953  25.578  0.00  0.00    +0.000 A 
ATOM     20  C   UNL     1      11.931   6.886  25.193  0.00  0.00    +0.000 A 
ATOM     21  C   UNL     1      12.321   6.002  24.191  0.00  0.00    +0.000 A 
ATOM     22  C   UNL     1      11.371   5.180  23.579  0.00  0.00    +0.004 A 
ENDBRANCH  16  17
BRANCH  16  23
ATOM     23  C   UNL     1       7.558   4.917  23.290  0.00  0.00    +0.010 C 
ATOM     24  C   UNL     1       7.246   5.884  22.150  0.00  0.00    +0.005 C 
ENDBRANCH  16  23
ENDBRANCH   1  16
TORSDOF 5
ENDMDL
MODEL 2
REMARK VINA RESULT:      -6.7      2.790      8.661
REMARK  Name = 
REMARK  7 active torsions:
REMARK  status: ('A' for Active; 'I' for Inactive)
REMARK    1  A    between atoms: C_2  and  C_3
REMARK    2  A    between atoms: C_2  and  C_5
REMARK    3  A    between atoms: C_2  and  C_11
REMARK    4  A    between atoms: C_3  and  C_4
REMARK    5  A    between atoms: C_12  and  O_13
REMARK    6  A    between atoms: C_20  and  O_21
REMARK    7  A    between atoms: O_21  and  C_22
REMARK                            x       y       z     vdW  Elec       q    Type
REMARK                         _______ _______ _______ _____ _____    ______ ____
ROOT
ATOM      1  C   UNL     1       7.569  -3.382  23.587  0.00  0.00    +0.086 A 
ATOM      2  C   UNL     1       8.947  -3.644  24.087  0.00  0.00    +0.345 A 
ATOM      3  O   UNL     1       9.343  -4.764  24.388  0.00  0.00    -0.245 OA
ATOM      4  O   UNL     1       9.804  -2.555  24.222  0.00  0.00    -0.422 OA
ATOM      5  C   UNL     1       9.408  -1.244  23.909  0.00  0.00    +0.146 A 
ATOM      6  C   UNL     1      10.351  -0.229  24.076  0.00  0.00    +0.092 A 
ATOM      7  C   UNL     1      10.009   1.087  23.777  0.00  0.00    +0.124 A 
ATOM      8  C   UNL     1       8.722   1.365  23.311  0.00  0.00    +0.046 A 
ATOM      9  C   UNL     1       7.789   0.331  23.146  0.00  0.00    +0.019 A 
ATOM     10  C   UNL     1       8.124  -0.990  23.455  0.00  0.00    +0.059 A 
ATOM     11  C   UNL     1       7.205  -2.116  23.311  0.00  0.00    +0.138 A 
ENDROOT
BRANCH   7  12
ATOM     12  O   UNL     1      11.002   2.004  23.976  0.00  0.00    -0.495 OA
ATOM     13  C   UNL     1      10.796   3.305  23.436  0.00  0.00    +0.277 C 
ENDBRANCH   7  12
BRANCH  11  14
ATOM     14  O   UNL     1       5.938  -1.802  22.865  0.00  0.00    -0.506 OA
ATOM     15  H   UNL     1       5.339  -2.443  23.289  0.00  0.00    +0.292 HD
ENDBRANCH  11  14
BRANCH   1  16
ATOM     16  C   UNL     1       6.612  -4.557  23.366  0.00  0.00    +0.059 C 
BRANCH  16  17
ATOM     17  C   UNL     1       6.017  -5.099  24.665  0.00  0.00    -0.040 A 
ATOM     18  C   UNL     1       6.273  -4.501  25.906  0.00  0.00    +0.004 A 
ATOM     19  C   UNL     1       5.731  -5.036  27.080  0.00  0.00    +0.000 A 
ATOM     20  C   UNL     1       4.936  -6.178  27.030  0.00  0.00    +0.000 A 
ATOM     21  C   UNL     1       4.677  -6.789  25.806  0.00  0.00    +0.000 A 
ATOM     22  C   UNL     1       5.210  -6.251  24.632  0.00  0.00    +0.004 A 
ENDBRANCH  16  17
BRANCH  16  23
ATOM     23  C   UNL     1       7.149  -5.673  22.435  0.00  0.00    +0.010 C 
ATOM     24  C   UNL     1       6.390  -5.779  21.114  0.00  0.00    +0.005 C 
ENDBRANCH  16  23
ENDBRANCH   1  16
TORSDOF 5
ENDMDL
MODEL 3
REMARK VINA RESULT:      -6.7      2.097      7.980
REMARK  Name = 
REMARK  7 active torsions:
REMARK  status: ('A' for Active; 'I' for Inactive)
REMARK    1  A    between atoms: C_2  and  C_3
REMARK    2  A    between atoms: C_2  and  C_5
REMARK    3  A    between atoms: C_2  and  C_11
REMARK    4  A    between atoms: C_3  and  C_4
REMARK    5  A    between atoms: C_12  and  O_13
REMARK    6  A    between atoms: C_20  and  O_21
REMARK    7  A    between atoms: O_21  and  C_22
REMARK                            x       y       z     vdW  Elec       q    Type
REMARK                         _______ _______ _______ _____ _____    ______ ____
ROOT
ATOM      1  C   UNL     1       9.039  -2.234  24.096  0.00  0.00    +0.086 A 
ATOM      2  C   UNL     1       8.825  -1.542  25.397  0.00  0.00    +0.345 A 
ATOM      3  O   UNL     1       8.470  -2.131  26.412  0.00  0.00    -0.245 OA
ATOM      4  O   UNL     1       9.031  -0.166  25.440  0.00  0.00    -0.422 OA
ATOM      5  C   UNL     1       9.423   0.570  24.311  0.00  0.00    +0.146 A 
ATOM      6  C   UNL     1       9.606   1.944  24.469  0.00  0.00    +0.092 A 
ATOM      7  C   UNL     1       9.997   2.719  23.380  0.00  0.00    +0.124 A 
ATOM      8  C   UNL     1      10.201   2.100  22.145  0.00  0.00    +0.046 A 
ATOM      9  C   UNL     1      10.015   0.717  22.006  0.00  0.00    +0.019 A 
ATOM     10  C   UNL     1       9.612  -0.063  23.093  0.00  0.00    +0.059 A 
ATOM     11  C   UNL     1       9.396  -1.506  23.022  0.00  0.00    +0.138 A 
ENDROOT
BRANCH   7  12
ATOM     12  O   UNL     1      10.149   4.052  23.641  0.00  0.00    -0.495 OA
ATOM     13  C   UNL     1      11.452   4.598  23.467  0.00  0.00    +0.277 C 
ENDBRANCH   7  12
BRANCH  11  14
ATOM     14  O   UNL     1       9.590  -2.080  21.783  0.00  0.00    -0.506 OA
ATOM     15  H   UNL     1      10.462  -1.768  21.477  0.00  0.00    +0.292 HD
ENDBRANCH  11  14
BRANCH   1  16
ATOM     16  C   UNL     1       8.883  -3.755  24.017  0.00  0.00    +0.059 C 
BRANCH  16  17
ATOM     17  C   UNL     1       7.489  -4.193  23.569  0.00  0.00    -0.040 A 
ATOM     18  C   UNL     1       6.330  -3.525  23.987  0.00  0.00    +0.004 A 
ATOM     19  C   UNL     1       5.066  -3.966  23.577  0.00  0.00    +0.000 A 
ATOM     20  C   UNL     1       4.945  -5.082  22.754  0.00  0.00    +0.000 A 
ATOM     21  C   UNL     1       6.086  -5.761  22.334  0.00  0.00    +0.000 A 
ATOM     22  C   UNL     1       7.348  -5.317  22.735  0.00  0.00    +0.004 A 
ENDBRANCH  16  17
BRANCH  16  23
ATOM     23  C   UNL     1       9.391  -4.532  25.257  0.00  0.00    +0.010 C 
ATOM     24  C   UNL     1       8.322  -5.410  25.903  0.00  0.00    +0.005 C 
ENDBRANCH  16  23
ENDBRANCH   1  16
TORSDOF 5
ENDMDL
MODEL 4
REMARK VINA RESULT:      -6.4      2.158      7.679
REMARK  Name = 
REMARK  7 active torsions:
REMARK  status: ('A' for Active; 'I' for Inactive)
REMARK    1  A    between atoms: C_2  and  C_3
REMARK    2  A    between atoms: C_2  and  C_5
REMARK    3  A    between atoms: C_2  and  C_11
REMARK    4  A    between atoms: C_3  and  C_4
REMARK    5  A    between atoms: C_12  and  O_13
REMARK    6  A    between atoms: C_20  and  O_21
REMARK    7  A    between atoms: O_21  and  C_22
REMARK                            x       y       z     vdW  Elec       q    Type
REMARK                         _______ _______ _______ _____ _____    ______ ____
ROOT
ATOM      1  C   UNL     1       8.092  -1.324  23.562  0.00  0.00    +0.086 A 
ATOM      2  C   UNL     1       9.571  -1.482  23.645  0.00  0.00    +0.345 A 
ATOM      3  O   UNL     1      10.120  -2.576  23.704  0.00  0.00    -0.245 OA
ATOM      4  O   UNL     1      10.344  -0.325  23.668  0.00  0.00    -0.422 OA
ATOM      5  C   UNL     1       9.777   0.959  23.621  0.00  0.00    +0.146 A 
ATOM      6  C   UNL     1      10.648   2.050  23.644  0.00  0.00    +0.092 A 
ATOM      7  C   UNL     1      10.136   3.344  23.596  0.00  0.00    +0.124 A 
ATOM      8  C   UNL     1       8.753   3.524  23.522  0.00  0.00    +0.046 A 
ATOM      9  C   UNL     1       7.893   2.415  23.496  0.00  0.00    +0.019 A 
ATOM     10  C   UNL     1       8.402   1.115  23.556  0.00  0.00    +0.059 A 
ATOM     11  C   UNL     1       7.570  -0.084  23.536  0.00  0.00    +0.138 A 
ENDROOT
BRANCH   7  12
ATOM     12  O   UNL     1      11.071   4.339  23.624  0.00  0.00    -0.495 OA
ATOM     13  C   UNL     1      10.588   5.674  23.736  0.00  0.00    +0.277 C 
ENDBRANCH   7  12
BRANCH  11  14
ATOM     14  O   UNL     1       6.209   0.132  23.480  0.00  0.00    -0.506 OA
ATOM     15  H   UNL     1       5.801  -0.749  23.401  0.00  0.00    +0.292 HD
ENDBRANCH  11  14
BRANCH   1  16
ATOM     16  C   UNL     1       7.206  -2.570  23.473  0.00  0.00    +0.059 C 
BRANCH  16  17
ATOM     17  C   UNL     1       7.228  -3.413  24.747  0.00  0.00    -0.040 A 
ATOM     18  C   UNL     1       7.880  -4.652  24.809  0.00  0.00    +0.004 A 
ATOM     19  C   UNL     1       7.860  -5.410  25.986  0.00  0.00    +0.000 A 
ATOM     20  C   UNL     1       7.182  -4.945  27.109  0.00  0.00    +0.000 A 
ATOM     21  C   UNL     1       6.523  -3.720  27.063  0.00  0.00    +0.000 A 
ATOM     22  C   UNL     1       6.549  -2.957  25.893  0.00  0.00    +0.004 A 
ENDBRANCH  16  17
BRANCH  16  23
ATOM     23  C   UNL     1       7.388  -3.413  22.187  0.00  0.00    +0.010 C 
ATOM     24  C   UNL     1       6.070  -3.889  21.581  0.00  0.00    +0.005 C 
ENDBRANCH  16  23
ENDBRANCH   1  16
TORSDOF 5
ENDMDL
MODEL 5
REMARK VINA RESULT:      -6.3      2.075      7.946
REMARK  Name = 
REMARK  7 active torsions:
REMARK  status: ('A' for Active; 'I' for Inactive)
REMARK    1  A    between atoms: C_2  and  C_3
REMARK    2  A    between atoms: C_2  and  C_5
REMARK    3  A    between atoms: C_2  and  C_11
REMARK    4  A    between atoms: C_3  and  C_4
REMARK    5  A    between atoms: C_12  and  O_13
REMARK    6  A    between atoms: C_20  and  O_21
REMARK    7  A    between atoms: O_21  and  C_22
REMARK                            x       y       z     vdW  Elec       q    Type
REMARK                         _______ _______ _______ _____ _____    ______ ____
ROOT
ATOM      1  C   UNL     1       9.097  -1.649  24.088  0.00  0.00    +0.086 A 
ATOM      2  C   UNL     1      10.147  -1.279  23.099  0.00  0.00    +0.345 A 
ATOM      3  O   UNL     1      10.775  -2.111  22.453  0.00  0.00    -0.245 OA
ATOM      4  O   UNL     1      10.423   0.074  22.923  0.00  0.00    -0.422 OA
ATOM      5  C   UNL     1       9.752   1.077  23.643  0.00  0.00    +0.146 A 
ATOM      6  C   UNL     1      10.104   2.402  23.382  0.00  0.00    +0.092 A 
ATOM      7  C   UNL     1       9.467   3.433  24.067  0.00  0.00    +0.124 A 
ATOM      8  C   UNL     1       8.481   3.117  25.004  0.00  0.00    +0.046 A 
ATOM      9  C   UNL     1       8.138   1.780  25.250  0.00  0.00    +0.019 A 
ATOM     10  C   UNL     1       8.782   0.741  24.573  0.00  0.00    +0.059 A 
ATOM     11  C   UNL     1       8.480  -0.673  24.779  0.00  0.00    +0.138 A 
ENDROOT
BRANCH   7  12
ATOM     12  O   UNL     1       9.884   4.692  23.740  0.00  0.00    -0.495 OA
ATOM     13  C   UNL     1       9.520   5.743  24.628  0.00  0.00    +0.277 C 
ENDBRANCH   7  12
BRANCH  11  14
ATOM     14  O   UNL     1       7.514  -0.947  25.724  0.00  0.00    -0.506 OA
ATOM     15  H   UNL     1       7.022  -0.116  25.853  0.00  0.00    +0.292 HD
ENDBRANCH  11  14
BRANCH   1  16
ATOM     16  C   UNL     1       8.719  -3.122  24.269  0.00  0.00    +0.059 C 
BRANCH  16  17
ATOM     17  C   UNL     1       7.289  -3.432  23.829  0.00  0.00    -0.040 A 
ATOM     18  C   UNL     1       6.380  -4.092  24.667  0.00  0.00    +0.004 A 
ATOM     19  C   UNL     1       5.083  -4.381  24.224  0.00  0.00    +0.000 A 
ATOM     20  C   UNL     1       4.684  -4.025  22.939  0.00  0.00    +0.000 A 
ATOM     21  C   UNL     1       5.577  -3.375  22.091  0.00  0.00    +0.000 A 
ATOM     22  C   UNL     1       6.868  -3.077  22.534  0.00  0.00    +0.004 A 
ENDBRANCH  16  17
BRANCH  16  23
ATOM     23  C   UNL     1       9.071  -3.724  25.652  0.00  0.00    +0.010 C 
ATOM     24  C   UNL     1       9.805  -5.059  25.564  0.00  0.00    +0.005 C 
ENDBRANCH  16  23
ENDBRANCH   1  16
TORSDOF 5
ENDMDL
MODEL 6
REMARK VINA RESULT:      -6.3      2.616      7.928
REMARK  Name = 
REMARK  7 active torsions:
REMARK  status: ('A' for Active; 'I' for Inactive)
REMARK    1  A    between atoms: C_2  and  C_3
REMARK    2  A    between atoms: C_2  and  C_5
REMARK    3  A    between atoms: C_2  and  C_11
REMARK    4  A    between atoms: C_3  and  C_4
REMARK    5  A    between atoms: C_12  and  O_13
REMARK    6  A    between atoms: C_20  and  O_21
REMARK    7  A    between atoms: O_21  and  C_22
REMARK                            x       y       z     vdW  Elec       q    Type
REMARK                         _______ _______ _______ _____ _____    ______ ____
ROOT
ATOM      1  C   UNL     1       7.248  -1.917  24.699  0.00  0.00    +0.086 A 
ATOM      2  C   UNL     1       8.368  -1.723  25.661  0.00  0.00    +0.345 A 
ATOM      3  O   UNL     1       8.512  -2.415  26.662  0.00  0.00    -0.245 OA
ATOM      4  O   UNL     1       9.274  -0.698  25.400  0.00  0.00    -0.422 OA
ATOM      5  C   UNL     1       9.158   0.140  24.280  0.00  0.00    +0.146 A 
ATOM      6  C   UNL     1      10.125   1.132  24.113  0.00  0.00    +0.092 A 
ATOM      7  C   UNL     1      10.056   1.988  23.017  0.00  0.00    +0.124 A 
ATOM      8  C   UNL     1       9.015   1.833  22.100  0.00  0.00    +0.046 A 
ATOM      9  C   UNL     1       8.053   0.828  22.282  0.00  0.00    +0.019 A 
ATOM     10  C   UNL     1       8.112  -0.026  23.387  0.00  0.00    +0.059 A 
ATOM     11  C   UNL     1       7.146  -1.091  23.642  0.00  0.00    +0.138 A 
ENDROOT
BRANCH   7  12
ATOM     12  O   UNL     1      11.051   2.922  22.947  0.00  0.00    -0.495 OA
ATOM     13  C   UNL     1      10.818   4.161  23.608  0.00  0.00    +0.277 C 
ENDBRANCH   7  12
BRANCH  11  14
ATOM     14  O   UNL     1       6.121  -1.203  22.725  0.00  0.00    -0.506 OA
ATOM     15  H   UNL     1       5.637  -2.014  22.964  0.00  0.00    +0.292 HD
ENDBRANCH  11  14
BRANCH   1  16
ATOM     16  C   UNL     1       6.264  -3.071  24.913  0.00  0.00    +0.059 C 
BRANCH  16  17
ATOM     17  C   UNL     1       6.390  -4.170  23.860  0.00  0.00    -0.040 A 
ATOM     18  C   UNL     1       7.628  -4.726  23.510  0.00  0.00    +0.004 A 
ATOM     19  C   UNL     1       7.711  -5.716  22.524  0.00  0.00    +0.000 A 
ATOM     20  C   UNL     1       6.563  -6.155  21.869  0.00  0.00    +0.000 A 
ATOM     21  C   UNL     1       5.326  -5.608  22.200  0.00  0.00    +0.000 A 
ATOM     22  C   UNL     1       5.240  -4.627  23.191  0.00  0.00    +0.004 A 
ENDBRANCH  16  17
BRANCH  16  23
ATOM     23  C   UNL     1       4.797  -2.643  25.168  0.00  0.00    +0.010 C 
ATOM     24  C   UNL     1       4.644  -1.658  26.324  0.00  0.00    +0.005 C 
ENDBRANCH  16  23
ENDBRANCH   1  16
TORSDOF 5
ENDMDL
MODEL 7
REMARK VINA RESULT:      -6.2      3.079      8.435
REMARK  Name = 
REMARK  7 active torsions:
REMARK  status: ('A' for Active; 'I' for Inactive)
REMARK    1  A    between atoms: C_2  and  C_3
REMARK    2  A    between atoms: C_2  and  C_5
REMARK    3  A    between atoms: C_2  and  C_11
REMARK    4  A    between atoms: C_3  and  C_4
REMARK    5  A    between atoms: C_12  and  O_13
REMARK    6  A    between atoms: C_20  and  O_21
REMARK    7  A    between atoms: O_21  and  C_22
REMARK                            x       y       z     vdW  Elec       q    Type
REMARK                         _______ _______ _______ _____ _____    ______ ____
ROOT
ATOM      1  C   UNL     1       8.488  -2.058  23.661  0.00  0.00    +0.086 A 
ATOM      2  C   UNL     1       9.579  -1.537  22.791  0.00  0.00    +0.345 A 
ATOM      3  O   UNL     1      10.557  -2.206  22.480  0.00  0.00    -0.245 OA
ATOM      4  O   UNL     1       9.470  -0.227  22.333  0.00  0.00    -0.422 OA
ATOM      5  C   UNL     1       8.383   0.598  22.666  0.00  0.00    +0.146 A 
ATOM      6  C   UNL     1       8.374   1.893  22.146  0.00  0.00    +0.092 A 
ATOM      7  C   UNL     1       7.317   2.749  22.445  0.00  0.00    +0.124 A 
ATOM      8  C   UNL     1       6.282   2.290  23.262  0.00  0.00    +0.046 A 
ATOM      9  C   UNL     1       6.307   0.984  23.773  0.00  0.00    +0.019 A 
ATOM     10  C   UNL     1       7.371   0.125  23.485  0.00  0.00    +0.059 A 
ATOM     11  C   UNL     1       7.466  -1.245  23.983  0.00  0.00    +0.138 A 
ENDROOT
BRANCH   7  12
ATOM     12  O   UNL     1       7.403   3.993  21.887  0.00  0.00    -0.495 OA
ATOM     13  C   UNL     1       6.825   5.069  22.619  0.00  0.00    +0.277 C 
ENDBRANCH   7  12
BRANCH  11  14
ATOM     14  O   UNL     1       6.434  -1.658  24.801  0.00  0.00    -0.506 OA
ATOM     15  H   UNL     1       5.785  -0.931  24.800  0.00  0.00    +0.292 HD
ENDBRANCH  11  14
BRANCH   1  16
ATOM     16  C   UNL     1       8.536  -3.513  24.138  0.00  0.00    +0.059 C 
BRANCH  16  17
ATOM     17  C   UNL     1       7.424  -4.376  23.544  0.00  0.00    -0.040 A 
ATOM     18  C   UNL     1       6.454  -4.993  24.344  0.00  0.00    +0.004 A 
ATOM     19  C   UNL     1       5.461  -5.796  23.769  0.00  0.00    +0.000 A 
ATOM     20  C   UNL     1       5.433  -6.000  22.392  0.00  0.00    +0.000 A 
ATOM     21  C   UNL     1       6.395  -5.400  21.583  0.00  0.00    +0.000 A 
ATOM     22  C   UNL     1       7.380  -4.590  22.154  0.00  0.00    +0.004 A 
ENDBRANCH  16  17
BRANCH  16  23
ATOM     23  C   UNL     1       8.692  -3.697  25.668  0.00  0.00    +0.010 C 
ATOM     24  C   UNL     1       9.579  -4.879  26.051  0.00  0.00    +0.005 C 
ENDBRANCH  16  23
ENDBRANCH   1  16
TORSDOF 5
ENDMDL
MODEL 8
REMARK VINA RESULT:      -6.1      2.809      8.341
REMARK  Name = 
REMARK  7 active torsions:
REMARK  status: ('A' for Active; 'I' for Inactive)
REMARK    1  A    between atoms: C_2  and  C_3
REMARK    2  A    between atoms: C_2  and  C_5
REMARK    3  A    between atoms: C_2  and  C_11
REMARK    4  A    between atoms: C_3  and  C_4
REMARK    5  A    between atoms: C_12  and  O_13
REMARK    6  A    between atoms: C_20  and  O_21
REMARK    7  A    between atoms: O_21  and  C_22
REMARK                            x       y       z     vdW  Elec       q    Type
REMARK                         _______ _______ _______ _____ _____    ______ ____
ROOT
ATOM      1  C   UNL     1       7.575  -1.974  23.982  0.00  0.00    +0.086 A 
ATOM      2  C   UNL     1       6.296  -1.359  24.433  0.00  0.00    +0.345 A 
ATOM      3  O   UNL     1       5.460  -1.969  25.090  0.00  0.00    -0.245 OA
ATOM      4  O   UNL     1       6.052  -0.036  24.074  0.00  0.00    -0.422 OA
ATOM      5  C   UNL     1       6.960   0.714  23.309  0.00  0.00    +0.146 A 
ATOM      6  C   UNL     1       6.616   2.033  23.011  0.00  0.00    +0.092 A 
ATOM      7  C   UNL     1       7.484   2.820  22.258  0.00  0.00    +0.124 A 
ATOM      8  C   UNL     1       8.689   2.270  21.817  0.00  0.00    +0.046 A 
ATOM      9  C   UNL     1       9.019   0.943  22.129  0.00  0.00    +0.019 A 
ATOM     10  C   UNL     1       8.146   0.146  22.875  0.00  0.00    +0.059 A 
ATOM     11  C   UNL     1       8.422  -1.242  23.235  0.00  0.00    +0.138 A 
ENDROOT
BRANCH   7  12
ATOM     12  O   UNL     1       7.054   4.096  22.023  0.00  0.00    -0.495 OA
ATOM     13  C   UNL     1       7.735   5.142  22.706  0.00  0.00    +0.277 C 
ENDBRANCH   7  12
BRANCH  11  14
ATOM     14  O   UNL     1       9.613  -1.758  22.767  0.00  0.00    -0.506 OA
ATOM     15  H   UNL     1      10.063  -1.021  22.314  0.00  0.00    +0.292 HD
ENDBRANCH  11  14
BRANCH   1  16
ATOM     16  C   UNL     1       7.911  -3.407  24.406  0.00  0.00    +0.059 C 
BRANCH  16  17
ATOM     17  C   UNL     1       7.139  -4.463  23.616  0.00  0.00    -0.040 A 
ATOM     18  C   UNL     1       6.104  -5.212  24.191  0.00  0.00    +0.004 A 
ATOM     19  C   UNL     1       5.432  -6.188  23.446  0.00  0.00    +0.000 A 
ATOM     20  C   UNL     1       5.792  -6.434  22.123  0.00  0.00    +0.000 A 
ATOM     21  C   UNL     1       6.823  -5.704  21.539  0.00  0.00    +0.000 A 
ATOM     22  C   UNL     1       7.489  -4.723  22.278  0.00  0.00    +0.004 A 
ENDBRANCH  16  17
BRANCH  16  23
ATOM     23  C   UNL     1       7.892  -3.660  25.933  0.00  0.00    +0.010 C 
ATOM     24  C   UNL     1       9.004  -4.593  26.408  0.00  0.00    +0.005 C 
ENDBRANCH  16  23
ENDBRANCH   1  16
TORSDOF 5
ENDMDL
MODEL 9
REMARK VINA RESULT:      -6.1      1.975      3.845
REMARK  Name = 
REMARK  7 active torsions:
REMARK  status: ('A' for Active; 'I' for Inactive)
REMARK    1  A    between atoms: C_2  and  C_3
REMARK    2  A    between atoms: C_2  and  C_5
REMARK    3  A    between atoms: C_2  and  C_11
REMARK    4  A    between atoms: C_3  and  C_4
REMARK    5  A    between atoms: C_12  and  O_13
REMARK    6  A    between atoms: C_20  and  O_21
REMARK    7  A    between atoms: O_21  and  C_22
REMARK                            x       y       z     vdW  Elec       q    Type
REMARK                         _______ _______ _______ _____ _____    ______ ____
ROOT
ATOM      1  C   UNL     1       9.278   0.703  23.608  0.00  0.00    +0.086 A 
ATOM      2  C   UNL     1       8.965   0.281  22.215  0.00  0.00    +0.345 A 
ATOM      3  O   UNL     1       9.011   1.050  21.261  0.00  0.00    -0.245 OA
ATOM      4  O   UNL     1       8.594  -1.044  22.009  0.00  0.00    -0.422 OA
ATOM      5  C   UNL     1       8.505  -1.972  23.059  0.00  0.00    +0.146 A 
ATOM      6  C   UNL     1       8.129  -3.276  22.737  0.00  0.00    +0.092 A 
ATOM      7  C   UNL     1       8.029  -4.235  23.743  0.00  0.00    +0.124 A 
ATOM      8  C   UNL     1       8.313  -3.868  25.060  0.00  0.00    +0.046 A 
ATOM      9  C   UNL     1       8.693  -2.552  25.364  0.00  0.00    +0.019 A 
ATOM     10  C   UNL     1       8.783  -1.585  24.360  0.00  0.00    +0.059 A 
ATOM     11  C   UNL     1       9.170  -0.197  24.602  0.00  0.00    +0.138 A 
ENDROOT
BRANCH   7  12
ATOM     12  O   UNL     1       7.654  -5.480  23.323  0.00  0.00    -0.495 OA
ATOM     13  C   UNL     1       7.176  -5.592  21.987  0.00  0.00    +0.277 C 
ENDBRANCH   7  12
BRANCH  11  14
ATOM     14  O   UNL     1       9.425   0.133  25.917  0.00  0.00    -0.506 OA
ATOM     15  H   UNL     1       9.042  -0.586  26.452  0.00  0.00    +0.292 HD
ENDBRANCH  11  14
BRANCH   1  16
ATOM     16  C   UNL     1       9.750   2.136  23.873  0.00  0.00    +0.059 C 
BRANCH  16  17
ATOM     17  C   UNL     1       8.597   3.125  24.039  0.00  0.00    -0.040 A 
ATOM     18  C   UNL     1       7.945   3.699  22.940  0.00  0.00    +0.004 A 
ATOM     19  C   UNL     1       6.907   4.620  23.128  0.00  0.00    +0.000 A 
ATOM     20  C   UNL     1       6.516   4.986  24.414  0.00  0.00    +0.000 A 
ATOM     21  C   UNL     1       7.159   4.430  25.517  0.00  0.00    +0.000 A 
ATOM     22  C   UNL     1       8.188   3.504  25.331  0.00  0.00    +0.004 A 
ENDBRANCH  16  17
BRANCH  16  23
ATOM     23  C   UNL     1      10.854   2.650  22.916  0.00  0.00    +0.010 C 
ATOM     24  C   UNL     1      11.504   3.951  23.383  0.00  0.00    +0.005 C 
ENDBRANCH  16  23
ENDBRANCH   1  16
TORSDOF 5
ENDMDL
