MODEL 1
REMARK VINA RESULT:      -5.6      0.000      0.000
REMARK  Name = 
REMARK  10 active torsions:
REMARK  status: ('A' for Active; 'I' for Inactive)
REMARK    1  A    between atoms: C_2  and  N_3
REMARK    2  A    between atoms: C_2  and  C_11
REMARK    3  A    between atoms: C_2  and  C_14
REMARK    4  A    between atoms: C_4  and  O_6
REMARK    5  A    between atoms: O_6  and  C_7
REMARK    6  A    between atoms: C_7  and  C_8
REMARK    7  A    between atoms: C_7  and  C_9
REMARK    8  A    between atoms: C_7  and  C_10
REMARK    9  A    between atoms: C_11  and  C_12
REMARK   10  A    between atoms: C_11  and  C_13
REMARK                            x       y       z     vdW  Elec       q    Type
REMARK                         _______ _______ _______ _____ _____    ______ ____
ROOT
ATOM      1  C   UNL     1       7.623  -4.618  24.005  0.00  0.00    +0.166 C 
ENDROOT
BRANCH   1   2
ATOM      2  C   UNL     1       7.098  -5.259  25.248  0.00  0.00    +0.237 A 
ATOM      3  O   UNL     1       5.747  -5.491  25.303  0.00  0.00    -0.425 OA
ATOM      4  C   UNL     1       5.614  -6.026  26.546  0.00  0.00    +0.332 A 
ATOM      5  N   UNL     1       6.748  -6.119  27.198  0.00  0.00    -0.116 NA
ATOM      6  N   UNL     1       7.721  -5.620  26.354  0.00  0.00    -0.111 NA
ENDBRANCH   1   2
BRANCH   1   7
ATOM      7  N   UNL     1       8.006  -3.237  24.271  0.00  0.00    -0.269 N 
ATOM      8  H   UNL     1       7.302  -2.517  24.387  0.00  0.00    +0.153 HD
ATOM      9  C   UNL     1       9.318  -2.893  24.394  0.00  0.00    +0.401 C 
ATOM     10  O   UNL     1      10.230  -3.700  24.284  0.00  0.00    -0.226 OA
BRANCH   9  11
ATOM     11  O   UNL     1       9.461  -1.573  24.650  0.00  0.00    -0.445 OA
BRANCH  11  12
ATOM     12  C   UNL     1       9.588  -0.660  23.519  0.00  0.00    +0.107 C 
ATOM     13  C   UNL     1      10.109  -1.390  22.270  0.00  0.00    +0.055 C 
ATOM     14  C   UNL     1      10.642   0.387  23.916  0.00  0.00    +0.055 C 
ATOM     15  C   UNL     1       8.266   0.075  23.253  0.00  0.00    +0.055 C 
ENDBRANCH  11  12
ENDBRANCH   9  11
ENDBRANCH   1   7
BRANCH   1  16
ATOM     16  C   UNL     1       6.625  -4.771  22.827  0.00  0.00    +0.012 C 
ATOM     17  C   UNL     1       7.082  -5.822  21.810  0.00  0.00    +0.009 C 
ATOM     18  C   UNL     1       6.328  -3.452  22.105  0.00  0.00    +0.009 C 
ENDBRANCH   1  16
TORSDOF 5
ENDMDL
MODEL 2
REMARK VINA RESULT:      -5.4      2.035      2.483
REMARK  Name = 
REMARK  10 active torsions:
REMARK  status: ('A' for Active; 'I' for Inactive)
REMARK    1  A    between atoms: C_2  and  N_3
REMARK    2  A    between atoms: C_2  and  C_11
REMARK    3  A    between atoms: C_2  and  C_14
REMARK    4  A    between atoms: C_4  and  O_6
REMARK    5  A    between atoms: O_6  and  C_7
REMARK    6  A    between atoms: C_7  and  C_8
REMARK    7  A    between atoms: C_7  and  C_9
REMARK    8  A    between atoms: C_7  and  C_10
REMARK    9  A    between atoms: C_11  and  C_12
REMARK   10  A    between atoms: C_11  and  C_13
REMARK                            x       y       z     vdW  Elec       q    Type
REMARK                         _______ _______ _______ _____ _____    ______ ____
ROOT
ATOM      1  C   UNL     1       8.020  -3.561  23.105  0.00  0.00    +0.166 C 
ENDROOT
BRANCH   1   2
ATOM      2  C   UNL     1       8.542  -3.986  24.439  0.00  0.00    +0.237 A 
ATOM      3  O   UNL     1       9.459  -5.007  24.449  0.00  0.00    -0.425 OA
ATOM      4  C   UNL     1       9.680  -5.158  25.782  0.00  0.00    +0.332 A 
ATOM      5  N   UNL     1       8.984  -4.331  26.524  0.00  0.00    -0.116 NA
ATOM      6  N   UNL     1       8.240  -3.562  25.651  0.00  0.00    -0.111 NA
ENDBRANCH   1   2
BRANCH   1   7
ATOM      7  N   UNL     1       7.838  -2.115  23.071  0.00  0.00    -0.269 N 
ATOM      8  H   UNL     1       7.087  -1.674  23.589  0.00  0.00    +0.153 HD
ATOM      9  C   UNL     1       8.691  -1.325  22.360  0.00  0.00    +0.401 C 
ATOM     10  O   UNL     1       9.632  -1.771  21.720  0.00  0.00    -0.226 OA
BRANCH   9  11
ATOM     11  O   UNL     1       8.358  -0.019  22.466  0.00  0.00    -0.445 OA
BRANCH  11  12
ATOM     12  C   UNL     1       9.304   0.884  23.113  0.00  0.00    +0.107 C 
ATOM     13  C   UNL     1      10.219   0.127  24.089  0.00  0.00    +0.055 C 
ATOM     14  C   UNL     1       8.469   1.877  23.937  0.00  0.00    +0.055 C 
ATOM     15  C   UNL     1      10.102   1.684  22.072  0.00  0.00    +0.055 C 
ENDBRANCH  11  12
ENDBRANCH   9  11
ENDBRANCH   1   7
BRANCH   1  16
ATOM     16  C   UNL     1       6.747  -4.357  22.717  0.00  0.00    +0.012 C 
ATOM     17  C   UNL     1       7.055  -5.525  21.774  0.00  0.00    +0.009 C 
ATOM     18  C   UNL     1       5.643  -3.484  22.111  0.00  0.00    +0.009 C 
ENDBRANCH   1  16
TORSDOF 5
ENDMDL
MODEL 3
REMARK VINA RESULT:      -5.3      2.982      3.993
REMARK  Name = 
REMARK  10 active torsions:
REMARK  status: ('A' for Active; 'I' for Inactive)
REMARK    1  A    between atoms: C_2  and  N_3
REMARK    2  A    between atoms: C_2  and  C_11
REMARK    3  A    between atoms: C_2  and  C_14
REMARK    4  A    between atoms: C_4  and  O_6
REMARK    5  A    between atoms: O_6  and  C_7
REMARK    6  A    between atoms: C_7  and  C_8
REMARK    7  A    between atoms: C_7  and  C_9
REMARK    8  A    between atoms: C_7  and  C_10
REMARK    9  A    between atoms: C_11  and  C_12
REMARK   10  A    between atoms: C_11  and  C_13
REMARK                            x       y       z     vdW  Elec       q    Type
REMARK                         _______ _______ _______ _____ _____    ______ ____
ROOT
ATOM      1  C   UNL     1       7.268  -2.775  23.437  0.00  0.00    +0.166 C 
ENDROOT
BRANCH   1   2
ATOM      2  C   UNL     1       6.809  -3.807  22.462  0.00  0.00    +0.237 A 
ATOM      3  O   UNL     1       7.460  -5.015  22.484  0.00  0.00    -0.425 OA
ATOM      4  C   UNL     1       6.836  -5.678  21.475  0.00  0.00    +0.332 A 
ATOM      5  N   UNL     1       5.902  -4.972  20.884  0.00  0.00    -0.116 NA
ATOM      6  N   UNL     1       5.880  -3.749  21.527  0.00  0.00    -0.111 NA
ENDBRANCH   1   2
BRANCH   1   7
ATOM      7  N   UNL     1       7.509  -1.508  22.757  0.00  0.00    -0.269 N 
ATOM      8  H   UNL     1       8.095  -1.466  21.932  0.00  0.00    +0.153 HD
ATOM      9  C   UNL     1       6.929  -0.359  23.204  0.00  0.00    +0.401 C 
ATOM     10  O   UNL     1       6.197  -0.323  24.183  0.00  0.00    -0.226 OA
BRANCH   9  11
ATOM     11  O   UNL     1       7.267   0.698  22.433  0.00  0.00    -0.445 OA
BRANCH  11  12
ATOM     12  C   UNL     1       8.500   1.413  22.743  0.00  0.00    +0.107 C 
ATOM     13  C   UNL     1       8.921   1.190  24.206  0.00  0.00    +0.055 C 
ATOM     14  C   UNL     1       8.195   2.910  22.573  0.00  0.00    +0.055 C 
ATOM     15  C   UNL     1       9.616   1.041  21.755  0.00  0.00    +0.055 C 
ENDBRANCH  11  12
ENDBRANCH   9  11
ENDBRANCH   1   7
BRANCH   1  16
ATOM     16  C   UNL     1       8.483  -3.277  24.262  0.00  0.00    +0.012 C 
ATOM     17  C   UNL     1       8.266  -3.120  25.771  0.00  0.00    +0.009 C 
ATOM     18  C   UNL     1       9.807  -2.619  23.861  0.00  0.00    +0.009 C 
ENDBRANCH   1  16
TORSDOF 5
ENDMDL
MODEL 4
REMARK VINA RESULT:      -5.2      2.221      2.714
REMARK  Name = 
REMARK  10 active torsions:
REMARK  status: ('A' for Active; 'I' for Inactive)
REMARK    1  A    between atoms: C_2  and  N_3
REMARK    2  A    between atoms: C_2  and  C_11
REMARK    3  A    between atoms: C_2  and  C_14
REMARK    4  A    between atoms: C_4  and  O_6
REMARK    5  A    between atoms: O_6  and  C_7
REMARK    6  A    between atoms: C_7  and  C_8
REMARK    7  A    between atoms: C_7  and  C_9
REMARK    8  A    between atoms: C_7  and  C_10
REMARK    9  A    between atoms: C_11  and  C_12
REMARK   10  A    between atoms: C_11  and  C_13
REMARK                            x       y       z     vdW  Elec       q    Type
REMARK                         _______ _______ _______ _____ _____    ______ ____
ROOT
ATOM      1  C   UNL     1       8.343  -2.600  23.630  0.00  0.00    +0.166 C 
ENDROOT
BRANCH   1   2
ATOM      2  C   UNL     1       8.812  -3.637  24.598  0.00  0.00    +0.237 A 
ATOM      3  O   UNL     1       8.005  -3.883  25.681  0.00  0.00    -0.425 OA
ATOM      4  C   UNL     1       8.730  -4.818  26.351  0.00  0.00    +0.332 A 
ATOM      5  N   UNL     1       9.861  -5.124  25.762  0.00  0.00    -0.116 NA
ATOM      6  N   UNL     1       9.918  -4.355  24.615  0.00  0.00    -0.111 NA
ENDBRANCH   1   2
BRANCH   1   7
ATOM      7  N   UNL     1       9.026  -1.336  23.875  0.00  0.00    -0.269 N 
ATOM      8  H   UNL     1       8.745  -0.735  24.642  0.00  0.00    +0.153 HD
ATOM      9  C   UNL     1      10.070  -0.948  23.091  0.00  0.00    +0.401 C 
ATOM     10  O   UNL     1      10.483  -1.618  22.156  0.00  0.00    -0.226 OA
BRANCH   9  11
ATOM     11  O   UNL     1      10.570   0.244  23.488  0.00  0.00    -0.445 OA
BRANCH  11  12
ATOM     12  C   UNL     1       9.790   1.446  23.212  0.00  0.00    +0.107 C 
ATOM     13  C   UNL     1       9.120   1.370  21.830  0.00  0.00    +0.055 C 
ATOM     14  C   UNL     1      10.785   2.617  23.180  0.00  0.00    +0.055 C 
ATOM     15  C   UNL     1       8.777   1.715  24.335  0.00  0.00    +0.055 C 
ENDBRANCH  11  12
ENDBRANCH   9  11
ENDBRANCH   1   7
BRANCH   1  16
ATOM     16  C   UNL     1       6.796  -2.483  23.633  0.00  0.00    +0.012 C 
ATOM     17  C   UNL     1       6.178  -2.916  22.300  0.00  0.00    +0.009 C 
ATOM     18  C   UNL     1       6.292  -1.085  24.004  0.00  0.00    +0.009 C 
ENDBRANCH   1  16
TORSDOF 5
ENDMDL
MODEL 5
REMARK VINA RESULT:      -4.9      3.084      6.442
REMARK  Name = 
REMARK  10 active torsions:
REMARK  status: ('A' for Active; 'I' for Inactive)
REMARK    1  A    between atoms: C_2  and  N_3
REMARK    2  A    between atoms: C_2  and  C_11
REMARK    3  A    between atoms: C_2  and  C_14
REMARK    4  A    between atoms: C_4  and  O_6
REMARK    5  A    between atoms: O_6  and  C_7
REMARK    6  A    between atoms: C_7  and  C_8
REMARK    7  A    between atoms: C_7  and  C_9
REMARK    8  A    between atoms: C_7  and  C_10
REMARK    9  A    between atoms: C_11  and  C_12
REMARK   10  A    between atoms: C_11  and  C_13
REMARK                            x       y       z     vdW  Elec       q    Type
REMARK                         _______ _______ _______ _____ _____    ______ ____
ROOT
ATOM      1  C   UNL     1       9.006   0.526  23.218  0.00  0.00    +0.166 C 
ENDROOT
BRANCH   1   2
ATOM      2  C   UNL     1       8.175   1.694  22.799  0.00  0.00    +0.237 A 
ATOM      3  O   UNL     1       7.914   2.643  23.754  0.00  0.00    -0.425 OA
ATOM      4  C   UNL     1       7.127   3.511  23.066  0.00  0.00    +0.332 A 
ATOM      5  N   UNL     1       6.915   3.151  21.822  0.00  0.00    -0.116 NA
ATOM      6  N   UNL     1       7.598   1.964  21.643  0.00  0.00    -0.111 NA
ENDBRANCH   1   2
BRANCH   1   7
ATOM      7  N   UNL     1       8.257  -0.714  23.050  0.00  0.00    -0.269 N 
ATOM      8  H   UNL     1       7.298  -0.788  23.369  0.00  0.00    +0.153 HD
ATOM      9  C   UNL     1       8.825  -1.790  22.437  0.00  0.00    +0.401 C 
ATOM     10  O   UNL     1       9.970  -1.782  22.009  0.00  0.00    -0.226 OA
BRANCH   9  11
ATOM     11  O   UNL     1       7.965  -2.831  22.370  0.00  0.00    -0.445 OA
BRANCH  11  12
ATOM     12  C   UNL     1       7.821  -3.683  23.545  0.00  0.00    +0.107 C 
ATOM     13  C   UNL     1       9.117  -3.717  24.372  0.00  0.00    +0.055 C 
ATOM     14  C   UNL     1       7.567  -5.108  23.026  0.00  0.00    +0.055 C 
ATOM     15  C   UNL     1       6.607  -3.261  24.386  0.00  0.00    +0.055 C 
ENDBRANCH  11  12
ENDBRANCH   9  11
ENDBRANCH   1   7
BRANCH   1  16
ATOM     16  C   UNL     1       9.573   0.720  24.649  0.00  0.00    +0.012 C 
ATOM     17  C   UNL     1      11.100   0.604  24.690  0.00  0.00    +0.009 C 
ATOM     18  C   UNL     1       8.956  -0.228  25.683  0.00  0.00    +0.009 C 
ENDBRANCH   1  16
TORSDOF 5
ENDMDL
MODEL 6
REMARK VINA RESULT:      -4.9      2.021      3.060
REMARK  Name = 
REMARK  10 active torsions:
REMARK  status: ('A' for Active; 'I' for Inactive)
REMARK    1  A    between atoms: C_2  and  N_3
REMARK    2  A    between atoms: C_2  and  C_11
REMARK    3  A    between atoms: C_2  and  C_14
REMARK    4  A    between atoms: C_4  and  O_6
REMARK    5  A    between atoms: O_6  and  C_7
REMARK    6  A    between atoms: C_7  and  C_8
REMARK    7  A    between atoms: C_7  and  C_9
REMARK    8  A    between atoms: C_7  and  C_10
REMARK    9  A    between atoms: C_11  and  C_12
REMARK   10  A    between atoms: C_11  and  C_13
REMARK                            x       y       z     vdW  Elec       q    Type
REMARK                         _______ _______ _______ _____ _____    ______ ____
ROOT
ATOM      1  C   UNL     1       7.660  -3.926  24.543  0.00  0.00    +0.166 C 
ENDROOT
BRANCH   1   2
ATOM      2  C   UNL     1       6.827  -4.413  23.403  0.00  0.00    +0.237 A 
ATOM      3  O   UNL     1       5.891  -5.376  23.687  0.00  0.00    -0.425 OA
ATOM      4  C   UNL     1       5.361  -5.609  22.457  0.00  0.00    +0.332 A 
ATOM      5  N   UNL     1       5.901  -4.880  21.509  0.00  0.00    -0.116 NA
ATOM      6  N   UNL     1       6.858  -4.097  22.123  0.00  0.00    -0.111 NA
ENDBRANCH   1   2
BRANCH   1   7
ATOM      7  N   UNL     1       8.636  -2.949  24.074  0.00  0.00    -0.269 N 
ATOM      8  H   UNL     1       9.114  -3.077  23.190  0.00  0.00    +0.153 HD
ATOM      9  C   UNL     1       8.905  -1.832  24.805  0.00  0.00    +0.401 C 
ATOM     10  O   UNL     1       8.363  -1.591  25.874  0.00  0.00    -0.226 OA
BRANCH   9  11
ATOM     11  O   UNL     1       9.826  -1.052  24.195  0.00  0.00    -0.445 OA
BRANCH  11  12
ATOM     12  C   UNL     1       9.377   0.191  23.578  0.00  0.00    +0.107 C 
ATOM     13  C   UNL     1      10.013   0.387  22.192  0.00  0.00    +0.055 C 
ATOM     14  C   UNL     1       9.874   1.333  24.480  0.00  0.00    +0.055 C 
ATOM     15  C   UNL     1       7.843   0.260  23.528  0.00  0.00    +0.055 C 
ENDBRANCH  11  12
ENDBRANCH   9  11
ENDBRANCH   1   7
BRANCH   1  16
ATOM     16  C   UNL     1       8.290  -5.106  25.328  0.00  0.00    +0.012 C 
ATOM     17  C   UNL     1       7.783  -5.182  26.772  0.00  0.00    +0.009 C 
ATOM     18  C   UNL     1       9.822  -5.095  25.320  0.00  0.00    +0.009 C 
ENDBRANCH   1  16
TORSDOF 5
ENDMDL
MODEL 7
REMARK VINA RESULT:      -4.9      2.785      5.610
REMARK  Name = 
REMARK  10 active torsions:
REMARK  status: ('A' for Active; 'I' for Inactive)
REMARK    1  A    between atoms: C_2  and  N_3
REMARK    2  A    between atoms: C_2  and  C_11
REMARK    3  A    between atoms: C_2  and  C_14
REMARK    4  A    between atoms: C_4  and  O_6
REMARK    5  A    between atoms: O_6  and  C_7
REMARK    6  A    between atoms: C_7  and  C_8
REMARK    7  A    between atoms: C_7  and  C_9
REMARK    8  A    between atoms: C_7  and  C_10
REMARK    9  A    between atoms: C_11  and  C_12
REMARK   10  A    between atoms: C_11  and  C_13
REMARK                            x       y       z     vdW  Elec       q    Type
REMARK                         _______ _______ _______ _____ _____    ______ ____
ROOT
ATOM      1  C   UNL     1       8.570   0.038  23.331  0.00  0.00    +0.166 C 
ENDROOT
BRANCH   1   2
ATOM      2  C   UNL     1       7.242   0.379  23.924  0.00  0.00    +0.237 A 
ATOM      3  O   UNL     1       6.887   1.704  23.931  0.00  0.00    -0.425 OA
ATOM      4  C   UNL     1       5.682   1.659  24.557  0.00  0.00    +0.332 A 
ATOM      5  N   UNL     1       5.319   0.448  24.907  0.00  0.00    -0.116 NA
ATOM      6  N   UNL     1       6.335  -0.392  24.494  0.00  0.00    -0.111 NA
ENDBRANCH   1   2
BRANCH   1   7
ATOM      7  N   UNL     1       9.076  -1.203  23.905  0.00  0.00    -0.269 N 
ATOM      8  H   UNL     1       9.506  -1.212  24.823  0.00  0.00    +0.153 HD
ATOM      9  C   UNL     1       8.959  -2.378  23.227  0.00  0.00    +0.401 C 
ATOM     10  O   UNL     1       8.441  -2.459  22.123  0.00  0.00    -0.226 OA
BRANCH   9  11
ATOM     11  O   UNL     1       9.478  -3.409  23.932  0.00  0.00    -0.445 OA
BRANCH  11  12
ATOM     12  C   UNL     1       8.557  -4.372  24.526  0.00  0.00    +0.107 C 
ATOM     13  C   UNL     1       7.549  -3.677  25.457  0.00  0.00    +0.055 C 
ATOM     14  C   UNL     1       9.408  -5.317  25.390  0.00  0.00    +0.055 C 
ATOM     15  C   UNL     1       7.864  -5.213  23.444  0.00  0.00    +0.055 C 
ENDBRANCH  11  12
ENDBRANCH   9  11
ENDBRANCH   1   7
BRANCH   1  16
ATOM     16  C   UNL     1       9.561   1.227  23.447  0.00  0.00    +0.012 C 
ATOM     17  C   UNL     1      10.026   1.731  22.077  0.00  0.00    +0.009 C 
ATOM     18  C   UNL     1      10.780   0.920  24.323  0.00  0.00    +0.009 C 
ENDBRANCH   1  16
TORSDOF 5
ENDMDL
MODEL 8
REMARK VINA RESULT:      -4.9      1.971      5.523
REMARK  Name = 
REMARK  10 active torsions:
REMARK  status: ('A' for Active; 'I' for Inactive)
REMARK    1  A    between atoms: C_2  and  N_3
REMARK    2  A    between atoms: C_2  and  C_11
REMARK    3  A    between atoms: C_2  and  C_14
REMARK    4  A    between atoms: C_4  and  O_6
REMARK    5  A    between atoms: O_6  and  C_7
REMARK    6  A    between atoms: C_7  and  C_8
REMARK    7  A    between atoms: C_7  and  C_9
REMARK    8  A    between atoms: C_7  and  C_10
REMARK    9  A    between atoms: C_11  and  C_12
REMARK   10  A    between atoms: C_11  and  C_13
REMARK                            x       y       z     vdW  Elec       q    Type
REMARK                         _______ _______ _______ _____ _____    ______ ____
ROOT
ATOM      1  C   UNL     1       8.782  -2.782  24.912  0.00  0.00    +0.166 C 
ENDROOT
BRANCH   1   2
ATOM      2  C   UNL     1       9.263  -2.192  23.627  0.00  0.00    +0.237 A 
ATOM      3  O   UNL     1       8.354  -1.468  22.898  0.00  0.00    -0.425 OA
ATOM      4  C   UNL     1       9.091  -1.126  21.808  0.00  0.00    +0.332 A 
ATOM      5  N   UNL     1      10.320  -1.582  21.845  0.00  0.00    -0.116 NA
ATOM      6  N   UNL     1      10.438  -2.278  23.032  0.00  0.00    -0.111 NA
ENDBRANCH   1   2
BRANCH   1   7
ATOM      7  N   UNL     1       7.562  -3.549  24.691  0.00  0.00    -0.269 N 
ATOM      8  H   UNL     1       6.652  -3.140  24.873  0.00  0.00    +0.153 HD
ATOM      9  C   UNL     1       7.620  -4.822  24.211  0.00  0.00    +0.401 C 
ATOM     10  O   UNL     1       8.673  -5.386  23.951  0.00  0.00    -0.226 OA
BRANCH   9  11
ATOM     11  O   UNL     1       6.385  -5.353  24.066  0.00  0.00    -0.445 OA
BRANCH  11  12
ATOM     12  C   UNL     1       5.735  -5.243  22.765  0.00  0.00    +0.107 C 
ATOM     13  C   UNL     1       5.625  -3.776  22.319  0.00  0.00    +0.055 C 
ATOM     14  C   UNL     1       4.306  -5.781  22.942  0.00  0.00    +0.055 C 
ATOM     15  C   UNL     1       6.444  -6.117  21.719  0.00  0.00    +0.055 C 
ENDBRANCH  11  12
ENDBRANCH   9  11
ENDBRANCH   1   7
BRANCH   1  16
ATOM     16  C   UNL     1       8.644  -1.698  26.014  0.00  0.00    +0.012 C 
ATOM     17  C   UNL     1       7.181  -1.388  26.345  0.00  0.00    +0.009 C 
ATOM     18  C   UNL     1       9.385  -0.398  25.686  0.00  0.00    +0.009 C 
ENDBRANCH   1  16
TORSDOF 5
ENDMDL
MODEL 9
REMARK VINA RESULT:      -4.6      3.003      5.987
REMARK  Name = 
REMARK  10 active torsions:
REMARK  status: ('A' for Active; 'I' for Inactive)
REMARK    1  A    between atoms: C_2  and  N_3
REMARK    2  A    between atoms: C_2  and  C_11
REMARK    3  A    between atoms: C_2  and  C_14
REMARK    4  A    between atoms: C_4  and  O_6
REMARK    5  A    between atoms: O_6  and  C_7
REMARK    6  A    between atoms: C_7  and  C_8
REMARK    7  A    between atoms: C_7  and  C_9
REMARK    8  A    between atoms: C_7  and  C_10
REMARK    9  A    between atoms: C_11  and  C_12
REMARK   10  A    between atoms: C_11  and  C_13
REMARK                            x       y       z     vdW  Elec       q    Type
REMARK                         _______ _______ _______ _____ _____    ______ ____
ROOT
ATOM      1  C   UNL     1       6.206  -5.011  24.357  0.00  0.00    +0.166 C 
ENDROOT
BRANCH   1   2
ATOM      2  C   UNL     1       6.507  -5.293  25.792  0.00  0.00    +0.237 A 
ATOM      3  O   UNL     1       5.519  -5.007  26.701  0.00  0.00    -0.425 OA
ATOM      4  C   UNL     1       6.125  -5.335  27.872  0.00  0.00    +0.332 A 
ATOM      5  N   UNL     1       7.352  -5.774  27.721  0.00  0.00    -0.116 NA
ATOM      6  N   UNL     1       7.606  -5.749  26.363  0.00  0.00    -0.111 NA
ENDBRANCH   1   2
BRANCH   1   7
ATOM      7  N   UNL     1       5.198  -5.939  23.860  0.00  0.00    -0.269 N 
ATOM      8  H   UNL     1       5.297  -6.938  24.003  0.00  0.00    +0.153 HD
ATOM      9  C   UNL     1       4.089  -5.480  23.215  0.00  0.00    +0.401 C 
ATOM     10  O   UNL     1       3.883  -4.292  23.014  0.00  0.00    -0.226 OA
BRANCH   9  11
ATOM     11  O   UNL     1       3.276  -6.494  22.846  0.00  0.00    -0.445 OA
BRANCH  11  12
ATOM     12  C   UNL     1       2.029  -6.680  23.578  0.00  0.00    +0.107 C 
ATOM     13  C   UNL     1       1.558  -8.143  23.514  0.00  0.00    +0.055 C 
ATOM     14  C   UNL     1       0.969  -5.823  22.866  0.00  0.00    +0.055 C 
ATOM     15  C   UNL     1       2.157  -6.174  25.023  0.00  0.00    +0.055 C 
ENDBRANCH  11  12
ENDBRANCH   9  11
ENDBRANCH   1   7
BRANCH   1  16
ATOM     16  C   UNL     1       7.501  -4.984  23.502  0.00  0.00    +0.012 C 
ATOM     17  C   UNL     1       7.887  -3.564  23.076  0.00  0.00    +0.009 C 
ATOM     18  C   UNL     1       7.437  -5.892  22.270  0.00  0.00    +0.009 C 
ENDBRANCH   1  16
TORSDOF 5
ENDMDL
