MODEL 1
REMARK VINA RESULT:      -6.2      0.000      0.000
REMARK  Name = 
REMARK  8 active torsions:
REMARK  status: ('A' for Active; 'I' for Inactive)
REMARK    1  A    between atoms: N_6  and  C_7
REMARK    2  A    between atoms: C_7  and  C_8
REMARK    3  A    between atoms: C_8  and  N_9
REMARK    4  A    between atoms: N_9  and  CA_10
REMARK    5  A    between atoms: CA_10  and  CB_11
REMARK    6  A    between atoms: CA_10  and  C_13
REMARK    7  A    between atoms: CB_11  and  OG_12
REMARK    8  A    between atoms: C_13  and  O_14
REMARK                            x       y       z     vdW  Elec       q    Type
REMARK                         _______ _______ _______ _____ _____    ______ ____
ROOT
ATOM      1  N   UNL     1      11.293   3.886  22.895  0.00  0.00    -0.329 N 
ATOM      2  H   UNL     1      11.728   4.101  22.010  0.00  0.00    +0.145 HD
ATOM      3  H   UNL     1      11.889   4.088  23.693  0.00  0.00    +0.145 HD
ATOM      4  C   UNL     1      10.669   2.685  23.023  0.00  0.00    +0.195 A 
ATOM      5  N   UNL     1      10.062   2.203  21.890  0.00  0.00    -0.294 N 
ATOM      6  H   UNL     1      10.062   2.750  21.046  0.00  0.00    +0.172 HD
ATOM      7  C   UNL     1       9.333   1.037  21.855  0.00  0.00    +0.279 A 
ATOM      8  O   UNL     1       8.751   0.668  20.841  0.00  0.00    -0.265 OA
ATOM      9  C   UNL     1       9.348   0.360  23.102  0.00  0.00    +0.153 A 
ATOM     10  N   UNL     1       8.802  -0.820  23.524  0.00  0.00    -0.323 N 
ATOM     11  C   UNL     1       9.182  -0.985  24.833  0.00  0.00    +0.202 A 
ATOM     12  N   UNL     1       9.904   0.025  25.265  0.00  0.00    -0.216 NA
ATOM     13  C   UNL     1      10.002   0.864  24.196  0.00  0.00    +0.186 A 
ATOM     14  N   UNL     1      10.685   2.081  24.172  0.00  0.00    -0.195 NA
ENDROOT
BRANCH  10  15
ATOM     15  C   UNL     1       8.055  -1.789  22.745  0.00  0.00    +0.138 C 
BRANCH  15  16
ATOM     16  C   ACE A   0       8.375  -3.260  23.067  0.00  0.00    +0.103 C 
BRANCH  16  17
ATOM     17  N   UNL     1       7.409  -3.896  23.980  0.00  0.00    -0.308 NA
ATOM     18  H   UNL     1       6.682  -4.341  23.411  0.00  0.00    +0.122 HD
BRANCH  17  19
ATOM     19  CA  UNL     1       8.047  -4.966  24.806  0.00  0.00    +0.105 C 
BRANCH  19  20
ATOM     20  C   UNL     1       7.120  -5.325  25.990  0.00  0.00    +0.176 C 
BRANCH  20  21
ATOM     21  O   UNL     1       7.882  -5.880  27.062  0.00  0.00    -0.393 OA
ATOM     22  H   UNL     1       8.709  -5.370  27.103  0.00  0.00    +0.209 HD
ENDBRANCH  20  21
ENDBRANCH  19  20
BRANCH  19  23
ATOM     23  CB  UNL     1       9.427  -4.555  25.359  0.00  0.00    +0.176 C 
BRANCH  23  24
ATOM     24  O   UNL     1      10.319  -5.664  25.385  0.00  0.00    -0.393 OA
ATOM     25  H   UNL     1      10.312  -6.041  24.484  0.00  0.00    +0.209 HD
ENDBRANCH  23  24
ENDBRANCH  19  23
ENDBRANCH  17  19
ENDBRANCH  16  17
ENDBRANCH  15  16
ENDBRANCH  10  15
TORSDOF 8
ENDMDL
MODEL 2
REMARK VINA RESULT:      -6.0      2.589      6.410
REMARK  Name = 
REMARK  8 active torsions:
REMARK  status: ('A' for Active; 'I' for Inactive)
REMARK    1  A    between atoms: N_6  and  C_7
REMARK    2  A    between atoms: C_7  and  C_8
REMARK    3  A    between atoms: C_8  and  N_9
REMARK    4  A    between atoms: N_9  and  CA_10
REMARK    5  A    between atoms: CA_10  and  CB_11
REMARK    6  A    between atoms: CA_10  and  C_13
REMARK    7  A    between atoms: CB_11  and  OG_12
REMARK    8  A    between atoms: C_13  and  O_14
REMARK                            x       y       z     vdW  Elec       q    Type
REMARK                         _______ _______ _______ _____ _____    ______ ____
ROOT
ATOM      1  N   UNL     1       6.039  -5.902  20.772  0.00  0.00    -0.329 N 
ATOM      2  H   UNL     1       5.073  -5.725  20.541  0.00  0.00    +0.145 HD
ATOM      3  H   UNL     1       6.248  -6.889  20.892  0.00  0.00    +0.145 HD
ATOM      4  C   UNL     1       6.610  -5.145  21.748  0.00  0.00    +0.195 A 
ATOM      5  N   UNL     1       6.170  -3.847  21.830  0.00  0.00    -0.294 N 
ATOM      6  H   UNL     1       5.498  -3.499  21.169  0.00  0.00    +0.172 HD
ATOM      7  C   UNL     1       6.683  -2.926  22.714  0.00  0.00    +0.279 A 
ATOM      8  O   UNL     1       6.311  -1.757  22.719  0.00  0.00    -0.265 OA
ATOM      9  C   UNL     1       7.658  -3.494  23.573  0.00  0.00    +0.153 A 
ATOM     10  N   UNL     1       8.401  -2.984  24.601  0.00  0.00    -0.323 N 
ATOM     11  C   UNL     1       9.158  -4.018  25.093  0.00  0.00    +0.202 A 
ATOM     12  N   UNL     1       8.960  -5.132  24.423  0.00  0.00    -0.216 NA
ATOM     13  C   UNL     1       8.037  -4.808  23.476  0.00  0.00    +0.186 A 
ATOM     14  N   UNL     1       7.507  -5.677  22.521  0.00  0.00    -0.195 NA
ENDROOT
BRANCH  10  15
ATOM     15  C   UNL     1       8.348  -1.649  25.165  0.00  0.00    +0.138 C 
BRANCH  15  16
ATOM     16  C   ACE A   0       9.591  -0.782  24.889  0.00  0.00    +0.103 C 
BRANCH  16  17
ATOM     17  N   UNL     1       9.312   0.426  24.093  0.00  0.00    -0.308 NA
ATOM     18  H   UNL     1       9.612   1.240  24.638  0.00  0.00    +0.122 HD
BRANCH  17  19
ATOM     19  CA  UNL     1      10.083   0.438  22.813  0.00  0.00    +0.105 C 
BRANCH  19  20
ATOM     20  C   UNL     1      10.182   1.886  22.282  0.00  0.00    +0.176 C 
BRANCH  20  21
ATOM     21  O   UNL     1       9.205   2.107  21.264  0.00  0.00    -0.393 OA
ATOM     22  H   UNL     1       9.549   2.824  20.705  0.00  0.00    +0.209 HD
ENDBRANCH  20  21
ENDBRANCH  19  20
BRANCH  19  23
ATOM     23  CB  UNL     1       9.450  -0.452  21.722  0.00  0.00    +0.176 C 
BRANCH  23  24
ATOM     24  O   UNL     1      10.196  -1.649  21.542  0.00  0.00    -0.393 OA
ATOM     25  H   UNL     1      11.135  -1.407  21.659  0.00  0.00    +0.209 HD
ENDBRANCH  23  24
ENDBRANCH  19  23
ENDBRANCH  17  19
ENDBRANCH  16  17
ENDBRANCH  15  16
ENDBRANCH  10  15
TORSDOF 8
ENDMDL
MODEL 3
REMARK VINA RESULT:      -5.9      1.911      2.492
REMARK  Name = 
REMARK  8 active torsions:
REMARK  status: ('A' for Active; 'I' for Inactive)
REMARK    1  A    between atoms: N_6  and  C_7
REMARK    2  A    between atoms: C_7  and  C_8
REMARK    3  A    between atoms: C_8  and  N_9
REMARK    4  A    between atoms: N_9  and  CA_10
REMARK    5  A    between atoms: CA_10  and  CB_11
REMARK    6  A    between atoms: CA_10  and  C_13
REMARK    7  A    between atoms: CB_11  and  OG_12
REMARK    8  A    between atoms: C_13  and  O_14
REMARK                            x       y       z     vdW  Elec       q    Type
REMARK                         _______ _______ _______ _____ _____    ______ ____
ROOT
ATOM      1  N   UNL     1       8.417   3.893  25.079  0.00  0.00    -0.329 N 
ATOM      2  H   UNL     1       7.770   3.925  25.852  0.00  0.00    +0.145 HD
ATOM      3  H   UNL     1       8.190   4.555  24.341  0.00  0.00    +0.145 HD
ATOM      4  C   UNL     1       8.752   2.675  24.577  0.00  0.00    +0.195 A 
ATOM      5  N   UNL     1       8.811   1.650  25.489  0.00  0.00    -0.294 N 
ATOM      6  H   UNL     1       8.651   1.832  26.464  0.00  0.00    +0.172 HD
ATOM      7  C   UNL     1       9.195   0.368  25.168  0.00  0.00    +0.279 A 
ATOM      8  O   UNL     1       9.297  -0.509  26.018  0.00  0.00    -0.265 OA
ATOM      9  C   UNL     1       9.447   0.217  23.780  0.00  0.00    +0.153 A 
ATOM     10  N   UNL     1       9.816  -0.853  23.014  0.00  0.00    -0.323 N 
ATOM     11  C   UNL     1       9.874  -0.409  21.716  0.00  0.00    +0.202 A 
ATOM     12  N   UNL     1       9.595   0.872  21.624  0.00  0.00    -0.216 NA
ATOM     13  C   UNL     1       9.338   1.265  22.902  0.00  0.00    +0.186 A 
ATOM     14  N   UNL     1       8.987   2.554  23.306  0.00  0.00    -0.195 NA
ENDROOT
BRANCH  10  15
ATOM     15  C   UNL     1      10.009  -2.227  23.433  0.00  0.00    +0.138 C 
BRANCH  15  16
ATOM     16  C   ACE A   0       8.710  -3.014  23.688  0.00  0.00    +0.103 C 
BRANCH  16  17
ATOM     17  N   UNL     1       8.385  -3.185  25.114  0.00  0.00    -0.308 NA
ATOM     18  H   UNL     1       7.603  -2.562  25.337  0.00  0.00    +0.122 HD
BRANCH  17  19
ATOM     19  CA  UNL     1       7.946  -4.580  25.421  0.00  0.00    +0.105 C 
BRANCH  19  20
ATOM     20  C   UNL     1       7.527  -4.675  26.906  0.00  0.00    +0.176 C 
BRANCH  20  21
ATOM     21  O   UNL     1       7.974  -5.910  27.467  0.00  0.00    -0.393 OA
ATOM     22  H   UNL     1       7.180  -6.364  27.796  0.00  0.00    +0.209 HD
ENDBRANCH  20  21
ENDBRANCH  19  20
BRANCH  19  23
ATOM     23  CB  UNL     1       9.042  -5.629  25.143  0.00  0.00    +0.176 C 
BRANCH  23  24
ATOM     24  O   UNL     1      10.219  -5.351  25.893  0.00  0.00    -0.393 OA
ATOM     25  H   UNL     1      10.518  -6.205  26.260  0.00  0.00    +0.209 HD
ENDBRANCH  23  24
ENDBRANCH  19  23
ENDBRANCH  17  19
ENDBRANCH  16  17
ENDBRANCH  15  16
ENDBRANCH  10  15
TORSDOF 8
ENDMDL
MODEL 4
REMARK VINA RESULT:      -5.9      3.269      7.455
REMARK  Name = 
REMARK  8 active torsions:
REMARK  status: ('A' for Active; 'I' for Inactive)
REMARK    1  A    between atoms: N_6  and  C_7
REMARK    2  A    between atoms: C_7  and  C_8
REMARK    3  A    between atoms: C_8  and  N_9
REMARK    4  A    between atoms: N_9  and  CA_10
REMARK    5  A    between atoms: CA_10  and  CB_11
REMARK    6  A    between atoms: CA_10  and  C_13
REMARK    7  A    between atoms: CB_11  and  OG_12
REMARK    8  A    between atoms: C_13  and  O_14
REMARK                            x       y       z     vdW  Elec       q    Type
REMARK                         _______ _______ _______ _____ _____    ______ ____
ROOT
ATOM      1  N   UNL     1       4.976  -7.145  27.895  0.00  0.00    -0.329 N 
ATOM      2  H   UNL     1       5.732  -7.483  28.472  0.00  0.00    +0.145 HD
ATOM      3  H   UNL     1       4.190  -7.789  27.849  0.00  0.00    +0.145 HD
ATOM      4  C   UNL     1       5.285  -6.639  26.672  0.00  0.00    +0.195 A 
ATOM      5  N   UNL     1       6.486  -5.980  26.584  0.00  0.00    -0.294 N 
ATOM      6  H   UNL     1       7.057  -5.861  27.403  0.00  0.00    +0.172 HD
ATOM      7  C   UNL     1       6.927  -5.352  25.442  0.00  0.00    +0.279 A 
ATOM      8  O   UNL     1       7.976  -4.719  25.416  0.00  0.00    -0.265 OA
ATOM      9  C   UNL     1       6.034  -5.532  24.354  0.00  0.00    +0.153 A 
ATOM     10  N   UNL     1       6.066  -5.127  23.049  0.00  0.00    -0.323 N 
ATOM     11  C   UNL     1       4.938  -5.631  22.451  0.00  0.00    +0.202 A 
ATOM     12  N   UNL     1       4.190  -6.299  23.300  0.00  0.00    -0.216 NA
ATOM     13  C   UNL     1       4.862  -6.233  24.482  0.00  0.00    +0.186 A 
ATOM     14  N   UNL     1       4.454  -6.805  25.688  0.00  0.00    -0.195 NA
ENDROOT
BRANCH  10  15
ATOM     15  C   UNL     1       7.118  -4.401  22.365  0.00  0.00    +0.138 C 
BRANCH  15  16
ATOM     16  C   ACE A   0       6.949  -2.871  22.359  0.00  0.00    +0.103 C 
BRANCH  16  17
ATOM     17  N   UNL     1       7.418  -2.213  23.590  0.00  0.00    -0.308 NA
ATOM     18  H   UNL     1       7.682  -2.943  24.258  0.00  0.00    +0.122 HD
BRANCH  17  19
ATOM     19  CA  UNL     1       8.629  -1.373  23.345  0.00  0.00    +0.105 C 
BRANCH  19  20
ATOM     20  C   UNL     1       8.972  -1.388  21.838  0.00  0.00    +0.176 C 
BRANCH  20  21
ATOM     21  O   UNL     1      10.379  -1.553  21.654  0.00  0.00    -0.393 OA
ATOM     22  H   UNL     1      10.544  -1.456  20.701  0.00  0.00    +0.209 HD
ENDBRANCH  20  21
ENDBRANCH  19  20
BRANCH  19  23
ATOM     23  CB  UNL     1       9.861  -1.849  24.143  0.00  0.00    +0.176 C 
BRANCH  23  24
ATOM     24  O   UNL     1      10.054  -3.251  23.997  0.00  0.00    -0.393 OA
ATOM     25  H   UNL     1       9.676  -3.664  24.797  0.00  0.00    +0.209 HD
ENDBRANCH  23  24
ENDBRANCH  19  23
ENDBRANCH  17  19
ENDBRANCH  16  17
ENDBRANCH  15  16
ENDBRANCH  10  15
TORSDOF 8
ENDMDL
MODEL 5
REMARK VINA RESULT:      -5.9      2.365      6.670
REMARK  Name = 
REMARK  8 active torsions:
REMARK  status: ('A' for Active; 'I' for Inactive)
REMARK    1  A    between atoms: N_6  and  C_7
REMARK    2  A    between atoms: C_7  and  C_8
REMARK    3  A    between atoms: C_8  and  N_9
REMARK    4  A    between atoms: N_9  and  CA_10
REMARK    5  A    between atoms: CA_10  and  CB_11
REMARK    6  A    between atoms: CA_10  and  C_13
REMARK    7  A    between atoms: CB_11  and  OG_12
REMARK    8  A    between atoms: C_13  and  O_14
REMARK                            x       y       z     vdW  Elec       q    Type
REMARK                         _______ _______ _______ _____ _____    ______ ____
ROOT
ATOM      1  N   UNL     1       7.573  -6.000  27.532  0.00  0.00    -0.329 N 
ATOM      2  H   UNL     1       8.305  -5.935  28.223  0.00  0.00    +0.145 HD
ATOM      3  H   UNL     1       7.352  -6.957  27.272  0.00  0.00    +0.145 HD
ATOM      4  C   UNL     1       7.651  -5.188  26.444  0.00  0.00    +0.195 A 
ATOM      5  N   UNL     1       8.203  -3.950  26.660  0.00  0.00    -0.294 N 
ATOM      6  H   UNL     1       8.484  -3.678  27.586  0.00  0.00    +0.172 HD
ATOM      7  C   UNL     1       8.301  -2.981  25.689  0.00  0.00    +0.279 A 
ATOM      8  O   UNL     1       8.742  -1.863  25.931  0.00  0.00    -0.265 OA
ATOM      9  C   UNL     1       7.835  -3.438  24.428  0.00  0.00    +0.153 A 
ATOM     10  N   UNL     1       7.766  -2.852  23.196  0.00  0.00    -0.323 N 
ATOM     11  C   UNL     1       7.256  -3.794  22.338  0.00  0.00    +0.202 A 
ATOM     12  N   UNL     1       6.975  -4.920  22.957  0.00  0.00    -0.216 NA
ATOM     13  C   UNL     1       7.326  -4.699  24.254  0.00  0.00    +0.186 A 
ATOM     14  N   UNL     1       7.213  -5.618  25.299  0.00  0.00    -0.195 NA
ENDROOT
BRANCH  10  15
ATOM     15  C   UNL     1       8.231  -1.535  22.805  0.00  0.00    +0.138 C 
BRANCH  15  16
ATOM     16  C   ACE A   0       9.637  -1.506  22.180  0.00  0.00    +0.103 C 
BRANCH  16  17
ATOM     17  N   UNL     1      10.216  -0.156  22.071  0.00  0.00    -0.308 NA
ATOM     18  H   UNL     1       9.828   0.288  21.233  0.00  0.00    +0.122 HD
BRANCH  17  19
ATOM     19  CA  UNL     1       9.849   0.701  23.240  0.00  0.00    +0.105 C 
BRANCH  19  20
ATOM     20  C   UNL     1       9.648   2.160  22.768  0.00  0.00    +0.176 C 
BRANCH  20  21
ATOM     21  O   UNL     1       9.474   2.200  21.351  0.00  0.00    -0.393 OA
ATOM     22  H   UNL     1      10.318   2.507  20.980  0.00  0.00    +0.209 HD
ENDBRANCH  20  21
ENDBRANCH  19  20
BRANCH  19  23
ATOM     23  CB  UNL     1      10.914   0.680  24.356  0.00  0.00    +0.176 C 
BRANCH  23  24
ATOM     24  O   UNL     1      10.316   0.464  25.629  0.00  0.00    -0.393 OA
ATOM     25  H   UNL     1       9.429   0.871  25.587  0.00  0.00    +0.209 HD
ENDBRANCH  23  24
ENDBRANCH  19  23
ENDBRANCH  17  19
ENDBRANCH  16  17
ENDBRANCH  15  16
ENDBRANCH  10  15
TORSDOF 8
ENDMDL
MODEL 6
REMARK VINA RESULT:      -5.9      2.265      2.639
REMARK  Name = 
REMARK  8 active torsions:
REMARK  status: ('A' for Active; 'I' for Inactive)
REMARK    1  A    between atoms: N_6  and  C_7
REMARK    2  A    between atoms: C_7  and  C_8
REMARK    3  A    between atoms: C_8  and  N_9
REMARK    4  A    between atoms: N_9  and  CA_10
REMARK    5  A    between atoms: CA_10  and  CB_11
REMARK    6  A    between atoms: CA_10  and  C_13
REMARK    7  A    between atoms: CB_11  and  OG_12
REMARK    8  A    between atoms: C_13  and  O_14
REMARK                            x       y       z     vdW  Elec       q    Type
REMARK                         _______ _______ _______ _____ _____    ______ ____
ROOT
ATOM      1  N   UNL     1      11.081   3.852  22.956  0.00  0.00    -0.329 N 
ATOM      2  H   UNL     1      11.527   4.129  22.094  0.00  0.00    +0.145 HD
ATOM      3  H   UNL     1      11.622   4.095  23.782  0.00  0.00    +0.145 HD
ATOM      4  C   UNL     1      10.577   2.592  23.037  0.00  0.00    +0.195 A 
ATOM      5  N   UNL     1      10.066   2.077  21.872  0.00  0.00    -0.294 N 
ATOM      6  H   UNL     1      10.044   2.639  21.038  0.00  0.00    +0.172 HD
ATOM      7  C   UNL     1       9.461   0.844  21.786  0.00  0.00    +0.279 A 
ATOM      8  O   UNL     1       8.959   0.441  20.743  0.00  0.00    -0.265 OA
ATOM      9  C   UNL     1       9.495   0.145  23.021  0.00  0.00    +0.153 A 
ATOM     10  N   UNL     1       9.054  -1.092  23.400  0.00  0.00    -0.323 N 
ATOM     11  C   UNL     1       9.397  -1.247  24.720  0.00  0.00    +0.202 A 
ATOM     12  N   UNL     1       9.996  -0.179  25.199  0.00  0.00    -0.216 NA
ATOM     13  C   UNL     1      10.051   0.688  24.150  0.00  0.00    +0.186 A 
ATOM     14  N   UNL     1      10.608   1.968  24.176  0.00  0.00    -0.195 NA
ENDROOT
BRANCH  10  15
ATOM     15  C   UNL     1       8.440  -2.114  22.574  0.00  0.00    +0.138 C 
BRANCH  15  16
ATOM     16  C   ACE A   0       7.006  -2.499  22.982  0.00  0.00    +0.103 C 
BRANCH  16  17
ATOM     17  N   UNL     1       6.419  -3.571  22.160  0.00  0.00    -0.308 NA
ATOM     18  H   UNL     1       6.752  -3.451  21.199  0.00  0.00    +0.122 HD
BRANCH  17  19
ATOM     19  CA  UNL     1       6.856  -4.925  22.618  0.00  0.00    +0.105 C 
BRANCH  19  20
ATOM     20  C   UNL     1       6.965  -5.872  21.401  0.00  0.00    +0.176 C 
BRANCH  20  21
ATOM     21  O   UNL     1       5.958  -5.556  20.439  0.00  0.00    -0.393 OA
ATOM     22  H   UNL     1       5.888  -4.587  20.424  0.00  0.00    +0.209 HD
ENDBRANCH  20  21
ENDBRANCH  19  20
BRANCH  19  23
ATOM     23  CB  UNL     1       5.895  -5.548  23.652  0.00  0.00    +0.176 C 
BRANCH  23  24
ATOM     24  O   UNL     1       5.160  -6.625  23.082  0.00  0.00    -0.393 OA
ATOM     25  H   UNL     1       5.401  -7.421  23.595  0.00  0.00    +0.209 HD
ENDBRANCH  23  24
ENDBRANCH  19  23
ENDBRANCH  17  19
ENDBRANCH  16  17
ENDBRANCH  15  16
ENDBRANCH  10  15
TORSDOF 8
ENDMDL
MODEL 7
REMARK VINA RESULT:      -5.9      2.452      6.931
REMARK  Name = 
REMARK  8 active torsions:
REMARK  status: ('A' for Active; 'I' for Inactive)
REMARK    1  A    between atoms: N_6  and  C_7
REMARK    2  A    between atoms: C_7  and  C_8
REMARK    3  A    between atoms: C_8  and  N_9
REMARK    4  A    between atoms: N_9  and  CA_10
REMARK    5  A    between atoms: CA_10  and  CB_11
REMARK    6  A    between atoms: CA_10  and  C_13
REMARK    7  A    between atoms: CB_11  and  OG_12
REMARK    8  A    between atoms: C_13  and  O_14
REMARK                            x       y       z     vdW  Elec       q    Type
REMARK                         _______ _______ _______ _____ _____    ______ ____
ROOT
ATOM      1  N   UNL     1       6.729  -6.313  28.287  0.00  0.00    -0.329 N 
ATOM      2  H   UNL     1       6.640  -7.273  27.987  0.00  0.00    +0.145 HD
ATOM      3  H   UNL     1       5.887  -5.953  28.729  0.00  0.00    +0.145 HD
ATOM      4  C   UNL     1       7.259  -5.418  27.411  0.00  0.00    +0.195 A 
ATOM      5  N   UNL     1       8.229  -5.907  26.572  0.00  0.00    -0.294 N 
ATOM      6  H   UNL     1       8.535  -6.861  26.655  0.00  0.00    +0.172 HD
ATOM      7  C   UNL     1       8.917  -5.128  25.670  0.00  0.00    +0.279 A 
ATOM      8  O   UNL     1       9.822  -5.584  24.979  0.00  0.00    -0.265 OA
ATOM      9  C   UNL     1       8.453  -3.787  25.658  0.00  0.00    +0.153 A 
ATOM     10  N   UNL     1       8.806  -2.689  24.925  0.00  0.00    -0.323 N 
ATOM     11  C   UNL     1       7.981  -1.667  25.323  0.00  0.00    +0.202 A 
ATOM     12  N   UNL     1       7.157  -2.044  26.276  0.00  0.00    -0.216 NA
ATOM     13  C   UNL     1       7.453  -3.356  26.491  0.00  0.00    +0.186 A 
ATOM     14  N   UNL     1       6.830  -4.192  27.418  0.00  0.00    -0.195 NA
ENDROOT
BRANCH  10  15
ATOM     15  C   UNL     1       9.777  -2.605  23.852  0.00  0.00    +0.138 C 
BRANCH  15  16
ATOM     16  C   ACE A   0       9.296  -1.842  22.604  0.00  0.00    +0.103 C 
BRANCH  16  17
ATOM     17  N   UNL     1      10.182  -0.736  22.201  0.00  0.00    -0.308 NA
ATOM     18  H   UNL     1      10.054  -0.579  21.197  0.00  0.00    +0.122 HD
BRANCH  17  19
ATOM     19  CA  UNL     1       9.833   0.538  22.900  0.00  0.00    +0.105 C 
BRANCH  19  20
ATOM     20  C   UNL     1       9.953   1.720  21.911  0.00  0.00    +0.176 C 
BRANCH  20  21
ATOM     21  O   UNL     1      10.153   2.941  22.623  0.00  0.00    -0.393 OA
ATOM     22  H   UNL     1      11.046   3.249  22.392  0.00  0.00    +0.209 HD
ENDBRANCH  20  21
ENDBRANCH  19  20
BRANCH  19  23
ATOM     23  CB  UNL     1      10.732   0.816  24.123  0.00  0.00    +0.176 C 
BRANCH  23  24
ATOM     24  O   UNL     1       9.954   1.176  25.258  0.00  0.00    -0.393 OA
ATOM     25  H   UNL     1       9.055   1.366  24.925  0.00  0.00    +0.209 HD
ENDBRANCH  23  24
ENDBRANCH  19  23
ENDBRANCH  17  19
ENDBRANCH  16  17
ENDBRANCH  15  16
ENDBRANCH  10  15
TORSDOF 8
ENDMDL
MODEL 8
REMARK VINA RESULT:      -5.8      2.280      7.449
REMARK  Name = 
REMARK  8 active torsions:
REMARK  status: ('A' for Active; 'I' for Inactive)
REMARK    1  A    between atoms: N_6  and  C_7
REMARK    2  A    between atoms: C_7  and  C_8
REMARK    3  A    between atoms: C_8  and  N_9
REMARK    4  A    between atoms: N_9  and  CA_10
REMARK    5  A    between atoms: CA_10  and  CB_11
REMARK    6  A    between atoms: CA_10  and  C_13
REMARK    7  A    between atoms: CB_11  and  OG_12
REMARK    8  A    between atoms: C_13  and  O_14
REMARK                            x       y       z     vdW  Elec       q    Type
REMARK                         _______ _______ _______ _____ _____    ______ ____
ROOT
ATOM      1  N   UNL     1       4.453  -7.095  26.530  0.00  0.00    -0.329 N 
ATOM      2  H   UNL     1       4.752  -7.775  27.213  0.00  0.00    +0.145 HD
ATOM      3  H   UNL     1       3.800  -7.473  25.849  0.00  0.00    +0.145 HD
ATOM      4  C   UNL     1       5.404  -6.321  25.941  0.00  0.00    +0.195 A 
ATOM      5  N   UNL     1       6.477  -5.990  26.730  0.00  0.00    -0.294 N 
ATOM      6  H   UNL     1       6.506  -6.282  27.692  0.00  0.00    +0.172 HD
ATOM      7  C   UNL     1       7.497  -5.164  26.318  0.00  0.00    +0.279 A 
ATOM      8  O   UNL     1       8.409  -4.838  27.070  0.00  0.00    -0.265 OA
ATOM      9  C   UNL     1       7.347  -4.762  24.966  0.00  0.00    +0.153 A 
ATOM     10  N   UNL     1       8.108  -3.986  24.137  0.00  0.00    -0.323 N 
ATOM     11  C   UNL     1       7.480  -3.977  22.917  0.00  0.00    +0.202 A 
ATOM     12  N   UNL     1       6.363  -4.670  22.935  0.00  0.00    -0.216 NA
ATOM     13  C   UNL     1       6.274  -5.151  24.206  0.00  0.00    +0.186 A 
ATOM     14  N   UNL     1       5.248  -5.955  24.705  0.00  0.00    -0.195 NA
ENDROOT
BRANCH  10  15
ATOM     15  C   UNL     1       9.389  -3.368  24.419  0.00  0.00    +0.138 C 
BRANCH  15  16
ATOM     16  C   ACE A   0       9.799  -2.255  23.438  0.00  0.00    +0.103 C 
BRANCH  16  17
ATOM     17  N   UNL     1       9.318  -0.915  23.819  0.00  0.00    -0.308 NA
ATOM     18  H   UNL     1       9.427  -0.817  24.833  0.00  0.00    +0.122 HD
BRANCH  17  19
ATOM     19  CA  UNL     1      10.123   0.168  23.176  0.00  0.00    +0.105 C 
BRANCH  19  20
ATOM     20  C   UNL     1      10.780   1.041  24.269  0.00  0.00    +0.176 C 
BRANCH  20  21
ATOM     21  O   UNL     1      10.528   0.487  25.561  0.00  0.00    -0.393 OA
ATOM     22  H   UNL     1       9.575   0.295  25.595  0.00  0.00    +0.209 HD
ENDBRANCH  20  21
ENDBRANCH  19  20
BRANCH  19  23
ATOM     23  CB  UNL     1       9.281   1.073  22.253  0.00  0.00    +0.176 C 
BRANCH  23  24
ATOM     24  O   UNL     1      10.109   1.969  21.521  0.00  0.00    -0.393 OA
ATOM     25  H   UNL     1       9.920   2.862  21.870  0.00  0.00    +0.209 HD
ENDBRANCH  23  24
ENDBRANCH  19  23
ENDBRANCH  17  19
ENDBRANCH  16  17
ENDBRANCH  15  16
ENDBRANCH  10  15
TORSDOF 8
ENDMDL
MODEL 9
REMARK VINA RESULT:      -5.8      2.645      3.156
REMARK  Name = 
REMARK  8 active torsions:
REMARK  status: ('A' for Active; 'I' for Inactive)
REMARK    1  A    between atoms: N_6  and  C_7
REMARK    2  A    between atoms: C_7  and  C_8
REMARK    3  A    between atoms: C_8  and  N_9
REMARK    4  A    between atoms: N_9  and  CA_10
REMARK    5  A    between atoms: CA_10  and  CB_11
REMARK    6  A    between atoms: CA_10  and  C_13
REMARK    7  A    between atoms: CB_11  and  OG_12
REMARK    8  A    between atoms: C_13  and  O_14
REMARK                            x       y       z     vdW  Elec       q    Type
REMARK                         _______ _______ _______ _____ _____    ______ ____
ROOT
ATOM      1  N   UNL     1      10.447   3.750  23.022  0.00  0.00    -0.329 N 
ATOM      2  H   UNL     1      10.141   4.313  23.801  0.00  0.00    +0.145 HD
ATOM      3  H   UNL     1      10.186   4.140  22.120  0.00  0.00    +0.145 HD
ATOM      4  C   UNL     1      10.220   2.410  23.075  0.00  0.00    +0.195 A 
ATOM      5  N   UNL     1      10.283   1.844  24.324  0.00  0.00    -0.294 N 
ATOM      6  H   UNL     1      10.526   2.406  25.122  0.00  0.00    +0.172 HD
ATOM      7  C   UNL     1      10.143   0.495  24.554  0.00  0.00    +0.279 A 
ATOM      8  O   UNL     1      10.268   0.013  25.675  0.00  0.00    -0.265 OA
ATOM      9  C   UNL     1       9.852  -0.224  23.366  0.00  0.00    +0.153 A 
ATOM     10  N   UNL     1       9.609  -1.545  23.115  0.00  0.00    -0.323 N 
ATOM     11  C   UNL     1       9.349  -1.651  21.771  0.00  0.00    +0.202 A 
ATOM     12  N   UNL     1       9.443  -0.490  21.161  0.00  0.00    -0.216 NA
ATOM     13  C   UNL     1       9.762   0.395  22.145  0.00  0.00    +0.186 A 
ATOM     14  N   UNL     1       9.963   1.766  21.978  0.00  0.00    -0.195 NA
ENDROOT
BRANCH  10  15
ATOM     15  C   UNL     1       9.523  -2.634  24.068  0.00  0.00    +0.138 C 
BRANCH  15  16
ATOM     16  C   ACE A   0       8.165  -3.359  24.100  0.00  0.00    +0.103 C 
BRANCH  16  17
ATOM     17  N   UNL     1       8.156  -4.643  23.377  0.00  0.00    -0.308 NA
ATOM     18  H   UNL     1       8.268  -5.394  24.065  0.00  0.00    +0.122 HD
BRANCH  17  19
ATOM     19  CA  UNL     1       6.859  -4.874  22.672  0.00  0.00    +0.105 C 
BRANCH  19  20
ATOM     20  C   UNL     1       5.831  -5.469  23.661  0.00  0.00    +0.176 C 
BRANCH  20  21
ATOM     21  O   UNL     1       5.260  -6.661  23.122  0.00  0.00    -0.393 OA
ATOM     22  H   UNL     1       5.572  -7.392  23.682  0.00  0.00    +0.209 HD
ENDBRANCH  20  21
ENDBRANCH  19  20
BRANCH  19  23
ATOM     23  CB  UNL     1       6.995  -5.822  21.462  0.00  0.00    +0.176 C 
BRANCH  23  24
ATOM     24  O   UNL     1       5.993  -5.556  20.488  0.00  0.00    -0.393 OA
ATOM     25  H   UNL     1       6.075  -6.256  19.812  0.00  0.00    +0.209 HD
ENDBRANCH  23  24
ENDBRANCH  19  23
ENDBRANCH  17  19
ENDBRANCH  16  17
ENDBRANCH  15  16
ENDBRANCH  10  15
TORSDOF 8
ENDMDL
