MODEL 1
REMARK VINA RESULT:      -6.7      0.000      0.000
REMARK  Name = 
REMARK  6 active torsions:
REMARK  status: ('A' for Active; 'I' for Inactive)
REMARK    1  A    between atoms: C_1  and  C_2
REMARK    2  A    between atoms: C_5  and  C_6
REMARK    3  A    between atoms: C_17  and  C_18
REMARK    4  A    between atoms: C_18  and  C_19
REMARK    5  A    between atoms: C_19  and  C_20
REMARK    6  A    between atoms: C_20  and  O_21
REMARK                            x       y       z     vdW  Elec       q    Type
REMARK                         _______ _______ _______ _____ _____    ______ ____
ROOT
ATOM      1  C   UNL     1       4.647  -6.733  25.324  0.00  0.00    +0.045 C 
ATOM      2  C   UNL     1       5.054  -5.666  24.366  0.00  0.00    -0.029 A 
ATOM      3  C   UNL     1       5.522  -4.346  24.688  0.00  0.00    -0.019 A 
ATOM      4  C   UNL     1       5.783  -3.691  23.485  0.00  0.00    +0.043 A 
ATOM      5  N   UNL     1       5.483  -4.570  22.471  0.00  0.00    -0.361 N 
ATOM      6  H   UNL     1       5.544  -4.366  21.479  0.00  0.00    +0.165 HD
ATOM      7  C   UNL     1       5.066  -5.765  22.994  0.00  0.00    +0.086 A 
ENDROOT
BRANCH   4   8
ATOM      8  C   UNL     1       6.337  -2.407  23.208  0.00  0.00    +0.039 C 
ATOM      9  C   UNL     1       7.628  -2.030  23.181  0.00  0.00    +0.048 C 
ATOM     10  C   UNL     1       8.057  -0.662  22.829  0.00  0.00    +0.008 A 
ATOM     11  C   UNL     1       9.454  -0.665  22.854  0.00  0.00    +0.042 A 
ATOM     12  C   UNL     1      10.207   0.459  22.572  0.00  0.00    +0.024 A 
ATOM     13  C   UNL     1       9.515   1.633  22.257  0.00  0.00    +0.002 A 
ATOM     14  C   UNL     1       8.110   1.650  22.223  0.00  0.00    +0.001 A 
ATOM     15  N   UNL     1       9.932  -1.924  23.198  0.00  0.00    -0.281 N 
ATOM     16  H   UNL     1      10.905  -2.175  23.293  0.00  0.00    +0.155 HD
ATOM     17  C   UNL     1       7.369   0.496  22.511  0.00  0.00    +0.010 A 
ATOM     18  C   UNL     1       8.893  -2.813  23.434  0.00  0.00    +0.249 C 
ATOM     19  O   UNL     1       8.998  -3.965  23.809  0.00  0.00    -0.270 OA
ENDBRANCH   4   8
BRANCH   3  20
ATOM     20  C   UNL     1       5.701  -3.823  26.089  0.00  0.00    +0.048 C 
BRANCH  20  21
ATOM     21  C   UNL     1       7.112  -3.907  26.660  0.00  0.00    +0.125 C 
BRANCH  21  22
ATOM     22  C   UNL     1       7.636  -5.278  27.015  0.00  0.00    +0.305 C 
ATOM     23  O   UNL     1       7.258  -5.878  28.015  0.00  0.00    -0.251 OA
BRANCH  22  24
ATOM     24  O   UNL     1       8.467  -5.857  26.131  0.00  0.00    -0.481 OA
ATOM     25  H   UNL     1       9.401  -5.929  26.409  0.00  0.00    +0.295 HD
ENDBRANCH  22  24
ENDBRANCH  21  22
ENDBRANCH  20  21
ENDBRANCH   3  20
TORSDOF 5
ENDMDL
MODEL 2
REMARK VINA RESULT:      -6.6      2.350      3.438
REMARK  Name = 
REMARK  6 active torsions:
REMARK  status: ('A' for Active; 'I' for Inactive)
REMARK    1  A    between atoms: C_1  and  C_2
REMARK    2  A    between atoms: C_5  and  C_6
REMARK    3  A    between atoms: C_17  and  C_18
REMARK    4  A    between atoms: C_18  and  C_19
REMARK    5  A    between atoms: C_19  and  C_20
REMARK    6  A    between atoms: C_20  and  O_21
REMARK                            x       y       z     vdW  Elec       q    Type
REMARK                         _______ _______ _______ _____ _____    ______ ____
ROOT
ATOM      1  C   UNL     1       5.675  -6.304  26.537  0.00  0.00    +0.045 C 
ATOM      2  C   UNL     1       6.707  -5.317  26.108  0.00  0.00    -0.029 A 
ATOM      3  C   UNL     1       6.615  -4.388  25.016  0.00  0.00    -0.019 A 
ATOM      4  C   UNL     1       7.808  -3.665  24.981  0.00  0.00    +0.043 A 
ATOM      5  N   UNL     1       8.597  -4.136  26.005  0.00  0.00    -0.361 N 
ATOM      6  H   UNL     1       9.539  -3.822  26.213  0.00  0.00    +0.165 HD
ATOM      7  C   UNL     1       7.933  -5.112  26.699  0.00  0.00    +0.086 A 
ENDROOT
BRANCH   4   8
ATOM      8  C   UNL     1       8.228  -2.572  24.169  0.00  0.00    +0.039 C 
ATOM      9  C   UNL     1       8.713  -1.375  24.544  0.00  0.00    +0.048 C 
ATOM     10  C   UNL     1       9.155  -0.349  23.579  0.00  0.00    +0.008 A 
ATOM     11  C   UNL     1       9.641   0.722  24.332  0.00  0.00    +0.042 A 
ATOM     12  C   UNL     1      10.144   1.873  23.754  0.00  0.00    +0.024 A 
ATOM     13  C   UNL     1      10.150   1.940  22.357  0.00  0.00    +0.002 A 
ATOM     14  C   UNL     1       9.668   0.867  21.586  0.00  0.00    +0.001 A 
ATOM     15  N   UNL     1       9.534   0.450  25.691  0.00  0.00    -0.281 N 
ATOM     16  H   UNL     1       9.808   1.072  26.437  0.00  0.00    +0.155 HD
ATOM     17  C   UNL     1       9.165  -0.289  22.196  0.00  0.00    +0.010 A 
ATOM     18  C   UNL     1       8.962  -0.794  25.915  0.00  0.00    +0.249 C 
ATOM     19  O   UNL     1       8.687  -1.281  26.995  0.00  0.00    -0.270 OA
ENDBRANCH   4   8
BRANCH   3  20
ATOM     20  C   UNL     1       5.417  -4.246  24.115  0.00  0.00    +0.048 C 
BRANCH  20  21
ATOM     21  C   UNL     1       5.327  -5.235  22.959  0.00  0.00    +0.125 C 
BRANCH  21  22
ATOM     22  C   UNL     1       6.171  -4.954  21.738  0.00  0.00    +0.305 C 
ATOM     23  O   UNL     1       7.199  -5.579  21.504  0.00  0.00    -0.251 OA
BRANCH  22  24
ATOM     24  O   UNL     1       5.692  -4.051  20.865  0.00  0.00    -0.481 OA
ATOM     25  H   UNL     1       5.747  -3.117  21.146  0.00  0.00    +0.295 HD
ENDBRANCH  22  24
ENDBRANCH  21  22
ENDBRANCH  20  21
ENDBRANCH   3  20
TORSDOF 5
ENDMDL
MODEL 3
REMARK VINA RESULT:      -6.5      2.580      3.366
REMARK  Name = 
REMARK  6 active torsions:
REMARK  status: ('A' for Active; 'I' for Inactive)
REMARK    1  A    between atoms: C_1  and  C_2
REMARK    2  A    between atoms: C_5  and  C_6
REMARK    3  A    between atoms: C_17  and  C_18
REMARK    4  A    between atoms: C_18  and  C_19
REMARK    5  A    between atoms: C_19  and  C_20
REMARK    6  A    between atoms: C_20  and  O_21
REMARK                            x       y       z     vdW  Elec       q    Type
REMARK                         _______ _______ _______ _____ _____    ______ ____
ROOT
ATOM      1  C   UNL     1       5.642  -6.181  26.731  0.00  0.00    +0.045 C 
ATOM      2  C   UNL     1       6.684  -5.230  26.249  0.00  0.00    -0.029 A 
ATOM      3  C   UNL     1       6.569  -4.298  25.162  0.00  0.00    -0.019 A 
ATOM      4  C   UNL     1       7.782  -3.616  25.066  0.00  0.00    +0.043 A 
ATOM      5  N   UNL     1       8.606  -4.114  26.049  0.00  0.00    -0.361 N 
ATOM      6  H   UNL     1       9.568  -3.833  26.208  0.00  0.00    +0.165 HD
ATOM      7  C   UNL     1       7.945  -5.067  26.777  0.00  0.00    +0.086 A 
ENDROOT
BRANCH   4   8
ATOM      8  C   UNL     1       8.198  -2.538  24.232  0.00  0.00    +0.039 C 
ATOM      9  C   UNL     1       8.724  -1.350  24.582  0.00  0.00    +0.048 C 
ATOM     10  C   UNL     1       9.153  -0.340  23.595  0.00  0.00    +0.008 A 
ATOM     11  C   UNL     1       9.692   0.724  24.324  0.00  0.00    +0.042 A 
ATOM     12  C   UNL     1      10.200   1.859  23.721  0.00  0.00    +0.024 A 
ATOM     13  C   UNL     1      10.156   1.919  22.324  0.00  0.00    +0.002 A 
ATOM     14  C   UNL     1       9.621   0.853  21.577  0.00  0.00    +0.001 A 
ATOM     15  N   UNL     1       9.628   0.461  25.687  0.00  0.00    -0.281 N 
ATOM     16  H   UNL     1       9.943   1.081  26.418  0.00  0.00    +0.155 HD
ATOM     17  C   UNL     1       9.114  -0.288  22.212  0.00  0.00    +0.010 A 
ATOM     18  C   UNL     1       9.036  -0.768  25.939  0.00  0.00    +0.249 C 
ATOM     19  O   UNL     1       8.789  -1.242  27.031  0.00  0.00    -0.270 OA
ENDBRANCH   4   8
BRANCH   3  20
ATOM     20  C   UNL     1       5.332  -4.114  24.323  0.00  0.00    +0.048 C 
BRANCH  20  21
ATOM     21  C   UNL     1       5.162  -5.083  23.159  0.00  0.00    +0.125 C 
BRANCH  21  22
ATOM     22  C   UNL     1       4.008  -6.055  23.229  0.00  0.00    +0.305 C 
ATOM     23  O   UNL     1       2.888  -5.762  22.827  0.00  0.00    -0.251 OA
BRANCH  22  24
ATOM     24  O   UNL     1       4.287  -7.296  23.664  0.00  0.00    -0.481 OA
ATOM     25  H   UNL     1       4.527  -7.945  22.974  0.00  0.00    +0.295 HD
ENDBRANCH  22  24
ENDBRANCH  21  22
ENDBRANCH  20  21
ENDBRANCH   3  20
TORSDOF 5
ENDMDL
MODEL 4
REMARK VINA RESULT:      -6.4      2.239      3.123
REMARK  Name = 
REMARK  6 active torsions:
REMARK  status: ('A' for Active; 'I' for Inactive)
REMARK    1  A    between atoms: C_1  and  C_2
REMARK    2  A    between atoms: C_5  and  C_6
REMARK    3  A    between atoms: C_17  and  C_18
REMARK    4  A    between atoms: C_18  and  C_19
REMARK    5  A    between atoms: C_19  and  C_20
REMARK    6  A    between atoms: C_20  and  O_21
REMARK                            x       y       z     vdW  Elec       q    Type
REMARK                         _______ _______ _______ _____ _____    ______ ____
ROOT
ATOM      1  C   UNL     1       5.457  -6.038  26.372  0.00  0.00    +0.045 C 
ATOM      2  C   UNL     1       6.608  -5.106  26.203  0.00  0.00    -0.029 A 
ATOM      3  C   UNL     1       6.586  -3.805  25.595  0.00  0.00    -0.019 A 
ATOM      4  C   UNL     1       7.884  -3.295  25.654  0.00  0.00    +0.043 A 
ATOM      5  N   UNL     1       8.666  -4.246  26.266  0.00  0.00    -0.361 N 
ATOM      6  H   UNL     1       9.665  -4.172  26.424  0.00  0.00    +0.165 HD
ATOM      7  C   UNL     1       7.902  -5.326  26.619  0.00  0.00    +0.086 A 
ENDROOT
BRANCH   4   8
ATOM      8  C   UNL     1       8.420  -2.028  25.280  0.00  0.00    +0.039 C 
ATOM      9  C   UNL     1       8.728  -1.567  24.055  0.00  0.00    +0.048 C 
ATOM     10  C   UNL     1       9.237  -0.203  23.815  0.00  0.00    +0.008 A 
ATOM     11  C   UNL     1       9.387  -0.072  22.432  0.00  0.00    +0.042 A 
ATOM     12  C   UNL     1       9.849   1.088  21.838  0.00  0.00    +0.024 A 
ATOM     13  C   UNL     1      10.174   2.155  22.681  0.00  0.00    +0.002 A 
ATOM     14  C   UNL     1      10.024   2.039  24.075  0.00  0.00    +0.001 A 
ATOM     15  N   UNL     1       9.018  -1.247  21.789  0.00  0.00    -0.281 N 
ATOM     16  H   UNL     1       9.048  -1.405  20.793  0.00  0.00    +0.155 HD
ATOM     17  C   UNL     1       9.552   0.854  24.652  0.00  0.00    +0.010 A 
ATOM     18  C   UNL     1       8.622  -2.219  22.697  0.00  0.00    +0.249 C 
ATOM     19  O   UNL     1       8.302  -3.363  22.440  0.00  0.00    -0.270 OA
ENDBRANCH   4   8
BRANCH   3  20
ATOM     20  C   UNL     1       5.355  -3.147  25.033  0.00  0.00    +0.048 C 
BRANCH  20  21
ATOM     21  C   UNL     1       5.165  -3.258  23.524  0.00  0.00    +0.125 C 
BRANCH  21  22
ATOM     22  C   UNL     1       4.761  -4.605  22.974  0.00  0.00    +0.305 C 
ATOM     23  O   UNL     1       5.591  -5.437  22.622  0.00  0.00    -0.251 OA
BRANCH  22  24
ATOM     24  O   UNL     1       3.448  -4.892  22.975  0.00  0.00    -0.481 OA
ATOM     25  H   UNL     1       2.859  -4.187  23.308  0.00  0.00    +0.295 HD
ENDBRANCH  22  24
ENDBRANCH  21  22
ENDBRANCH  20  21
ENDBRANCH   3  20
TORSDOF 5
ENDMDL
MODEL 5
REMARK VINA RESULT:      -6.4      1.749      2.278
REMARK  Name = 
REMARK  6 active torsions:
REMARK  status: ('A' for Active; 'I' for Inactive)
REMARK    1  A    between atoms: C_1  and  C_2
REMARK    2  A    between atoms: C_5  and  C_6
REMARK    3  A    between atoms: C_17  and  C_18
REMARK    4  A    between atoms: C_18  and  C_19
REMARK    5  A    between atoms: C_19  and  C_20
REMARK    6  A    between atoms: C_20  and  O_21
REMARK                            x       y       z     vdW  Elec       q    Type
REMARK                         _______ _______ _______ _____ _____    ______ ____
ROOT
ATOM      1  C   UNL     1       4.790  -6.897  26.426  0.00  0.00    +0.045 C 
ATOM      2  C   UNL     1       5.175  -6.086  25.236  0.00  0.00    -0.029 A 
ATOM      3  C   UNL     1       6.086  -4.976  25.203  0.00  0.00    -0.019 A 
ATOM      4  C   UNL     1       6.143  -4.521  23.885  0.00  0.00    +0.043 A 
ATOM      5  N   UNL     1       5.299  -5.316  23.145  0.00  0.00    -0.361 N 
ATOM      6  H   UNL     1       5.107  -5.208  22.155  0.00  0.00    +0.165 HD
ATOM      7  C   UNL     1       4.732  -6.271  23.946  0.00  0.00    +0.086 A 
ENDROOT
BRANCH   4   8
ATOM      8  C   UNL     1       6.936  -3.511  23.266  0.00  0.00    +0.039 C 
ATOM      9  C   UNL     1       6.843  -2.174  23.379  0.00  0.00    +0.048 C 
ATOM     10  C   UNL     1       7.773  -1.245  22.708  0.00  0.00    +0.008 A 
ATOM     11  C   UNL     1       7.401   0.043  23.100  0.00  0.00    +0.042 A 
ATOM     12  C   UNL     1       8.060   1.176  22.661  0.00  0.00    +0.024 A 
ATOM     13  C   UNL     1       9.135   0.994  21.785  0.00  0.00    +0.002 A 
ATOM     14  C   UNL     1       9.524  -0.297  21.385  0.00  0.00    +0.001 A 
ATOM     15  N   UNL     1       6.310  -0.006  23.959  0.00  0.00    -0.281 N 
ATOM     16  H   UNL     1       5.850   0.793  24.369  0.00  0.00    +0.155 HD
ATOM     17  C   UNL     1       8.841  -1.429  21.847  0.00  0.00    +0.010 A 
ATOM     18  C   UNL     1       5.889  -1.312  24.170  0.00  0.00    +0.249 C 
ATOM     19  O   UNL     1       4.927  -1.666  24.823  0.00  0.00    -0.270 OA
ENDBRANCH   4   8
BRANCH   3  20
ATOM     20  C   UNL     1       6.835  -4.451  26.399  0.00  0.00    +0.048 C 
BRANCH  20  21
ATOM     21  C   UNL     1       8.188  -5.097  26.678  0.00  0.00    +0.125 C 
BRANCH  21  22
ATOM     22  C   UNL     1       9.266  -4.927  25.635  0.00  0.00    +0.305 C 
ATOM     23  O   UNL     1       9.608  -3.821  25.231  0.00  0.00    -0.251 OA
BRANCH  22  24
ATOM     24  O   UNL     1       9.906  -6.040  25.237  0.00  0.00    -0.481 OA
ATOM     25  H   UNL     1      10.038  -6.133  24.273  0.00  0.00    +0.295 HD
ENDBRANCH  22  24
ENDBRANCH  21  22
ENDBRANCH  20  21
ENDBRANCH   3  20
TORSDOF 5
ENDMDL
MODEL 6
REMARK VINA RESULT:      -6.3      2.610      6.279
REMARK  Name = 
REMARK  6 active torsions:
REMARK  status: ('A' for Active; 'I' for Inactive)
REMARK    1  A    between atoms: C_1  and  C_2
REMARK    2  A    between atoms: C_5  and  C_6
REMARK    3  A    between atoms: C_17  and  C_18
REMARK    4  A    between atoms: C_18  and  C_19
REMARK    5  A    between atoms: C_19  and  C_20
REMARK    6  A    between atoms: C_20  and  O_21
REMARK                            x       y       z     vdW  Elec       q    Type
REMARK                         _______ _______ _______ _____ _____    ______ ____
ROOT
ATOM      1  C   UNL     1       8.185   3.782  24.431  0.00  0.00    +0.045 C 
ATOM      2  C   UNL     1       7.622   2.402  24.428  0.00  0.00    -0.029 A 
ATOM      3  C   UNL     1       7.618   1.472  23.333  0.00  0.00    -0.019 A 
ATOM      4  C   UNL     1       6.987   0.308  23.776  0.00  0.00    +0.043 A 
ATOM      5  N   UNL     1       6.617   0.521  25.084  0.00  0.00    -0.361 N 
ATOM      6  H   UNL     1       6.110  -0.138  25.666  0.00  0.00    +0.165 HD
ATOM      7  C   UNL     1       7.015   1.767  25.487  0.00  0.00    +0.086 A 
ENDROOT
BRANCH   4   8
ATOM      8  C   UNL     1       6.778  -0.953  23.146  0.00  0.00    +0.039 C 
ATOM      9  C   UNL     1       7.322  -2.147  23.442  0.00  0.00    +0.048 C 
ATOM     10  C   UNL     1       6.971  -3.388  22.723  0.00  0.00    +0.008 A 
ATOM     11  C   UNL     1       7.685  -4.419  23.339  0.00  0.00    +0.042 A 
ATOM     12  C   UNL     1       7.602  -5.735  22.925  0.00  0.00    +0.024 A 
ATOM     13  C   UNL     1       6.764  -6.015  21.840  0.00  0.00    +0.002 A 
ATOM     14  C   UNL     1       6.036  -4.988  21.214  0.00  0.00    +0.001 A 
ATOM     15  N   UNL     1       8.457  -3.921  24.382  0.00  0.00    -0.281 N 
ATOM     16  H   UNL     1       9.068  -4.467  24.971  0.00  0.00    +0.155 HD
ATOM     17  C   UNL     1       6.136  -3.662  21.654  0.00  0.00    +0.010 A 
ATOM     18  C   UNL     1       8.315  -2.546  24.506  0.00  0.00    +0.249 C 
ATOM     19  O   UNL     1       8.908  -1.825  25.284  0.00  0.00    -0.270 OA
ENDBRANCH   4   8
BRANCH   3  20
ATOM     20  C   UNL     1       8.218   1.744  21.979  0.00  0.00    +0.048 C 
BRANCH  20  21
ATOM     21  C   UNL     1       9.694   1.399  21.820  0.00  0.00    +0.125 C 
BRANCH  21  22
ATOM     22  C   UNL     1      10.096  -0.042  22.022  0.00  0.00    +0.305 C 
ATOM     23  O   UNL     1      10.690  -0.414  23.029  0.00  0.00    -0.251 OA
BRANCH  22  24
ATOM     24  O   UNL     1       9.688  -0.922  21.092  0.00  0.00    -0.481 OA
ATOM     25  H   UNL     1       9.549  -0.559  20.195  0.00  0.00    +0.295 HD
ENDBRANCH  22  24
ENDBRANCH  21  22
ENDBRANCH  20  21
ENDBRANCH   3  20
TORSDOF 5
ENDMDL
MODEL 7
REMARK VINA RESULT:      -6.2      2.691      6.917
REMARK  Name = 
REMARK  6 active torsions:
REMARK  status: ('A' for Active; 'I' for Inactive)
REMARK    1  A    between atoms: C_1  and  C_2
REMARK    2  A    between atoms: C_5  and  C_6
REMARK    3  A    between atoms: C_17  and  C_18
REMARK    4  A    between atoms: C_18  and  C_19
REMARK    5  A    between atoms: C_19  and  C_20
REMARK    6  A    between atoms: C_20  and  O_21
REMARK                            x       y       z     vdW  Elec       q    Type
REMARK                         _______ _______ _______ _____ _____    ______ ____
ROOT
ATOM      1  C   UNL     1      10.755   2.626  23.380  0.00  0.00    +0.045 C 
ATOM      2  C   UNL     1      10.340   1.227  23.683  0.00  0.00    -0.029 A 
ATOM      3  C   UNL     1       9.532   0.367  22.863  0.00  0.00    -0.019 A 
ATOM      4  C   UNL     1       9.396  -0.846  23.539  0.00  0.00    +0.043 A 
ATOM      5  N   UNL     1      10.085  -0.731  24.723  0.00  0.00    -0.361 N 
ATOM      6  H   UNL     1      10.143  -1.445  25.442  0.00  0.00    +0.165 HD
ATOM      7  C   UNL     1      10.673   0.503  24.806  0.00  0.00    +0.086 A 
ENDROOT
BRANCH   4   8
ATOM      8  C   UNL     1       8.777  -2.074  23.162  0.00  0.00    +0.039 C 
ATOM      9  C   UNL     1       7.523  -2.498  23.402  0.00  0.00    +0.048 C 
ATOM     10  C   UNL     1       7.003  -3.787  22.905  0.00  0.00    +0.008 A 
ATOM     11  C   UNL     1       5.665  -3.855  23.301  0.00  0.00    +0.042 A 
ATOM     12  C   UNL     1       4.853  -4.934  23.005  0.00  0.00    +0.024 A 
ATOM     13  C   UNL     1       5.424  -5.988  22.283  0.00  0.00    +0.002 A 
ATOM     14  C   UNL     1       6.768  -5.931  21.874  0.00  0.00    +0.001 A 
ATOM     15  N   UNL     1       5.309  -2.714  24.010  0.00  0.00    -0.281 N 
ATOM     16  H   UNL     1       4.400  -2.532  24.410  0.00  0.00    +0.155 HD
ATOM     17  C   UNL     1       7.569  -4.824  22.185  0.00  0.00    +0.010 A 
ATOM     18  C   UNL     1       6.380  -1.842  24.139  0.00  0.00    +0.249 C 
ATOM     19  O   UNL     1       6.391  -0.794  24.755  0.00  0.00    -0.270 OA
ENDBRANCH   4   8
BRANCH   3  20
ATOM     20  C   UNL     1       8.978   0.747  21.516  0.00  0.00    +0.048 C 
BRANCH  20  21
ATOM     21  C   UNL     1       8.089   1.985  21.483  0.00  0.00    +0.125 C 
BRANCH  21  22
ATOM     22  C   UNL     1       7.008   2.093  22.532  0.00  0.00    +0.305 C 
ATOM     23  O   UNL     1       6.898   3.080  23.249  0.00  0.00    -0.251 OA
BRANCH  22  24
ATOM     24  O   UNL     1       6.108   1.095  22.579  0.00  0.00    -0.481 OA
ATOM     25  H   UNL     1       5.701   0.932  23.451  0.00  0.00    +0.295 HD
ENDBRANCH  22  24
ENDBRANCH  21  22
ENDBRANCH  20  21
ENDBRANCH   3  20
TORSDOF 5
ENDMDL
MODEL 8
REMARK VINA RESULT:      -6.2      1.546      1.928
REMARK  Name = 
REMARK  6 active torsions:
REMARK  status: ('A' for Active; 'I' for Inactive)
REMARK    1  A    between atoms: C_1  and  C_2
REMARK    2  A    between atoms: C_5  and  C_6
REMARK    3  A    between atoms: C_17  and  C_18
REMARK    4  A    between atoms: C_18  and  C_19
REMARK    5  A    between atoms: C_19  and  C_20
REMARK    6  A    between atoms: C_20  and  O_21
REMARK                            x       y       z     vdW  Elec       q    Type
REMARK                         _______ _______ _______ _____ _____    ______ ____
ROOT
ATOM      1  C   UNL     1       5.167  -5.504  24.776  0.00  0.00    +0.045 C 
ATOM      2  C   UNL     1       5.523  -4.165  24.226  0.00  0.00    -0.029 A 
ATOM      3  C   UNL     1       6.269  -3.129  24.884  0.00  0.00    -0.019 A 
ATOM      4  C   UNL     1       6.360  -2.054  23.999  0.00  0.00    +0.043 A 
ATOM      5  N   UNL     1       5.694  -2.416  22.852  0.00  0.00    -0.361 N 
ATOM      6  H   UNL     1       5.563  -1.826  22.037  0.00  0.00    +0.165 HD
ATOM      7  C   UNL     1       5.208  -3.690  22.973  0.00  0.00    +0.086 A 
ENDROOT
BRANCH   4   8
ATOM      8  C   UNL     1       7.047  -0.809  24.092  0.00  0.00    +0.039 C 
ATOM      9  C   UNL     1       8.100  -0.368  23.379  0.00  0.00    +0.048 C 
ATOM     10  C   UNL     1       8.682   0.977  23.557  0.00  0.00    +0.008 A 
ATOM     11  C   UNL     1       9.709   1.093  22.616  0.00  0.00    +0.042 A 
ATOM     12  C   UNL     1      10.482   2.232  22.493  0.00  0.00    +0.024 A 
ATOM     13  C   UNL     1      10.204   3.294  23.360  0.00  0.00    +0.002 A 
ATOM     14  C   UNL     1       9.169   3.194  24.308  0.00  0.00    +0.001 A 
ATOM     15  N   UNL     1       9.818  -0.074  21.870  0.00  0.00    -0.281 N 
ATOM     16  H   UNL     1      10.492  -0.239  21.137  0.00  0.00    +0.155 HD
ATOM     17  C   UNL     1       8.399   2.029  24.412  0.00  0.00    +0.010 A 
ATOM     18  C   UNL     1       8.894  -1.025  22.277  0.00  0.00    +0.249 C 
ATOM     19  O   UNL     1       8.788  -2.160  21.853  0.00  0.00    -0.270 OA
ENDBRANCH   4   8
BRANCH   3  20
ATOM     20  C   UNL     1       6.845  -3.242  26.270  0.00  0.00    +0.048 C 
BRANCH  20  21
ATOM     21  C   UNL     1       8.333  -3.564  26.353  0.00  0.00    +0.125 C 
BRANCH  21  22
ATOM     22  C   UNL     1       8.726  -5.021  26.394  0.00  0.00    +0.305 C 
ATOM     23  O   UNL     1       7.943  -5.894  26.752  0.00  0.00    -0.251 OA
BRANCH  22  24
ATOM     24  O   UNL     1       9.948  -5.333  25.927  0.00  0.00    -0.481 OA
ATOM     25  H   UNL     1      10.658  -4.695  26.134  0.00  0.00    +0.295 HD
ENDBRANCH  22  24
ENDBRANCH  21  22
ENDBRANCH  20  21
ENDBRANCH   3  20
TORSDOF 5
ENDMDL
MODEL 9
REMARK VINA RESULT:      -6.2      3.287      7.173
REMARK  Name = 
REMARK  6 active torsions:
REMARK  status: ('A' for Active; 'I' for Inactive)
REMARK    1  A    between atoms: C_1  and  C_2
REMARK    2  A    between atoms: C_5  and  C_6
REMARK    3  A    between atoms: C_17  and  C_18
REMARK    4  A    between atoms: C_18  and  C_19
REMARK    5  A    between atoms: C_19  and  C_20
REMARK    6  A    between atoms: C_20  and  O_21
REMARK                            x       y       z     vdW  Elec       q    Type
REMARK                         _______ _______ _______ _____ _____    ______ ____
ROOT
ATOM      1  C   UNL     1       9.379   5.069  23.658  0.00  0.00    +0.045 C 
ATOM      2  C   UNL     1       9.688   3.628  23.886  0.00  0.00    -0.029 A 
ATOM      3  C   UNL     1       8.882   2.672  24.593  0.00  0.00    -0.019 A 
ATOM      4  C   UNL     1       9.558   1.452  24.561  0.00  0.00    +0.043 A 
ATOM      5  N   UNL     1      10.730   1.656  23.870  0.00  0.00    -0.361 N 
ATOM      6  H   UNL     1      11.447   0.956  23.709  0.00  0.00    +0.165 HD
ATOM      7  C   UNL     1      10.803   2.954  23.443  0.00  0.00    +0.086 A 
ENDROOT
BRANCH   4   8
ATOM      8  C   UNL     1       9.192   0.155  25.026  0.00  0.00    +0.039 C 
ATOM      9  C   UNL     1       8.896  -0.947  24.315  0.00  0.00    +0.048 C 
ATOM     10  C   UNL     1       8.577  -2.245  24.941  0.00  0.00    +0.008 A 
ATOM     11  C   UNL     1       8.383  -3.153  23.897  0.00  0.00    +0.042 A 
ATOM     12  C   UNL     1       8.064  -4.481  24.113  0.00  0.00    +0.024 A 
ATOM     13  C   UNL     1       7.934  -4.902  25.441  0.00  0.00    +0.002 A 
ATOM     14  C   UNL     1       8.132  -4.000  26.502  0.00  0.00    +0.001 A 
ATOM     15  N   UNL     1       8.550  -2.525  22.669  0.00  0.00    -0.281 N 
ATOM     16  H   UNL     1       8.451  -2.967  21.767  0.00  0.00    +0.155 HD
ATOM     17  C   UNL     1       8.456  -2.660  26.256  0.00  0.00    +0.010 A 
ATOM     18  C   UNL     1       8.844  -1.179  22.824  0.00  0.00    +0.249 C 
ATOM     19  O   UNL     1       8.985  -0.361  21.935  0.00  0.00    -0.270 OA
ENDBRANCH   4   8
BRANCH   3  20
ATOM     20  C   UNL     1       7.546   2.976  25.216  0.00  0.00    +0.048 C 
BRANCH  20  21
ATOM     21  C   UNL     1       6.329   2.377  24.521  0.00  0.00    +0.125 C 
BRANCH  21  22
ATOM     22  C   UNL     1       6.330   2.364  23.011  0.00  0.00    +0.305 C 
ATOM     23  O   UNL     1       6.395   3.396  22.354  0.00  0.00    -0.251 OA
BRANCH  22  24
ATOM     24  O   UNL     1       6.353   1.159  22.415  0.00  0.00    -0.481 OA
ATOM     25  H   UNL     1       5.606   0.966  21.816  0.00  0.00    +0.295 HD
ENDBRANCH  22  24
ENDBRANCH  21  22
ENDBRANCH  20  21
ENDBRANCH   3  20
TORSDOF 5
ENDMDL
