MODEL 1
REMARK VINA RESULT:      -7.1      0.000      0.000
REMARK  Name = 
REMARK  19 active torsions:
REMARK  status: ('A' for Active; 'I' for Inactive)
REMARK    1  A    between atoms: C_1  and  C_2
REMARK    2  A    between atoms: C_2  and  C_3
REMARK    3  A    between atoms: C_3  and  C_4
REMARK    4  A    between atoms: C_4  and  C_5
REMARK    5  A    between atoms: C_5  and  O_7
REMARK    6  A    between atoms: O_7  and  C_8
REMARK    7  A    between atoms: C_8  and  C_9
REMARK    8  A    between atoms: C_9  and  C_11
REMARK    9  A    between atoms: C_11  and  O_12
REMARK   10  A    between atoms: C_14  and  O_16
REMARK   11  A    between atoms: O_16  and  C_17
REMARK   12  A    between atoms: C_19  and  N_20
REMARK   13  A    between atoms: C_21  and  C_23
REMARK   14  A    between atoms: C_27  and  O_28
REMARK   15  A    between atoms: C_29  and  C_30
REMARK   16  A    between atoms: C_35  and  O_36
REMARK   17  A    between atoms: C_45  and  O_46
REMARK   18  A    between atoms: C_47  and  O_48
REMARK   19  A    between atoms: O_48  and  C_49
REMARK                            x       y       z     vdW  Elec       q    Type
REMARK                         _______ _______ _______ _____ _____    ______ ____
ROOT
ATOM      1  C   UNL     1       6.674   2.945  25.377  0.00  0.00    +0.134 C 
ATOM      2  C   UNL     1       5.380   2.321  25.915  0.00  0.00    +0.082 C 
ATOM      3  C   UNL     1       5.502   0.861  26.325  0.00  0.00    +0.007 A 
ATOM      4  C   UNL     1       4.362   0.027  26.408  0.00  0.00    +0.132 A 
ATOM      5  C   UNL     1       4.478  -1.353  26.685  0.00  0.00    +0.078 A 
ATOM      6  C   UNL     1       5.734  -1.888  26.938  0.00  0.00    +0.078 A 
ATOM      7  C   UNL     1       6.862  -1.049  26.957  0.00  0.00    +0.134 A 
ATOM      8  C   UNL     1       5.917  -3.349  27.027  0.00  0.00    +0.202 C 
ATOM      9  O   UNL     1       7.053  -3.751  26.808  0.00  0.00    -0.286 OA
ATOM     10  C   UNL     1       4.777  -4.263  27.253  0.00  0.00    +0.075 A 
ATOM     11  C   UNL     1       4.865  -5.627  27.602  0.00  0.00    +0.132 A 
ATOM     12  C   UNL     1       3.672  -6.384  27.689  0.00  0.00    +0.046 A 
ATOM     13  C   UNL     1       2.422  -5.830  27.452  0.00  0.00    +0.004 A 
ATOM     14  C   UNL     1       2.339  -4.487  27.123  0.00  0.00    +0.012 A 
ATOM     15  C   UNL     1       3.502  -3.705  27.030  0.00  0.00    +0.037 A 
ATOM     16  C   UNL     1       3.319  -2.282  26.645  0.00  0.00    +0.198 C 
ATOM     17  O   UNL     1       2.205  -1.917  26.292  0.00  0.00    -0.286 OA
ATOM     18  C   UNL     1       6.772   0.309  26.610  0.00  0.00    +0.030 A 
ATOM     19  C   UNL     1       8.051   1.044  26.226  0.00  0.00    +0.158 C 
ATOM     20  C   UNL     1       7.869   2.552  26.246  0.00  0.00    +0.079 C 
ENDROOT
BRANCH   1  21
ATOM     21  O   UNL     1       6.869   2.533  24.016  0.00  0.00    -0.381 OA
ATOM     22  H   UNL     1       6.730   3.316  23.442  0.00  0.00    +0.211 HD
ENDBRANCH   1  21
BRANCH   4  23
ATOM     23  O   UNL     1       3.114   0.535  26.173  0.00  0.00    -0.506 OA
ATOM     24  H   UNL     1       2.403  -0.110  26.291  0.00  0.00    +0.292 HD
ENDBRANCH   4  23
BRANCH  11  25
ATOM     25  O   UNL     1       5.911  -6.452  27.901  0.00  0.00    -0.494 OA
ATOM     26  C   UNL     1       6.401  -6.671  29.207  0.00  0.00    +0.277 C 
ENDBRANCH  11  25
BRANCH   7  27
ATOM     27  O   UNL     1       8.120  -1.528  27.243  0.00  0.00    -0.506 OA
ATOM     28  H   UNL     1       8.750  -0.770  27.268  0.00  0.00    +0.292 HD
ENDBRANCH   7  27
BRANCH   1  29
ATOM     29  C   UNL     1       6.527   4.464  25.309  0.00  0.00    +0.202 C 
ATOM     30  O   UNL     1       5.787   5.084  26.077  0.00  0.00    -0.291 OA
BRANCH  29  31
ATOM     31  C   UNL     1       7.334   5.168  24.213  0.00  0.00    +0.309 C 
BRANCH  31  32
ATOM     32  O   UNL     1       8.638   5.531  24.639  0.00  0.00    -0.457 OA
BRANCH  32  33
ATOM     33  C   UNL     1       9.609   4.965  23.868  0.00  0.00    +0.307 C 
ATOM     34  O   UNL     1       9.687   3.771  23.611  0.00  0.00    -0.251 OA
BRANCH  33  35
ATOM     35  C   UNL     1      10.579   6.017  23.415  0.00  0.00    +0.120 C 
BRANCH  35  36
ATOM     36  C   UNL     1      11.919   5.826  24.108  0.00  0.00    +0.011 C 
BRANCH  36  38
ATOM     37  C   UNL     1      13.325   5.745  22.040  0.00  0.00    +0.004 C 
ATOM     38  C   UNL     1      12.866   4.978  23.268  0.00  0.00    -0.003 C 
ENDBRANCH  36  38
ENDBRANCH  35  36
ENDBRANCH  33  35
ENDBRANCH  32  33
ENDBRANCH  31  32
ENDBRANCH  29  31
ENDBRANCH   1  29
BRANCH  19  39
ATOM     39  O   UNL     1       8.204   0.547  24.904  0.00  0.00    -0.343 OA
BRANCH  39  40
ATOM     40  C   UNL     1       9.398  -0.045  24.442  0.00  0.00    +0.253 C 
ATOM     41  O   UNL     1       9.654   0.587  23.173  0.00  0.00    -0.346 OA
ATOM     42  C   UNL     1       8.546   0.379  22.265  0.00  0.00    +0.148 C 
ATOM     43  C   UNL     1       8.706   1.314  21.078  0.00  0.00    +0.041 C 
ATOM     44  C   UNL     1       8.524  -1.113  21.908  0.00  0.00    +0.163 C 
ATOM     45  C   UNL     1       8.293  -1.905  23.216  0.00  0.00    +0.109 C 
ATOM     46  C   UNL     1       9.341  -1.553  24.267  0.00  0.00    +0.086 C 
BRANCH  45  47
ATOM     47  N   UNL     1       8.257  -3.343  22.992  0.00  0.00    -0.302 N 
ATOM     48  H   UNL     1       9.120  -3.801  22.707  0.00  0.00    +0.149 HD
ATOM     49  C   UNL     1       7.060  -3.974  22.665  0.00  0.00    +0.318 C 
ATOM     50  O   UNL     1       5.996  -3.352  22.619  0.00  0.00    -0.266 OA
BRANCH  49  51
ATOM     51  C   UNL     1       7.168  -5.491  22.407  0.00  0.00    +0.469 C 
ATOM     52  F   UNL     1       8.220  -6.055  23.057  0.00  0.00    -0.162 F 
ATOM     53  F   UNL     1       7.319  -5.781  21.086  0.00  0.00    -0.162 F 
ATOM     54  F   UNL     1       6.054  -6.163  22.823  0.00  0.00    -0.162 F 
ENDBRANCH  49  51
ENDBRANCH  45  47
BRANCH  44  55
ATOM     55  O   UNL     1       9.787  -1.503  21.341  0.00  0.00    -0.387 OA
ATOM     56  H   UNL     1      10.408  -0.769  21.514  0.00  0.00    +0.210 HD
ENDBRANCH  44  55
ENDBRANCH  39  40
ENDBRANCH  19  39
TORSDOF 16
ENDMDL
MODEL 2
REMARK VINA RESULT:      -6.9      4.019      8.383
REMARK  Name = 
REMARK  19 active torsions:
REMARK  status: ('A' for Active; 'I' for Inactive)
REMARK    1  A    between atoms: C_1  and  C_2
REMARK    2  A    between atoms: C_2  and  C_3
REMARK    3  A    between atoms: C_3  and  C_4
REMARK    4  A    between atoms: C_4  and  C_5
REMARK    5  A    between atoms: C_5  and  O_7
REMARK    6  A    between atoms: O_7  and  C_8
REMARK    7  A    between atoms: C_8  and  C_9
REMARK    8  A    between atoms: C_9  and  C_11
REMARK    9  A    between atoms: C_11  and  O_12
REMARK   10  A    between atoms: C_14  and  O_16
REMARK   11  A    between atoms: O_16  and  C_17
REMARK   12  A    between atoms: C_19  and  N_20
REMARK   13  A    between atoms: C_21  and  C_23
REMARK   14  A    between atoms: C_27  and  O_28
REMARK   15  A    between atoms: C_29  and  C_30
REMARK   16  A    between atoms: C_35  and  O_36
REMARK   17  A    between atoms: C_45  and  O_46
REMARK   18  A    between atoms: C_47  and  O_48
REMARK   19  A    between atoms: O_48  and  C_49
REMARK                            x       y       z     vdW  Elec       q    Type
REMARK                         _______ _______ _______ _____ _____    ______ ____
ROOT
ATOM      1  C   UNL     1       7.601  -2.699  23.769  0.00  0.00    +0.134 C 
ATOM      2  C   UNL     1       6.776  -2.619  25.061  0.00  0.00    +0.082 C 
ATOM      3  C   UNL     1       6.173  -1.251  25.345  0.00  0.00    +0.007 A 
ATOM      4  C   UNL     1       5.785  -0.881  26.654  0.00  0.00    +0.132 A 
ATOM      5  C   UNL     1       5.323   0.421  26.944  0.00  0.00    +0.078 A 
ATOM      6  C   UNL     1       5.192   1.338  25.909  0.00  0.00    +0.078 A 
ATOM      7  C   UNL     1       5.480   0.950  24.588  0.00  0.00    +0.134 A 
ATOM      8  C   UNL     1       4.912   2.757  26.202  0.00  0.00    +0.202 C 
ATOM      9  O   UNL     1       5.244   3.549  25.329  0.00  0.00    -0.286 OA
ATOM     10  C   UNL     1       4.372   3.189  27.508  0.00  0.00    +0.075 A 
ATOM     11  C   UNL     1       3.837   4.460  27.804  0.00  0.00    +0.132 A 
ATOM     12  C   UNL     1       3.448   4.740  29.137  0.00  0.00    +0.046 A 
ATOM     13  C   UNL     1       3.567   3.806  30.156  0.00  0.00    +0.004 A 
ATOM     14  C   UNL     1       4.078   2.554  29.858  0.00  0.00    +0.012 A 
ATOM     15  C   UNL     1       4.472   2.242  28.546  0.00  0.00    +0.037 A 
ATOM     16  C   UNL     1       5.036   0.884  28.326  0.00  0.00    +0.198 C 
ATOM     17  O   UNL     1       5.260   0.185  29.305  0.00  0.00    -0.286 OA
ATOM     18  C   UNL     1       6.011  -0.316  24.296  0.00  0.00    +0.030 A 
ATOM     19  C   UNL     1       6.701  -0.519  22.951  0.00  0.00    +0.158 C 
ATOM     20  C   UNL     1       6.882  -1.991  22.621  0.00  0.00    +0.079 C 
ENDROOT
BRANCH   1  21
ATOM     21  O   UNL     1       8.897  -2.125  23.998  0.00  0.00    -0.381 OA
ATOM     22  H   UNL     1       8.797  -1.149  24.001  0.00  0.00    +0.211 HD
ENDBRANCH   1  21
BRANCH   4  23
ATOM     23  O   UNL     1       5.894  -1.772  27.686  0.00  0.00    -0.506 OA
ATOM     24  H   UNL     1       6.775  -2.163  27.771  0.00  0.00    +0.292 HD
ENDBRANCH   4  23
BRANCH  11  25
ATOM     25  O   UNL     1       3.585   5.569  27.049  0.00  0.00    -0.494 OA
ATOM     26  C   UNL     1       4.466   6.665  26.927  0.00  0.00    +0.277 C 
ENDBRANCH  11  25
BRANCH   7  27
ATOM     27  O   UNL     1       5.327   1.813  23.527  0.00  0.00    -0.506 OA
ATOM     28  H   UNL     1       6.220   2.105  23.225  0.00  0.00    +0.292 HD
ENDBRANCH   7  27
BRANCH   1  29
ATOM     29  C   UNL     1       7.875  -4.161  23.420  0.00  0.00    +0.202 C 
ATOM     30  O   UNL     1       8.686  -4.843  24.052  0.00  0.00    -0.291 OA
BRANCH  29  31
ATOM     31  C   UNL     1       7.101  -4.720  22.223  0.00  0.00    +0.309 C 
BRANCH  31  32
ATOM     32  O   UNL     1       6.321  -5.859  22.556  0.00  0.00    -0.457 OA
BRANCH  32  33
ATOM     33  C   UNL     1       5.067  -5.521  22.971  0.00  0.00    +0.307 C 
ATOM     34  O   UNL     1       4.418  -4.580  22.535  0.00  0.00    -0.251 OA
BRANCH  33  35
ATOM     35  C   UNL     1       4.623  -6.453  24.062  0.00  0.00    +0.120 C 
BRANCH  35  36
ATOM     36  C   UNL     1       4.630  -5.731  25.400  0.00  0.00    +0.011 C 
BRANCH  36  38
ATOM     37  C   UNL     1       5.881  -5.311  27.526  0.00  0.00    +0.004 C 
ATOM     38  C   UNL     1       5.920  -5.990  26.168  0.00  0.00    -0.003 C 
ENDBRANCH  36  38
ENDBRANCH  35  36
ENDBRANCH  33  35
ENDBRANCH  32  33
ENDBRANCH  31  32
ENDBRANCH  29  31
ENDBRANCH   1  29
BRANCH  19  39
ATOM     39  O   UNL     1       7.938   0.115  23.239  0.00  0.00    -0.343 OA
BRANCH  39  40
ATOM     40  C   UNL     1       8.756   0.686  22.241  0.00  0.00    +0.253 C 
ATOM     41  O   UNL     1      10.100   0.542  22.741  0.00  0.00    -0.346 OA
ATOM     42  C   UNL     1      10.244   1.205  24.021  0.00  0.00    +0.148 C 
ATOM     43  C   UNL     1      11.552   0.763  24.654  0.00  0.00    +0.041 C 
ATOM     44  C   UNL     1      10.131   2.713  23.766  0.00  0.00    +0.163 C 
ATOM     45  C   UNL     1       8.725   2.987  23.183  0.00  0.00    +0.109 C 
ATOM     46  C   UNL     1       8.472   2.146  21.935  0.00  0.00    +0.086 C 
BRANCH  45  47
ATOM     47  N   UNL     1       8.509   4.399  22.899  0.00  0.00    -0.302 N 
ATOM     48  H   UNL     1       9.156   5.069  23.308  0.00  0.00    +0.149 HD
ATOM     49  C   UNL     1       7.242   4.861  22.555  0.00  0.00    +0.318 C 
ATOM     50  O   UNL     1       6.290   4.089  22.417  0.00  0.00    -0.266 OA
BRANCH  49  51
ATOM     51  C   UNL     1       7.140   6.383  22.326  0.00  0.00    +0.469 C 
ATOM     52  F   UNL     1       6.096   6.941  22.994  0.00  0.00    -0.162 F 
ATOM     53  F   UNL     1       6.981   6.698  21.011  0.00  0.00    -0.162 F 
ATOM     54  F   UNL     1       8.261   7.041  22.746  0.00  0.00    -0.162 F 
ENDBRANCH  49  51
ENDBRANCH  45  47
BRANCH  44  55
ATOM     55  O   UNL     1      11.124   3.129  22.812  0.00  0.00    -0.387 OA
ATOM     56  H   UNL     1      10.646   3.321  21.981  0.00  0.00    +0.210 HD
ENDBRANCH  44  55
ENDBRANCH  39  40
ENDBRANCH  19  39
TORSDOF 16
ENDMDL
MODEL 3
REMARK VINA RESULT:      -6.9      2.825      4.784
REMARK  Name = 
REMARK  19 active torsions:
REMARK  status: ('A' for Active; 'I' for Inactive)
REMARK    1  A    between atoms: C_1  and  C_2
REMARK    2  A    between atoms: C_2  and  C_3
REMARK    3  A    between atoms: C_3  and  C_4
REMARK    4  A    between atoms: C_4  and  C_5
REMARK    5  A    between atoms: C_5  and  O_7
REMARK    6  A    between atoms: O_7  and  C_8
REMARK    7  A    between atoms: C_8  and  C_9
REMARK    8  A    between atoms: C_9  and  C_11
REMARK    9  A    between atoms: C_11  and  O_12
REMARK   10  A    between atoms: C_14  and  O_16
REMARK   11  A    between atoms: O_16  and  C_17
REMARK   12  A    between atoms: C_19  and  N_20
REMARK   13  A    between atoms: C_21  and  C_23
REMARK   14  A    between atoms: C_27  and  O_28
REMARK   15  A    between atoms: C_29  and  C_30
REMARK   16  A    between atoms: C_35  and  O_36
REMARK   17  A    between atoms: C_45  and  O_46
REMARK   18  A    between atoms: C_47  and  O_48
REMARK   19  A    between atoms: O_48  and  C_49
REMARK                            x       y       z     vdW  Elec       q    Type
REMARK                         _______ _______ _______ _____ _____    ______ ____
ROOT
ATOM      1  C   UNL     1       8.557  -1.115  23.170  0.00  0.00    +0.134 C 
ATOM      2  C   UNL     1       7.562  -0.217  23.918  0.00  0.00    +0.082 C 
ATOM      3  C   UNL     1       6.844  -0.893  25.076  0.00  0.00    +0.007 A 
ATOM      4  C   UNL     1       5.617  -0.390  25.567  0.00  0.00    +0.132 A 
ATOM      5  C   UNL     1       4.891  -1.070  26.570  0.00  0.00    +0.078 A 
ATOM      6  C   UNL     1       5.426  -2.226  27.125  0.00  0.00    +0.078 A 
ATOM      7  C   UNL     1       6.692  -2.679  26.714  0.00  0.00    +0.134 A 
ATOM      8  C   UNL     1       4.610  -3.069  28.019  0.00  0.00    +0.202 C 
ATOM      9  O   UNL     1       4.961  -4.239  28.103  0.00  0.00    -0.286 OA
ATOM     10  C   UNL     1       3.390  -2.554  28.674  0.00  0.00    +0.075 A 
ATOM     11  C   UNL     1       2.688  -3.177  29.727  0.00  0.00    +0.132 A 
ATOM     12  C   UNL     1       1.479  -2.592  30.178  0.00  0.00    +0.046 A 
ATOM     13  C   UNL     1       0.969  -1.425  29.627  0.00  0.00    +0.004 A 
ATOM     14  C   UNL     1       1.668  -0.809  28.604  0.00  0.00    +0.012 A 
ATOM     15  C   UNL     1       2.871  -1.360  28.133  0.00  0.00    +0.037 A 
ATOM     16  C   UNL     1       3.538  -0.645  27.014  0.00  0.00    +0.198 C 
ATOM     17  O   UNL     1       2.938   0.277  26.477  0.00  0.00    -0.286 OA
ATOM     18  C   UNL     1       7.389  -2.056  25.666  0.00  0.00    +0.030 A 
ATOM     19  C   UNL     1       8.513  -2.830  24.984  0.00  0.00    +0.158 C 
ATOM     20  C   UNL     1       9.405  -1.923  24.153  0.00  0.00    +0.079 C 
ENDROOT
BRANCH   1  21
ATOM     21  O   UNL     1       7.838  -1.979  22.278  0.00  0.00    -0.381 OA
ATOM     22  H   UNL     1       7.013  -1.519  22.015  0.00  0.00    +0.211 HD
ENDBRANCH   1  21
BRANCH   4  23
ATOM     23  O   UNL     1       5.077   0.753  25.045  0.00  0.00    -0.506 OA
ATOM     24  H   UNL     1       4.110   0.770  25.063  0.00  0.00    +0.292 HD
ENDBRANCH   4  23
BRANCH  11  25
ATOM     25  O   UNL     1       2.919  -4.296  30.474  0.00  0.00    -0.494 OA
ATOM     26  C   UNL     1       2.266  -5.532  30.275  0.00  0.00    +0.277 C 
ENDBRANCH  11  25
BRANCH   7  27
ATOM     27  O   UNL     1       7.278  -3.796  27.263  0.00  0.00    -0.506 OA
ATOM     28  H   UNL     1       8.144  -3.539  27.658  0.00  0.00    +0.292 HD
ENDBRANCH   7  27
BRANCH   1  29
ATOM     29  C   UNL     1       9.443  -0.262  22.262  0.00  0.00    +0.202 C 
ATOM     30  O   UNL     1       9.452  -0.405  21.037  0.00  0.00    -0.291 OA
BRANCH  29  31
ATOM     31  C   UNL     1      10.336   0.762  22.968  0.00  0.00    +0.309 C 
BRANCH  31  32
ATOM     32  O   UNL     1      10.300   2.041  22.352  0.00  0.00    -0.457 OA
BRANCH  32  33
ATOM     33  C   UNL     1      10.424   3.053  23.256  0.00  0.00    +0.307 C 
ATOM     34  O   UNL     1      11.398   3.788  23.350  0.00  0.00    -0.251 OA
BRANCH  33  35
ATOM     35  C   UNL     1       9.208   3.105  24.134  0.00  0.00    +0.120 C 
BRANCH  35  36
ATOM     36  C   UNL     1       8.386   4.345  23.815  0.00  0.00    +0.011 C 
BRANCH  36  38
ATOM     37  C   UNL     1       6.711   2.951  22.586  0.00  0.00    +0.004 C 
ATOM     38  C   UNL     1       7.604   4.178  22.519  0.00  0.00    -0.003 C 
ENDBRANCH  36  38
ENDBRANCH  35  36
ENDBRANCH  33  35
ENDBRANCH  32  33
ENDBRANCH  31  32
ENDBRANCH  29  31
ENDBRANCH   1  29
BRANCH  19  39
ATOM     39  O   UNL     1       7.727  -3.689  24.170  0.00  0.00    -0.343 OA
BRANCH  39  40
ATOM     40  C   UNL     1       7.646  -5.081  24.383  0.00  0.00    +0.253 C 
ATOM     41  O   UNL     1       7.504  -5.646  23.065  0.00  0.00    -0.346 OA
ATOM     42  C   UNL     1       6.328  -5.117  22.406  0.00  0.00    +0.148 C 
ATOM     43  C   UNL     1       6.390  -5.480  20.932  0.00  0.00    +0.041 C 
ATOM     44  C   UNL     1       5.104  -5.667  23.150  0.00  0.00    +0.163 C 
ATOM     45  C   UNL     1       5.170  -5.153  24.607  0.00  0.00    +0.109 C 
ATOM     46  C   UNL     1       6.495  -5.530  25.266  0.00  0.00    +0.086 C 
BRANCH  45  47
ATOM     47  N   UNL     1       4.050  -5.620  25.410  0.00  0.00    -0.302 N 
ATOM     48  H   UNL     1       3.977  -6.620  25.587  0.00  0.00    +0.149 HD
ATOM     49  C   UNL     1       2.880  -4.869  25.489  0.00  0.00    +0.318 C 
ATOM     50  O   UNL     1       2.783  -3.768  24.942  0.00  0.00    -0.266 OA
BRANCH  49  51
ATOM     51  C   UNL     1       1.754  -5.499  26.334  0.00  0.00    +0.469 C 
ATOM     52  F   UNL     1       0.740  -5.986  25.570  0.00  0.00    -0.162 F 
ATOM     53  F   UNL     1       1.201  -4.609  27.203  0.00  0.00    -0.162 F 
ATOM     54  F   UNL     1       2.202  -6.545  27.089  0.00  0.00    -0.162 F 
ENDBRANCH  49  51
ENDBRANCH  45  47
BRANCH  44  55
ATOM     55  O   UNL     1       5.136  -7.105  23.158  0.00  0.00    -0.387 OA
ATOM     56  H   UNL     1       4.538  -7.391  23.876  0.00  0.00    +0.210 HD
ENDBRANCH  44  55
ENDBRANCH  39  40
ENDBRANCH  19  39
TORSDOF 16
ENDMDL
MODEL 4
REMARK VINA RESULT:      -6.4      2.750      4.541
REMARK  Name = 
REMARK  19 active torsions:
REMARK  status: ('A' for Active; 'I' for Inactive)
REMARK    1  A    between atoms: C_1  and  C_2
REMARK    2  A    between atoms: C_2  and  C_3
REMARK    3  A    between atoms: C_3  and  C_4
REMARK    4  A    between atoms: C_4  and  C_5
REMARK    5  A    between atoms: C_5  and  O_7
REMARK    6  A    between atoms: O_7  and  C_8
REMARK    7  A    between atoms: C_8  and  C_9
REMARK    8  A    between atoms: C_9  and  C_11
REMARK    9  A    between atoms: C_11  and  O_12
REMARK   10  A    between atoms: C_14  and  O_16
REMARK   11  A    between atoms: O_16  and  C_17
REMARK   12  A    between atoms: C_19  and  N_20
REMARK   13  A    between atoms: C_21  and  C_23
REMARK   14  A    between atoms: C_27  and  O_28
REMARK   15  A    between atoms: C_29  and  C_30
REMARK   16  A    between atoms: C_35  and  O_36
REMARK   17  A    between atoms: C_45  and  O_46
REMARK   18  A    between atoms: C_47  and  O_48
REMARK   19  A    between atoms: O_48  and  C_49
REMARK                            x       y       z     vdW  Elec       q    Type
REMARK                         _______ _______ _______ _____ _____    ______ ____
ROOT
ATOM      1  C   UNL     1       4.486   4.275  26.603  0.00  0.00    +0.134 C 
ATOM      2  C   UNL     1       3.692   2.994  26.895  0.00  0.00    +0.082 C 
ATOM      3  C   UNL     1       4.535   1.731  26.982  0.00  0.00    +0.007 A 
ATOM      4  C   UNL     1       3.958   0.453  26.797  0.00  0.00    +0.132 A 
ATOM      5  C   UNL     1       4.750  -0.716  26.772  0.00  0.00    +0.078 A 
ATOM      6  C   UNL     1       6.117  -0.611  26.992  0.00  0.00    +0.078 A 
ATOM      7  C   UNL     1       6.687   0.643  27.277  0.00  0.00    +0.134 A 
ATOM      8  C   UNL     1       6.999  -1.773  26.771  0.00  0.00    +0.202 C 
ATOM      9  O   UNL     1       8.174  -1.507  26.553  0.00  0.00    -0.286 OA
ATOM     10  C   UNL     1       6.467  -3.151  26.707  0.00  0.00    +0.075 A 
ATOM     11  C   UNL     1       7.230  -4.336  26.754  0.00  0.00    +0.132 A 
ATOM     12  C   UNL     1       6.569  -5.577  26.586  0.00  0.00    +0.046 A 
ATOM     13  C   UNL     1       5.198  -5.666  26.386  0.00  0.00    +0.004 A 
ATOM     14  C   UNL     1       4.452  -4.501  26.356  0.00  0.00    +0.012 A 
ATOM     15  C   UNL     1       5.074  -3.253  26.521  0.00  0.00    +0.037 A 
ATOM     16  C   UNL     1       4.197  -2.056  26.446  0.00  0.00    +0.198 C 
ATOM     17  O   UNL     1       3.033  -2.212  26.101  0.00  0.00    -0.286 OA
ATOM     18  C   UNL     1       5.925   1.822  27.231  0.00  0.00    +0.030 A 
ATOM     19  C   UNL     1       6.658   3.153  27.111  0.00  0.00    +0.158 C 
ATOM     20  C   UNL     1       5.758   4.330  27.449  0.00  0.00    +0.079 C 
ENDROOT
BRANCH   1  21
ATOM     21  O   UNL     1       4.796   4.331  25.202  0.00  0.00    -0.381 OA
ATOM     22  H   UNL     1       5.773   4.336  25.110  0.00  0.00    +0.211 HD
ENDBRANCH   1  21
BRANCH   4  23
ATOM     23  O   UNL     1       2.612   0.325  26.590  0.00  0.00    -0.506 OA
ATOM     24  H   UNL     1       2.387  -0.212  25.817  0.00  0.00    +0.292 HD
ENDBRANCH   4  23
BRANCH  11  25
ATOM     25  O   UNL     1       8.559  -4.589  26.940  0.00  0.00    -0.494 OA
ATOM     26  C   UNL     1       9.464  -4.888  25.900  0.00  0.00    +0.277 C 
ENDBRANCH  11  25
BRANCH   7  27
ATOM     27  O   UNL     1       8.029   0.789  27.541  0.00  0.00    -0.506 OA
ATOM     28  H   UNL     1       8.246   1.750  27.561  0.00  0.00    +0.292 HD
ENDBRANCH   7  27
BRANCH   1  29
ATOM     29  C   UNL     1       3.608   5.498  26.860  0.00  0.00    +0.202 C 
ATOM     30  O   UNL     1       3.357   5.895  28.001  0.00  0.00    -0.291 OA
BRANCH  29  31
ATOM     31  C   UNL     1       3.037   6.187  25.616  0.00  0.00    +0.309 C 
BRANCH  31  32
ATOM     32  O   UNL     1       2.066   5.396  24.948  0.00  0.00    -0.457 OA
BRANCH  32  33
ATOM     33  C   UNL     1       2.220   5.426  23.593  0.00  0.00    +0.307 C 
ATOM     34  O   UNL     1       3.241   5.772  23.015  0.00  0.00    -0.251 OA
BRANCH  33  35
ATOM     35  C   UNL     1       0.943   5.005  22.925  0.00  0.00    +0.120 C 
BRANCH  35  36
ATOM     36  C   UNL     1       0.883   3.489  22.821  0.00  0.00    +0.011 C 
BRANCH  36  38
ATOM     37  C   UNL     1       0.945   2.215  20.669  0.00  0.00    +0.004 C 
ATOM     38  C   UNL     1       1.770   2.971  21.696  0.00  0.00    -0.003 C 
ENDBRANCH  36  38
ENDBRANCH  35  36
ENDBRANCH  33  35
ENDBRANCH  32  33
ENDBRANCH  31  32
ENDBRANCH  29  31
ENDBRANCH   1  29
BRANCH  19  39
ATOM     39  O   UNL     1       6.974   3.108  25.728  0.00  0.00    -0.343 OA
BRANCH  39  40
ATOM     40  C   UNL     1       8.296   3.180  25.242  0.00  0.00    +0.253 C 
ATOM     41  O   UNL     1       8.236   4.119  24.151  0.00  0.00    -0.346 OA
ATOM     42  C   UNL     1       7.300   3.673  23.142  0.00  0.00    +0.148 C 
ATOM     43  C   UNL     1       7.028   4.822  22.186  0.00  0.00    +0.041 C 
ATOM     44  C   UNL     1       7.900   2.422  22.486  0.00  0.00    +0.163 C 
ATOM     45  C   UNL     1       8.050   1.343  23.584  0.00  0.00    +0.109 C 
ATOM     46  C   UNL     1       8.875   1.861  24.758  0.00  0.00    +0.086 C 
BRANCH  45  47
ATOM     47  N   UNL     1       8.617   0.105  23.068  0.00  0.00    -0.302 N 
ATOM     48  H   UNL     1       9.417   0.174  22.443  0.00  0.00    +0.149 HD
ATOM     49  C   UNL     1       7.837  -1.045  22.984  0.00  0.00    +0.318 C 
ATOM     50  O   UNL     1       6.675  -1.066  23.399  0.00  0.00    -0.266 OA
BRANCH  49  51
ATOM     51  C   UNL     1       8.544  -2.273  22.377  0.00  0.00    +0.469 C 
ATOM     52  F   UNL     1       9.316  -2.930  23.283  0.00  0.00    -0.162 F 
ATOM     53  F   UNL     1       9.355  -1.939  21.335  0.00  0.00    -0.162 F 
ATOM     54  F   UNL     1       7.655  -3.190  21.893  0.00  0.00    -0.162 F 
ENDBRANCH  49  51
ENDBRANCH  45  47
BRANCH  44  55
ATOM     55  O   UNL     1       9.198   2.723  21.944  0.00  0.00    -0.387 OA
ATOM     56  H   UNL     1       9.044   3.192  21.101  0.00  0.00    +0.210 HD
ENDBRANCH  44  55
ENDBRANCH  39  40
ENDBRANCH  19  39
TORSDOF 16
ENDMDL
MODEL 5
REMARK VINA RESULT:      -6.4      3.714      9.281
REMARK  Name = 
REMARK  19 active torsions:
REMARK  status: ('A' for Active; 'I' for Inactive)
REMARK    1  A    between atoms: C_1  and  C_2
REMARK    2  A    between atoms: C_2  and  C_3
REMARK    3  A    between atoms: C_3  and  C_4
REMARK    4  A    between atoms: C_4  and  C_5
REMARK    5  A    between atoms: C_5  and  O_7
REMARK    6  A    between atoms: O_7  and  C_8
REMARK    7  A    between atoms: C_8  and  C_9
REMARK    8  A    between atoms: C_9  and  C_11
REMARK    9  A    between atoms: C_11  and  O_12
REMARK   10  A    between atoms: C_14  and  O_16
REMARK   11  A    between atoms: O_16  and  C_17
REMARK   12  A    between atoms: C_19  and  N_20
REMARK   13  A    between atoms: C_21  and  C_23
REMARK   14  A    between atoms: C_27  and  O_28
REMARK   15  A    between atoms: C_29  and  C_30
REMARK   16  A    between atoms: C_35  and  O_36
REMARK   17  A    between atoms: C_45  and  O_46
REMARK   18  A    between atoms: C_47  and  O_48
REMARK   19  A    between atoms: O_48  and  C_49
REMARK                            x       y       z     vdW  Elec       q    Type
REMARK                         _______ _______ _______ _____ _____    ______ ____
ROOT
ATOM      1  C   UNL     1       7.679  -3.566  24.347  0.00  0.00    +0.134 C 
ATOM      2  C   UNL     1       8.218  -2.428  23.470  0.00  0.00    +0.082 C 
ATOM      3  C   UNL     1       8.226  -1.061  24.138  0.00  0.00    +0.007 A 
ATOM      4  C   UNL     1       8.256   0.127  23.370  0.00  0.00    +0.132 A 
ATOM      5  C   UNL     1       8.157   1.398  23.978  0.00  0.00    +0.078 A 
ATOM      6  C   UNL     1       8.090   1.482  25.362  0.00  0.00    +0.078 A 
ATOM      7  C   UNL     1       8.161   0.313  26.140  0.00  0.00    +0.134 A 
ATOM      8  C   UNL     1       7.781   2.768  26.016  0.00  0.00    +0.202 C 
ATOM      9  O   UNL     1       7.312   2.684  27.144  0.00  0.00    -0.286 OA
ATOM     10  C   UNL     1       7.927   4.056  25.306  0.00  0.00    +0.075 A 
ATOM     11  C   UNL     1       7.906   5.336  25.898  0.00  0.00    +0.132 A 
ATOM     12  C   UNL     1       7.966   6.474  25.058  0.00  0.00    +0.046 A 
ATOM     13  C   UNL     1       8.053   6.373  23.677  0.00  0.00    +0.004 A 
ATOM     14  C   UNL     1       8.088   5.115  23.101  0.00  0.00    +0.012 A 
ATOM     15  C   UNL     1       8.033   3.964  23.904  0.00  0.00    +0.037 A 
ATOM     16  C   UNL     1       8.048   2.657  23.196  0.00  0.00    +0.198 C 
ATOM     17  O   UNL     1       7.958   2.659  21.976  0.00  0.00    -0.286 OA
ATOM     18  C   UNL     1       8.183  -0.961  25.548  0.00  0.00    +0.030 A 
ATOM     19  C   UNL     1       7.821  -2.166  26.409  0.00  0.00    +0.158 C 
ATOM     20  C   UNL     1       8.245  -3.475  25.764  0.00  0.00    +0.079 C 
ENDROOT
BRANCH   1  21
ATOM     21  O   UNL     1       6.244  -3.514  24.361  0.00  0.00    -0.381 OA
ATOM     22  H   UNL     1       5.971  -2.652  23.979  0.00  0.00    +0.211 HD
ENDBRANCH   1  21
BRANCH   4  23
ATOM     23  O   UNL     1       8.333   0.068  22.006  0.00  0.00    -0.506 OA
ATOM     24  H   UNL     1       8.940   0.718  21.623  0.00  0.00    +0.292 HD
ENDBRANCH   4  23
BRANCH  11  25
ATOM     25  O   UNL     1       7.839   5.769  27.191  0.00  0.00    -0.494 OA
ATOM     26  C   UNL     1       6.651   6.185  27.829  0.00  0.00    +0.277 C 
ENDBRANCH  11  25
BRANCH   7  27
ATOM     27  O   UNL     1       8.138   0.351  27.515  0.00  0.00    -0.506 OA
ATOM     28  H   UNL     1       8.031  -0.568  27.856  0.00  0.00    +0.292 HD
ENDBRANCH   7  27
BRANCH   1  29
ATOM     29  C   UNL     1       8.017  -4.914  23.712  0.00  0.00    +0.202 C 
ATOM     30  O   UNL     1       8.942  -5.617  24.125  0.00  0.00    -0.291 OA
BRANCH  29  31
ATOM     31  C   UNL     1       7.154  -5.326  22.515  0.00  0.00    +0.309 C 
BRANCH  31  32
ATOM     32  O   UNL     1       6.055  -6.144  22.887  0.00  0.00    -0.457 OA
BRANCH  32  33
ATOM     33  C   UNL     1       4.865  -5.485  22.790  0.00  0.00    +0.307 C 
ATOM     34  O   UNL     1       4.683  -4.468  22.135  0.00  0.00    -0.251 OA
BRANCH  33  35
ATOM     35  C   UNL     1       3.830  -6.175  23.630  0.00  0.00    +0.120 C 
BRANCH  35  36
ATOM     36  C   UNL     1       4.497  -7.163  24.574  0.00  0.00    +0.011 C 
BRANCH  36  38
ATOM     37  C   UNL     1       5.576  -6.091  26.560  0.00  0.00    +0.004 C 
ATOM     38  C   UNL     1       4.316  -6.754  26.030  0.00  0.00    -0.003 C 
ENDBRANCH  36  38
ENDBRANCH  35  36
ENDBRANCH  33  35
ENDBRANCH  32  33
ENDBRANCH  31  32
ENDBRANCH  29  31
ENDBRANCH   1  29
BRANCH  19  39
ATOM     39  O   UNL     1       6.409  -2.014  26.420  0.00  0.00    -0.343 OA
BRANCH  39  40
ATOM     40  C   UNL     1       5.659  -1.908  27.610  0.00  0.00    +0.253 C 
ATOM     41  O   UNL     1       4.518  -2.762  27.402  0.00  0.00    -0.346 OA
ATOM     42  C   UNL     1       3.769  -2.342  26.237  0.00  0.00    +0.148 C 
ATOM     43  C   UNL     1       2.782  -3.437  25.871  0.00  0.00    +0.041 C 
ATOM     44  C   UNL     1       3.129  -0.988  26.572  0.00  0.00    +0.163 C 
ATOM     45  C   UNL     1       4.272   0.014  26.856  0.00  0.00    +0.109 C 
ATOM     46  C   UNL     1       5.198  -0.502  27.955  0.00  0.00    +0.086 C 
BRANCH  45  47
ATOM     47  N   UNL     1       3.774   1.341  27.190  0.00  0.00    -0.302 N 
ATOM     48  H   UNL     1       3.156   1.427  27.994  0.00  0.00    +0.149 HD
ATOM     49  C   UNL     1       3.693   2.328  26.212  0.00  0.00    +0.318 C 
ATOM     50  O   UNL     1       4.097   2.131  25.063  0.00  0.00    -0.266 OA
BRANCH  49  51
ATOM     51  C   UNL     1       3.105   3.672  26.686  0.00  0.00    +0.469 C 
ATOM     52  F   UNL     1       3.985   4.700  26.557  0.00  0.00    -0.162 F 
ATOM     53  F   UNL     1       2.726   3.638  27.993  0.00  0.00    -0.162 F 
ATOM     54  F   UNL     1       1.995   4.026  25.974  0.00  0.00    -0.162 F 
ENDBRANCH  49  51
ENDBRANCH  45  47
BRANCH  44  55
ATOM     55  O   UNL     1       2.307  -1.108  27.747  0.00  0.00    -0.387 OA
ATOM     56  H   UNL     1       1.767  -0.294  27.791  0.00  0.00    +0.210 HD
ENDBRANCH  44  55
ENDBRANCH  39  40
ENDBRANCH  19  39
TORSDOF 16
ENDMDL
MODEL 6
REMARK VINA RESULT:      -6.1      4.471      9.482
REMARK  Name = 
REMARK  19 active torsions:
REMARK  status: ('A' for Active; 'I' for Inactive)
REMARK    1  A    between atoms: C_1  and  C_2
REMARK    2  A    between atoms: C_2  and  C_3
REMARK    3  A    between atoms: C_3  and  C_4
REMARK    4  A    between atoms: C_4  and  C_5
REMARK    5  A    between atoms: C_5  and  O_7
REMARK    6  A    between atoms: O_7  and  C_8
REMARK    7  A    between atoms: C_8  and  C_9
REMARK    8  A    between atoms: C_9  and  C_11
REMARK    9  A    between atoms: C_11  and  O_12
REMARK   10  A    between atoms: C_14  and  O_16
REMARK   11  A    between atoms: O_16  and  C_17
REMARK   12  A    between atoms: C_19  and  N_20
REMARK   13  A    between atoms: C_21  and  C_23
REMARK   14  A    between atoms: C_27  and  O_28
REMARK   15  A    between atoms: C_29  and  C_30
REMARK   16  A    between atoms: C_35  and  O_36
REMARK   17  A    between atoms: C_45  and  O_46
REMARK   18  A    between atoms: C_47  and  O_48
REMARK   19  A    between atoms: O_48  and  C_49
REMARK                            x       y       z     vdW  Elec       q    Type
REMARK                         _______ _______ _______ _____ _____    ______ ____
ROOT
ATOM      1  C   UNL     1       5.112  -2.598  25.380  0.00  0.00    +0.134 C 
ATOM      2  C   UNL     1       5.802  -1.816  24.254  0.00  0.00    +0.082 C 
ATOM      3  C   UNL     1       6.424  -0.497  24.687  0.00  0.00    +0.007 A 
ATOM      4  C   UNL     1       6.690   0.528  23.748  0.00  0.00    +0.132 A 
ATOM      5  C   UNL     1       7.169   1.792  24.156  0.00  0.00    +0.078 A 
ATOM      6  C   UNL     1       7.440   2.011  25.500  0.00  0.00    +0.078 A 
ATOM      7  C   UNL     1       7.275   0.967  26.428  0.00  0.00    +0.134 A 
ATOM      8  C   UNL     1       7.743   3.371  25.988  0.00  0.00    +0.202 C 
ATOM      9  O   UNL     1       7.533   3.560  27.179  0.00  0.00    -0.286 OA
ATOM     10  C   UNL     1       8.162   4.450  25.069  0.00  0.00    +0.075 A 
ATOM     11  C   UNL     1       8.711   5.693  25.447  0.00  0.00    +0.132 A 
ATOM     12  C   UNL     1       8.972   6.655  24.441  0.00  0.00    +0.046 A 
ATOM     13  C   UNL     1       8.714   6.413  23.099  0.00  0.00    +0.004 A 
ATOM     14  C   UNL     1       8.188   5.187  22.731  0.00  0.00    +0.012 A 
ATOM     15  C   UNL     1       7.919   4.208  23.702  0.00  0.00    +0.037 A 
ATOM     16  C   UNL     1       7.330   2.933  23.217  0.00  0.00    +0.198 C 
ATOM     17  O   UNL     1       6.980   2.865  22.047  0.00  0.00    -0.286 OA
ATOM     18  C   UNL     1       6.729  -0.270  26.049  0.00  0.00    +0.030 A 
ATOM     19  C   UNL     1       6.174  -1.181  27.139  0.00  0.00    +0.158 C 
ATOM     20  C   UNL     1       5.971  -2.603  26.644  0.00  0.00    +0.079 C 
ENDROOT
BRANCH   1  21
ATOM     21  O   UNL     1       3.822  -2.022  25.635  0.00  0.00    -0.381 OA
ATOM     22  H   UNL     1       3.212  -2.327  24.930  0.00  0.00    +0.211 HD
ENDBRANCH   1  21
BRANCH   4  23
ATOM     23  O   UNL     1       6.442   0.331  22.419  0.00  0.00    -0.506 OA
ATOM     24  H   UNL     1       5.506   0.198  22.213  0.00  0.00    +0.292 HD
ENDBRANCH   4  23
BRANCH  11  25
ATOM     25  O   UNL     1       9.082   6.227  26.647  0.00  0.00    -0.494 OA
ATOM     26  C   UNL     1       8.281   7.108  27.406  0.00  0.00    +0.277 C 
ENDBRANCH  11  25
BRANCH   7  27
ATOM     27  O   UNL     1       7.569   1.126  27.762  0.00  0.00    -0.506 OA
ATOM     28  H   UNL     1       8.330   1.747  27.848  0.00  0.00    +0.292 HD
ENDBRANCH   7  27
BRANCH   1  29
ATOM     29  C   UNL     1       4.819  -4.024  24.915  0.00  0.00    +0.202 C 
ATOM     30  O   UNL     1       4.914  -4.991  25.675  0.00  0.00    -0.291 OA
BRANCH  29  31
ATOM     31  C   UNL     1       4.427  -4.182  23.443  0.00  0.00    +0.309 C 
BRANCH  31  32
ATOM     32  O   UNL     1       5.222  -5.142  22.763  0.00  0.00    -0.457 OA
BRANCH  32  33
ATOM     33  C   UNL     1       6.049  -4.568  21.842  0.00  0.00    +0.307 C 
ATOM     34  O   UNL     1       5.693  -3.763  20.992  0.00  0.00    -0.251 OA
BRANCH  33  35
ATOM     35  C   UNL     1       7.443  -5.097  22.009  0.00  0.00    +0.120 C 
BRANCH  35  36
ATOM     36  C   UNL     1       7.692  -5.465  23.464  0.00  0.00    +0.011 C 
BRANCH  36  38
ATOM     37  C   UNL     1       8.748  -4.784  25.627  0.00  0.00    +0.004 C 
ATOM     38  C   UNL     1       8.514  -4.399  24.176  0.00  0.00    -0.003 C 
ENDBRANCH  36  38
ENDBRANCH  35  36
ENDBRANCH  33  35
ENDBRANCH  32  33
ENDBRANCH  31  32
ENDBRANCH  29  31
ENDBRANCH   1  29
BRANCH  19  39
ATOM     39  O   UNL     1       4.938  -0.520  27.372  0.00  0.00    -0.343 OA
BRANCH  39  40
ATOM     40  C   UNL     1       4.380  -0.371  28.658  0.00  0.00    +0.253 C 
ATOM     41  O   UNL     1       2.965  -0.559  28.469  0.00  0.00    -0.346 OA
ATOM     42  C   UNL     1       2.442   0.405  27.524  0.00  0.00    +0.148 C 
ATOM     43  C   UNL     1       1.043  -0.024  27.113  0.00  0.00    +0.041 C 
ATOM     44  C   UNL     1       2.519   1.784  28.192  0.00  0.00    +0.163 C 
ATOM     45  C   UNL     1       4.009   2.082  28.483  0.00  0.00    +0.109 C 
ATOM     46  C   UNL     1       4.640   0.973  29.319  0.00  0.00    +0.086 C 
BRANCH  45  47
ATOM     47  N   UNL     1       4.199   3.375  29.124  0.00  0.00    -0.302 N 
ATOM     48  H   UNL     1       3.861   3.487  30.077  0.00  0.00    +0.149 HD
ATOM     49  C   UNL     1       4.335   4.528  28.355  0.00  0.00    +0.318 C 
ATOM     50  O   UNL     1       4.364   4.480  27.123  0.00  0.00    -0.266 OA
BRANCH  49  51
ATOM     51  C   UNL     1       4.483   5.836  29.157  0.00  0.00    +0.469 C 
ATOM     52  F   UNL     1       4.009   6.917  28.482  0.00  0.00    -0.162 F 
ATOM     53  F   UNL     1       5.780   6.105  29.473  0.00  0.00    -0.162 F 
ATOM     54  F   UNL     1       3.801   5.793  30.340  0.00  0.00    -0.162 F 
ENDBRANCH  49  51
ENDBRANCH  45  47
BRANCH  44  55
ATOM     55  O   UNL     1       1.792   1.773  29.433  0.00  0.00    -0.387 OA
ATOM     56  H   UNL     1       1.665   2.708  29.688  0.00  0.00    +0.210 HD
ENDBRANCH  44  55
ENDBRANCH  39  40
ENDBRANCH  19  39
TORSDOF 16
ENDMDL
MODEL 7
REMARK VINA RESULT:      -6.0      3.991      8.906
REMARK  Name = 
REMARK  19 active torsions:
REMARK  status: ('A' for Active; 'I' for Inactive)
REMARK    1  A    between atoms: C_1  and  C_2
REMARK    2  A    between atoms: C_2  and  C_3
REMARK    3  A    between atoms: C_3  and  C_4
REMARK    4  A    between atoms: C_4  and  C_5
REMARK    5  A    between atoms: C_5  and  O_7
REMARK    6  A    between atoms: O_7  and  C_8
REMARK    7  A    between atoms: C_8  and  C_9
REMARK    8  A    between atoms: C_9  and  C_11
REMARK    9  A    between atoms: C_11  and  O_12
REMARK   10  A    between atoms: C_14  and  O_16
REMARK   11  A    between atoms: O_16  and  C_17
REMARK   12  A    between atoms: C_19  and  N_20
REMARK   13  A    between atoms: C_21  and  C_23
REMARK   14  A    between atoms: C_27  and  O_28
REMARK   15  A    between atoms: C_29  and  C_30
REMARK   16  A    between atoms: C_35  and  O_36
REMARK   17  A    between atoms: C_45  and  O_46
REMARK   18  A    between atoms: C_47  and  O_48
REMARK   19  A    between atoms: O_48  and  C_49
REMARK                            x       y       z     vdW  Elec       q    Type
REMARK                         _______ _______ _______ _____ _____    ______ ____
ROOT
ATOM      1  C   UNL     1       7.825  -2.117  26.048  0.00  0.00    +0.134 C 
ATOM      2  C   UNL     1       7.710  -1.319  27.354  0.00  0.00    +0.082 C 
ATOM      3  C   UNL     1       6.929  -0.019  27.236  0.00  0.00    +0.007 A 
ATOM      4  C   UNL     1       7.100   1.024  28.176  0.00  0.00    +0.132 A 
ATOM      5  C   UNL     1       6.458   2.271  28.016  0.00  0.00    +0.078 A 
ATOM      6  C   UNL     1       5.595   2.455  26.943  0.00  0.00    +0.078 A 
ATOM      7  C   UNL     1       5.340   1.392  26.059  0.00  0.00    +0.134 A 
ATOM      8  C   UNL     1       5.071   3.798  26.630  0.00  0.00    +0.202 C 
ATOM      9  O   UNL     1       4.706   3.963  25.473  0.00  0.00    -0.286 OA
ATOM     10  C   UNL     1       5.096   4.893  27.622  0.00  0.00    +0.075 A 
ATOM     11  C   UNL     1       4.406   6.119  27.521  0.00  0.00    +0.132 A 
ATOM     12  C   UNL     1       4.614   7.101  28.520  0.00  0.00    +0.046 A 
ATOM     13  C   UNL     1       5.465   6.894  29.597  0.00  0.00    +0.004 A 
ATOM     14  C   UNL     1       6.129   5.684  29.700  0.00  0.00    +0.012 A 
ATOM     15  C   UNL     1       5.945   4.687  28.728  0.00  0.00    +0.037 A 
ATOM     16  C   UNL     1       6.720   3.432  28.907  0.00  0.00    +0.198 C 
ATOM     17  O   UNL     1       7.570   3.397  29.787  0.00  0.00    -0.286 OA
ATOM     18  C   UNL     1       6.028   0.172  26.163  0.00  0.00    +0.030 A 
ATOM     19  C   UNL     1       6.041  -0.757  24.953  0.00  0.00    +0.158 C 
ATOM     20  C   UNL     1       6.481  -2.164  25.320  0.00  0.00    +0.079 C 
ENDROOT
BRANCH   1  21
ATOM     21  O   UNL     1       8.840  -1.529  25.220  0.00  0.00    -0.381 OA
ATOM     22  H   UNL     1       8.409  -1.207  24.400  0.00  0.00    +0.211 HD
ENDBRANCH   1  21
BRANCH   4  23
ATOM     23  O   UNL     1       7.935   0.861  29.246  0.00  0.00    -0.506 OA
ATOM     24  H   UNL     1       8.814   0.532  29.008  0.00  0.00    +0.292 HD
ENDBRANCH   4  23
BRANCH  11  25
ATOM     25  O   UNL     1       3.513   6.620  26.618  0.00  0.00    -0.494 OA
ATOM     26  C   UNL     1       3.864   7.108  25.340  0.00  0.00    +0.277 C 
ENDBRANCH  11  25
BRANCH   7  27
ATOM     27  O   UNL     1       4.463   1.515  25.007  0.00  0.00    -0.506 OA
ATOM     28  H   UNL     1       4.845   2.141  24.347  0.00  0.00    +0.292 HD
ENDBRANCH   7  27
BRANCH   1  29
ATOM     29  C   UNL     1       8.331  -3.528  26.347  0.00  0.00    +0.202 C 
ATOM     30  O   UNL     1       9.321  -3.731  27.053  0.00  0.00    -0.291 OA
BRANCH  29  31
ATOM     31  C   UNL     1       7.547  -4.672  25.696  0.00  0.00    +0.309 C 
BRANCH  31  32
ATOM     32  O   UNL     1       7.403  -5.796  26.551  0.00  0.00    -0.457 OA
BRANCH  32  33
ATOM     33  C   UNL     1       6.365  -5.651  27.423  0.00  0.00    +0.307 C 
ATOM     34  O   UNL     1       6.469  -5.682  28.641  0.00  0.00    -0.251 OA
BRANCH  33  35
ATOM     35  C   UNL     1       5.081  -5.485  26.663  0.00  0.00    +0.120 C 
BRANCH  35  36
ATOM     36  C   UNL     1       4.375  -6.825  26.530  0.00  0.00    +0.011 C 
BRANCH  36  38
ATOM     37  C   UNL     1       4.546  -6.035  24.162  0.00  0.00    +0.004 C 
ATOM     38  C   UNL     1       4.041  -7.138  25.077  0.00  0.00    -0.003 C 
ENDBRANCH  36  38
ENDBRANCH  35  36
ENDBRANCH  33  35
ENDBRANCH  32  33
ENDBRANCH  31  32
ENDBRANCH  29  31
ENDBRANCH   1  29
BRANCH  19  39
ATOM     39  O   UNL     1       7.016  -0.085  24.169  0.00  0.00    -0.343 OA
BRANCH  39  40
ATOM     40  C   UNL     1       6.807   0.262  22.818  0.00  0.00    +0.253 C 
ATOM     41  O   UNL     1       7.862  -0.406  22.100  0.00  0.00    -0.346 OA
ATOM     42  C   UNL     1       9.159   0.017  22.584  0.00  0.00    +0.148 C 
ATOM     43  C   UNL     1      10.215  -0.929  22.039  0.00  0.00    +0.041 C 
ATOM     44  C   UNL     1       9.340   1.485  22.176  0.00  0.00    +0.163 C 
ATOM     45  C   UNL     1       8.224   2.305  22.864  0.00  0.00    +0.109 C 
ATOM     46  C   UNL     1       6.843   1.752  22.524  0.00  0.00    +0.086 C 
BRANCH  45  47
ATOM     47  N   UNL     1       8.300   3.722  22.541  0.00  0.00    -0.302 N 
ATOM     48  H   UNL     1       8.727   3.985  21.656  0.00  0.00    +0.149 HD
ATOM     49  C   UNL     1       8.292   4.676  23.556  0.00  0.00    +0.318 C 
ATOM     50  O   UNL     1       8.157   4.356  24.739  0.00  0.00    -0.266 OA
BRANCH  49  51
ATOM     51  C   UNL     1       8.426   6.137  23.081  0.00  0.00    +0.469 C 
ATOM     52  F   UNL     1       7.860   6.343  21.862  0.00  0.00    -0.162 F 
ATOM     53  F   UNL     1       9.725   6.532  22.985  0.00  0.00    -0.162 F 
ATOM     54  F   UNL     1       7.822   7.012  23.938  0.00  0.00    -0.162 F 
ENDBRANCH  49  51
ENDBRANCH  45  47
BRANCH  44  55
ATOM     55  O   UNL     1       9.209   1.620  20.750  0.00  0.00    -0.387 OA
ATOM     56  H   UNL     1      10.081   1.397  20.369  0.00  0.00    +0.210 HD
ENDBRANCH  44  55
ENDBRANCH  39  40
ENDBRANCH  19  39
TORSDOF 16
ENDMDL
MODEL 8
REMARK VINA RESULT:      -6.0      3.819      5.977
REMARK  Name = 
REMARK  19 active torsions:
REMARK  status: ('A' for Active; 'I' for Inactive)
REMARK    1  A    between atoms: C_1  and  C_2
REMARK    2  A    between atoms: C_2  and  C_3
REMARK    3  A    between atoms: C_3  and  C_4
REMARK    4  A    between atoms: C_4  and  C_5
REMARK    5  A    between atoms: C_5  and  O_7
REMARK    6  A    between atoms: O_7  and  C_8
REMARK    7  A    between atoms: C_8  and  C_9
REMARK    8  A    between atoms: C_9  and  C_11
REMARK    9  A    between atoms: C_11  and  O_12
REMARK   10  A    between atoms: C_14  and  O_16
REMARK   11  A    between atoms: O_16  and  C_17
REMARK   12  A    between atoms: C_19  and  N_20
REMARK   13  A    between atoms: C_21  and  C_23
REMARK   14  A    between atoms: C_27  and  O_28
REMARK   15  A    between atoms: C_29  and  C_30
REMARK   16  A    between atoms: C_35  and  O_36
REMARK   17  A    between atoms: C_45  and  O_46
REMARK   18  A    between atoms: C_47  and  O_48
REMARK   19  A    between atoms: O_48  and  C_49
REMARK                            x       y       z     vdW  Elec       q    Type
REMARK                         _______ _______ _______ _____ _____    ______ ____
ROOT
ATOM      1  C   UNL     1       9.120   1.528  23.719  0.00  0.00    +0.134 C 
ATOM      2  C   UNL     1       9.069   0.008  23.512  0.00  0.00    +0.082 C 
ATOM      3  C   UNL     1       7.881  -0.681  24.167  0.00  0.00    +0.007 A 
ATOM      4  C   UNL     1       7.910  -2.065  24.460  0.00  0.00    +0.132 A 
ATOM      5  C   UNL     1       6.856  -2.690  25.162  0.00  0.00    +0.078 A 
ATOM      6  C   UNL     1       5.742  -1.941  25.519  0.00  0.00    +0.078 A 
ATOM      7  C   UNL     1       5.659  -0.588  25.143  0.00  0.00    +0.134 A 
ATOM      8  C   UNL     1       4.723  -2.505  26.424  0.00  0.00    +0.202 C 
ATOM      9  O   UNL     1       4.045  -1.683  27.027  0.00  0.00    -0.286 OA
ATOM     10  C   UNL     1       4.615  -3.959  26.662  0.00  0.00    +0.075 A 
ATOM     11  C   UNL     1       3.540  -4.617  27.295  0.00  0.00    +0.132 A 
ATOM     12  C   UNL     1       3.638  -6.011  27.528  0.00  0.00    +0.046 A 
ATOM     13  C   UNL     1       4.750  -6.750  27.147  0.00  0.00    +0.004 A 
ATOM     14  C   UNL     1       5.797  -6.102  26.514  0.00  0.00    +0.012 A 
ATOM     15  C   UNL     1       5.732  -4.721  26.265  0.00  0.00    +0.037 A 
ATOM     16  C   UNL     1       6.913  -4.107  25.605  0.00  0.00    +0.198 C 
ATOM     17  O   UNL     1       7.915  -4.795  25.456  0.00  0.00    -0.286 OA
ATOM     18  C   UNL     1       6.730   0.065  24.513  0.00  0.00    +0.030 A 
ATOM     19  C   UNL     1       6.760   1.590  24.530  0.00  0.00    +0.158 C 
ATOM     20  C   UNL     1       7.740   2.151  23.513  0.00  0.00    +0.079 C 
ENDROOT
BRANCH   1  21
ATOM     21  O   UNL     1       9.624   1.811  25.033  0.00  0.00    -0.381 OA
ATOM     22  H   UNL     1       9.697   2.785  25.123  0.00  0.00    +0.211 HD
ENDBRANCH   1  21
BRANCH   4  23
ATOM     23  O   UNL     1       8.991  -2.825  24.109  0.00  0.00    -0.506 OA
ATOM     24  H   UNL     1       8.851  -3.355  23.311  0.00  0.00    +0.292 HD
ENDBRANCH   4  23
BRANCH  11  25
ATOM     25  O   UNL     1       2.331  -4.195  27.770  0.00  0.00    -0.494 OA
ATOM     26  C   UNL     1       2.084  -3.849  29.116  0.00  0.00    +0.277 C 
ENDBRANCH  11  25
BRANCH   7  27
ATOM     27  O   UNL     1       4.559   0.183  25.440  0.00  0.00    -0.506 OA
ATOM     28  H   UNL     1       4.825   0.882  26.082  0.00  0.00    +0.292 HD
ENDBRANCH   7  27
BRANCH   1  29
ATOM     29  C   UNL     1      10.143   2.145  22.766  0.00  0.00    +0.202 C 
ATOM     30  O   UNL     1      10.276   1.751  21.605  0.00  0.00    -0.291 OA
BRANCH  29  31
ATOM     31  C   UNL     1      11.011   3.265  23.348  0.00  0.00    +0.309 C 
BRANCH  31  32
ATOM     32  O   UNL     1      10.243   4.328  23.893  0.00  0.00    -0.457 OA
BRANCH  32  33
ATOM     33  C   UNL     1      10.870   5.533  23.770  0.00  0.00    +0.307 C 
ATOM     34  O   UNL     1      12.028   5.682  23.405  0.00  0.00    -0.251 OA
BRANCH  33  35
ATOM     35  C   UNL     1       9.939   6.637  24.180  0.00  0.00    +0.120 C 
BRANCH  35  36
ATOM     36  C   UNL     1       8.496   6.169  24.074  0.00  0.00    +0.011 C 
BRANCH  36  38
ATOM     37  C   UNL     1       7.155   5.500  22.071  0.00  0.00    +0.004 C 
ATOM     38  C   UNL     1       7.845   6.650  22.783  0.00  0.00    -0.003 C 
ENDBRANCH  36  38
ENDBRANCH  35  36
ENDBRANCH  33  35
ENDBRANCH  32  33
ENDBRANCH  31  32
ENDBRANCH  29  31
ENDBRANCH   1  29
BRANCH  19  39
ATOM     39  O   UNL     1       7.210   1.787  25.863  0.00  0.00    -0.343 OA
BRANCH  39  40
ATOM     40  C   UNL     1       7.108   3.026  26.529  0.00  0.00    +0.253 C 
ATOM     41  O   UNL     1       7.148   2.694  27.930  0.00  0.00    -0.346 OA
ATOM     42  C   UNL     1       6.069   1.791  28.273  0.00  0.00    +0.148 C 
ATOM     43  C   UNL     1       6.332   1.220  29.656  0.00  0.00    +0.041 C 
ATOM     44  C   UNL     1       4.759   2.579  28.143  0.00  0.00    +0.163 C 
ATOM     45  C   UNL     1       4.625   3.028  26.669  0.00  0.00    +0.109 C 
ATOM     46  C   UNL     1       5.850   3.820  26.221  0.00  0.00    +0.086 C 
BRANCH  45  47
ATOM     47  N   UNL     1       3.409   3.792  26.432  0.00  0.00    -0.302 N 
ATOM     48  H   UNL     1       2.975   4.254  27.229  0.00  0.00    +0.149 HD
ATOM     49  C   UNL     1       2.593   3.496  25.343  0.00  0.00    +0.318 C 
ATOM     50  O   UNL     1       2.907   2.632  24.521  0.00  0.00    -0.266 OA
BRANCH  49  51
ATOM     51  C   UNL     1       1.313   4.347  25.234  0.00  0.00    +0.469 C 
ATOM     52  F   UNL     1       0.625   4.108  24.086  0.00  0.00    -0.162 F 
ATOM     53  F   UNL     1       1.576   5.683  25.266  0.00  0.00    -0.162 F 
ATOM     54  F   UNL     1       0.444   4.103  26.259  0.00  0.00    -0.162 F 
ENDBRANCH  49  51
ENDBRANCH  45  47
BRANCH  44  55
ATOM     55  O   UNL     1       4.797   3.743  28.987  0.00  0.00    -0.387 OA
ATOM     56  H   UNL     1       3.955   3.753  29.484  0.00  0.00    +0.210 HD
ENDBRANCH  44  55
ENDBRANCH  39  40
ENDBRANCH  19  39
TORSDOF 16
ENDMDL
MODEL 9
REMARK VINA RESULT:      -5.9      3.488      5.709
REMARK  Name = 
REMARK  19 active torsions:
REMARK  status: ('A' for Active; 'I' for Inactive)
REMARK    1  A    between atoms: C_1  and  C_2
REMARK    2  A    between atoms: C_2  and  C_3
REMARK    3  A    between atoms: C_3  and  C_4
REMARK    4  A    between atoms: C_4  and  C_5
REMARK    5  A    between atoms: C_5  and  O_7
REMARK    6  A    between atoms: O_7  and  C_8
REMARK    7  A    between atoms: C_8  and  C_9
REMARK    8  A    between atoms: C_9  and  C_11
REMARK    9  A    between atoms: C_11  and  O_12
REMARK   10  A    between atoms: C_14  and  O_16
REMARK   11  A    between atoms: O_16  and  C_17
REMARK   12  A    between atoms: C_19  and  N_20
REMARK   13  A    between atoms: C_21  and  C_23
REMARK   14  A    between atoms: C_27  and  O_28
REMARK   15  A    between atoms: C_29  and  C_30
REMARK   16  A    between atoms: C_35  and  O_36
REMARK   17  A    between atoms: C_45  and  O_46
REMARK   18  A    between atoms: C_47  and  O_48
REMARK   19  A    between atoms: O_48  and  C_49
REMARK                            x       y       z     vdW  Elec       q    Type
REMARK                         _______ _______ _______ _____ _____    ______ ____
ROOT
ATOM      1  C   UNL     1       8.809  -1.023  23.714  0.00  0.00    +0.134 C 
ATOM      2  C   UNL     1       8.623  -2.478  24.163  0.00  0.00    +0.082 C 
ATOM      3  C   UNL     1       7.433  -2.712  25.080  0.00  0.00    +0.007 A 
ATOM      4  C   UNL     1       7.372  -3.846  25.924  0.00  0.00    +0.132 A 
ATOM      5  C   UNL     1       6.323  -4.017  26.854  0.00  0.00    +0.078 A 
ATOM      6  C   UNL     1       5.299  -3.079  26.897  0.00  0.00    +0.078 A 
ATOM      7  C   UNL     1       5.297  -2.001  25.994  0.00  0.00    +0.134 A 
ATOM      8  C   UNL     1       4.304  -3.113  27.985  0.00  0.00    +0.202 C 
ATOM      9  O   UNL     1       3.735  -2.052  28.211  0.00  0.00    -0.286 OA
ATOM     10  C   UNL     1       4.097  -4.321  28.813  0.00  0.00    +0.075 A 
ATOM     11  C   UNL     1       3.020  -4.547  29.694  0.00  0.00    +0.132 A 
ATOM     12  C   UNL     1       3.024  -5.722  30.484  0.00  0.00    +0.046 A 
ATOM     13  C   UNL     1       4.045  -6.660  30.415  0.00  0.00    +0.004 A 
ATOM     14  C   UNL     1       5.093  -6.440  29.538  0.00  0.00    +0.012 A 
ATOM     15  C   UNL     1       5.120  -5.287  28.737  0.00  0.00    +0.037 A 
ATOM     16  C   UNL     1       6.299  -5.122  27.846  0.00  0.00    +0.198 C 
ATOM     17  O   UNL     1       7.230  -5.907  27.968  0.00  0.00    -0.286 OA
ATOM     18  C   UNL     1       6.371  -1.779  25.117  0.00  0.00    +0.030 A 
ATOM     19  C   UNL     1       6.523  -0.394  24.495  0.00  0.00    +0.158 C 
ATOM     20  C   UNL     1       7.471  -0.405  23.308  0.00  0.00    +0.079 C 
ENDROOT
BRANCH   1  21
ATOM     21  O   UNL     1       9.422  -0.274  24.774  0.00  0.00    -0.381 OA
ATOM     22  H   UNL     1       8.996  -0.542  25.616  0.00  0.00    +0.211 HD
ENDBRANCH   1  21
BRANCH   4  23
ATOM     23  O   UNL     1       8.363  -4.788  25.890  0.00  0.00    -0.506 OA
ATOM     24  H   UNL     1       8.617  -5.054  24.995  0.00  0.00    +0.292 HD
ENDBRANCH   4  23
BRANCH  11  25
ATOM     25  O   UNL     1       1.884  -3.848  29.985  0.00  0.00    -0.494 OA
ATOM     26  C   UNL     1       0.734  -3.822  29.166  0.00  0.00    +0.277 C 
ENDBRANCH  11  25
BRANCH   7  27
ATOM     27  O   UNL     1       4.285  -1.071  25.974  0.00  0.00    -0.506 OA
ATOM     28  H   UNL     1       3.923  -1.014  25.058  0.00  0.00    +0.292 HD
ENDBRANCH   7  27
BRANCH   1  29
ATOM     29  C   UNL     1       9.809  -0.961  22.560  0.00  0.00    +0.202 C 
ATOM     30  O   UNL     1      10.602  -1.877  22.333  0.00  0.00    -0.291 OA
BRANCH  29  31
ATOM     31  C   UNL     1       9.784   0.320  21.720  0.00  0.00    +0.309 C 
BRANCH  31  32
ATOM     32  O   UNL     1      10.310   1.442  22.413  0.00  0.00    -0.457 OA
BRANCH  32  33
ATOM     33  C   UNL     1       9.403   2.455  22.518  0.00  0.00    +0.307 C 
ATOM     34  O   UNL     1       8.373   2.539  21.864  0.00  0.00    -0.251 OA
BRANCH  33  35
ATOM     35  C   UNL     1       9.876   3.461  23.527  0.00  0.00    +0.120 C 
BRANCH  35  36
ATOM     36  C   UNL     1      11.382   3.645  23.415  0.00  0.00    +0.011 C 
BRANCH  36  38
ATOM     37  C   UNL     1      13.134   5.332  22.828  0.00  0.00    +0.004 C 
ATOM     38  C   UNL     1      11.769   5.118  23.460  0.00  0.00    -0.003 C 
ENDBRANCH  36  38
ENDBRANCH  35  36
ENDBRANCH  33  35
ENDBRANCH  32  33
ENDBRANCH  31  32
ENDBRANCH  29  31
ENDBRANCH   1  29
BRANCH  19  39
ATOM     39  O   UNL     1       7.077   0.290  25.609  0.00  0.00    -0.343 OA
BRANCH  39  40
ATOM     40  C   UNL     1       7.272   1.686  25.630  0.00  0.00    +0.253 C 
ATOM     41  O   UNL     1       7.108   2.059  27.012  0.00  0.00    -0.346 OA
ATOM     42  C   UNL     1       5.797   1.677  27.494  0.00  0.00    +0.148 C 
ATOM     43  C   UNL     1       5.782   1.790  29.009  0.00  0.00    +0.041 C 
ATOM     44  C   UNL     1       4.773   2.563  26.774  0.00  0.00    +0.163 C 
ATOM     45  C   UNL     1       4.885   2.276  25.258  0.00  0.00    +0.109 C 
ATOM     46  C   UNL     1       6.313   2.483  24.762  0.00  0.00    +0.086 C 
BRANCH  45  47
ATOM     47  N   UNL     1       3.952   3.071  24.474  0.00  0.00    -0.302 N 
ATOM     48  H   UNL     1       3.012   3.201  24.842  0.00  0.00    +0.149 HD
ATOM     49  C   UNL     1       4.123   3.202  23.098  0.00  0.00    +0.318 C 
ATOM     50  O   UNL     1       5.095   2.708  22.521  0.00  0.00    -0.266 OA
BRANCH  49  51
ATOM     51  C   UNL     1       3.040   4.031  22.380  0.00  0.00    +0.469 C 
ATOM     52  F   UNL     1       1.889   4.119  23.099  0.00  0.00    -0.162 F 
ATOM     53  F   UNL     1       2.709   3.508  21.167  0.00  0.00    -0.162 F 
ATOM     54  F   UNL     1       3.446   5.314  22.146  0.00  0.00    -0.162 F 
ENDBRANCH  49  51
ENDBRANCH  45  47
BRANCH  44  55
ATOM     55  O   UNL     1       5.068   3.951  27.011  0.00  0.00    -0.387 OA
ATOM     56  H   UNL     1       5.997   3.990  27.309  0.00  0.00    +0.210 HD
ENDBRANCH  44  55
ENDBRANCH  39  40
ENDBRANCH  19  39
TORSDOF 16
ENDMDL
