MODEL 1
REMARK VINA RESULT:      -7.3      0.000      0.000
REMARK  Name = 
REMARK  19 active torsions:
REMARK  status: ('A' for Active; 'I' for Inactive)
REMARK    1  A    between atoms: N_10  and  C_11
REMARK    2  A    between atoms: C_14  and  C_16
REMARK    3  A    between atoms: C_16  and  O_17
REMARK    4  A    between atoms: O_17  and  P_18
REMARK    5  A    between atoms: P_18  and  O_19
REMARK    6  A    between atoms: P_18  and  O_21
REMARK    7  A    between atoms: O_21  and  P_22
REMARK    8  A    between atoms: P_22  and  O_23
REMARK    9  A    between atoms: P_22  and  O_25
REMARK   10  A    between atoms: O_25  and  P_26
REMARK   11  A    between atoms: P_26  and  O_27
REMARK   12  A    between atoms: P_26  and  O_29
REMARK   13  A    between atoms: O_29  and  C_30
REMARK   14  A    between atoms: C_30  and  C_31
REMARK   15  A    between atoms: C_34  and  N_42
REMARK   16  A    between atoms: C_36  and  O_38
REMARK   17  A    between atoms: C_39  and  O_41
REMARK   18  A    between atoms: C_52  and  O_54
REMARK   19  A    between atoms: C_55  and  O_57
REMARK                            x       y       z     vdW  Elec       q    Type
REMARK                         _______ _______ _______ _____ _____    ______ ____
ROOT
ATOM      1  P   UNL     1       4.908  -2.815  27.715  0.00  0.00    +0.492 P 
ATOM      2  O   UNL     1       6.012  -2.340  26.815  0.00  0.00    -0.226 OA
ENDROOT
BRANCH   1   3
ATOM      3  O   UNL     1       3.816  -3.635  26.842  0.00  0.00    -0.302 OA
ATOM      4  H   UNL     1       4.301  -3.936  26.058  0.00  0.00    +0.222 HD
ENDBRANCH   1   3
BRANCH   1   5
ATOM      5  O   UNL     1       5.482  -4.439  28.258  0.00  0.00    -0.186 OA
BRANCH   5   6
ATOM      6  P   UNL     1       6.763  -5.214  27.392  0.00  0.00    +0.483 P 
ATOM      7  O   UNL     1       5.752  -5.789  26.406  0.00  0.00    -0.227 OA
BRANCH   6   8
ATOM      8  O   UNL     1       6.814  -6.318  28.599  0.00  0.00    -0.302 OA
ATOM      9  H   UNL     1       5.890  -6.576  28.791  0.00  0.00    +0.222 HD
ENDBRANCH   6   8
BRANCH   6  10
ATOM     10  O   UNL     1       8.044  -5.990  26.527  0.00  0.00    -0.284 OA
BRANCH  10  11
ATOM     11  C   UNL     1       9.135  -5.148  26.143  0.00  0.00    +0.206 C 
BRANCH  11  12
ATOM     12  C   UNL     1       9.252  -4.996  24.628  0.00  0.00    +0.178 C 
ATOM     13  C   UNL     1       7.918  -5.169  23.902  0.00  0.00    +0.178 C 
ATOM     14  C   UNL     1       7.451  -3.754  23.580  0.00  0.00    +0.195 C 
ATOM     15  C   UNL     1       8.561  -2.856  24.140  0.00  0.00    +0.253 C 
ATOM     16  O   UNL     1       9.728  -3.678  24.310  0.00  0.00    -0.346 OA
BRANCH  15  17
ATOM     17  N   UNL     1       8.883  -1.751  23.262  0.00  0.00    -0.286 N 
ATOM     18  C   UNL     1       9.585  -0.645  23.658  0.00  0.00    +0.167 A 
ATOM     19  N   UNL     1      10.097  -0.391  24.872  0.00  0.00    -0.216 NA
ATOM     20  C   UNL     1      10.700   0.820  24.878  0.00  0.00    +0.225 A 
ATOM     21  N   UNL     1      10.794   1.719  23.876  0.00  0.00    -0.219 NA
ATOM     22  C   UNL     1      10.226   1.416  22.687  0.00  0.00    +0.147 A 
ATOM     23  N   UNL     1      10.286   2.355  21.663  0.00  0.00    -0.341 N 
ATOM     24  H   UNL     1      10.149   1.960  20.741  0.00  0.00    +0.144 HD
ATOM     25  H   UNL     1      11.037   3.019  21.792  0.00  0.00    +0.144 HD
ATOM     26  C   UNL     1       9.594   0.195  22.522  0.00  0.00    +0.147 A 
ATOM     27  N   UNL     1       8.978  -0.445  21.467  0.00  0.00    -0.231 NA
ATOM     28  C   UNL     1       8.567  -1.603  21.941  0.00  0.00    +0.203 A 
ENDBRANCH  15  17
BRANCH  14  29
ATOM     29  O   UNL     1       6.186  -3.482  24.182  0.00  0.00    -0.385 OA
ATOM     30  H   UNL     1       6.286  -3.637  25.144  0.00  0.00    +0.210 HD
ENDBRANCH  14  29
BRANCH  13  31
ATOM     31  O   UNL     1       8.135  -5.903  22.685  0.00  0.00    -0.386 OA
ATOM     32  H   UNL     1       7.272  -6.140  22.300  0.00  0.00    +0.210 HD
ENDBRANCH  13  31
ENDBRANCH  11  12
ENDBRANCH  10  11
ENDBRANCH   6  10
ENDBRANCH   5   6
ENDBRANCH   1   5
BRANCH   1  33
ATOM     33  O   UNL     1       3.740  -1.510  27.657  0.00  0.00    -0.186 OA
BRANCH  33  34
ATOM     34  P   UNL     1       3.007  -0.579  28.918  0.00  0.00    +0.483 P 
ATOM     35  O   UNL     1       4.077  -0.991  29.924  0.00  0.00    -0.227 OA
BRANCH  34  36
ATOM     36  O   UNL     1       2.275   0.352  30.179  0.00  0.00    -0.302 OA
ATOM     37  H   UNL     1       2.988   0.982  30.425  0.00  0.00    +0.222 HD
ENDBRANCH  34  36
BRANCH  34  38
ATOM     38  O   UNL     1       3.456   0.826  28.163  0.00  0.00    -0.284 OA
BRANCH  38  39
ATOM     39  C   UNL     1       3.674   0.636  26.767  0.00  0.00    +0.206 C 
BRANCH  39  43
ATOM     40  C   UNL     1       6.755   0.977  24.883  0.00  0.00    +0.253 C 
ATOM     41  C   UNL     1       7.272   1.165  26.314  0.00  0.00    +0.195 C 
ATOM     42  C   UNL     1       6.048   1.614  27.119  0.00  0.00    +0.178 C 
ATOM     43  C   UNL     1       4.864   1.386  26.177  0.00  0.00    +0.178 C 
ATOM     44  O   UNL     1       5.371   0.584  25.081  0.00  0.00    -0.346 OA
BRANCH  40  52
ATOM     45  N   UNL     1       7.620   5.987  21.586  0.00  0.00    -0.341 N 
ATOM     46  H   UNL     1       7.403   5.438  20.763  0.00  0.00    +0.144 HD
ATOM     47  H   UNL     1       8.354   6.681  21.510  0.00  0.00    +0.144 HD
ATOM     48  C   UNL     1       7.770   5.217  22.736  0.00  0.00    +0.147 A 
ATOM     49  C   UNL     1       7.212   3.934  22.873  0.00  0.00    +0.147 A 
ATOM     50  N   UNL     1       6.481   3.149  22.007  0.00  0.00    -0.231 NA
ATOM     51  C   UNL     1       6.259   2.038  22.675  0.00  0.00    +0.203 A 
ATOM     52  N   UNL     1       6.790   2.087  23.951  0.00  0.00    -0.286 N 
ATOM     53  C   UNL     1       7.442   3.277  24.070  0.00  0.00    +0.167 A 
ATOM     54  N   UNL     1       8.159   3.729  25.108  0.00  0.00    -0.216 NA
ATOM     55  C   UNL     1       8.640   4.965  24.867  0.00  0.00    +0.225 A 
ATOM     56  N   UNL     1       8.489   5.725  23.762  0.00  0.00    -0.219 NA
ENDBRANCH  40  52
BRANCH  42  57
ATOM     57  O   UNL     1       6.168   2.998  27.436  0.00  0.00    -0.386 OA
ATOM     58  H   UNL     1       7.108   3.178  27.624  0.00  0.00    +0.210 HD
ENDBRANCH  42  57
BRANCH  41  59
ATOM     59  O   UNL     1       7.732  -0.106  26.831  0.00  0.00    -0.385 OA
ATOM     60  H   UNL     1       8.704  -0.116  26.820  0.00  0.00    +0.210 HD
ENDBRANCH  41  59
ENDBRANCH  39  43
ENDBRANCH  38  39
ENDBRANCH  34  38
ENDBRANCH  33  34
ENDBRANCH   1  33
TORSDOF 19
ENDMDL
MODEL 2
REMARK VINA RESULT:      -7.2      1.576      5.975
REMARK  Name = 
REMARK  19 active torsions:
REMARK  status: ('A' for Active; 'I' for Inactive)
REMARK    1  A    between atoms: N_10  and  C_11
REMARK    2  A    between atoms: C_14  and  C_16
REMARK    3  A    between atoms: C_16  and  O_17
REMARK    4  A    between atoms: O_17  and  P_18
REMARK    5  A    between atoms: P_18  and  O_19
REMARK    6  A    between atoms: P_18  and  O_21
REMARK    7  A    between atoms: O_21  and  P_22
REMARK    8  A    between atoms: P_22  and  O_23
REMARK    9  A    between atoms: P_22  and  O_25
REMARK   10  A    between atoms: O_25  and  P_26
REMARK   11  A    between atoms: P_26  and  O_27
REMARK   12  A    between atoms: P_26  and  O_29
REMARK   13  A    between atoms: O_29  and  C_30
REMARK   14  A    between atoms: C_30  and  C_31
REMARK   15  A    between atoms: C_34  and  N_42
REMARK   16  A    between atoms: C_36  and  O_38
REMARK   17  A    between atoms: C_39  and  O_41
REMARK   18  A    between atoms: C_52  and  O_54
REMARK   19  A    between atoms: C_55  and  O_57
REMARK                            x       y       z     vdW  Elec       q    Type
REMARK                         _______ _______ _______ _____ _____    ______ ____
ROOT
ATOM      1  P   UNL     1       3.034  -3.644  26.478  0.00  0.00    +0.492 P 
ATOM      2  O   UNL     1       1.782  -4.390  26.116  0.00  0.00    -0.226 OA
ENDROOT
BRANCH   1   3
ATOM      3  O   UNL     1       3.543  -2.792  25.197  0.00  0.00    -0.302 OA
ATOM      4  H   UNL     1       2.750  -2.659  24.657  0.00  0.00    +0.222 HD
ENDBRANCH   1   3
BRANCH   1   5
ATOM      5  O   UNL     1       2.415  -2.067  27.102  0.00  0.00    -0.186 OA
BRANCH   5   6
ATOM      6  P   UNL     1       3.458  -1.068  28.054  0.00  0.00    +0.483 P 
ATOM      7  O   UNL     1       3.778  -0.224  26.825  0.00  0.00    -0.227 OA
BRANCH   6   8
ATOM      8  O   UNL     1       4.553  -2.283  27.999  0.00  0.00    -0.302 OA
ATOM      9  H   UNL     1       4.190  -3.021  28.529  0.00  0.00    +0.222 HD
ENDBRANCH   6   8
BRANCH   6  10
ATOM     10  O   UNL     1       4.502  -0.070  29.007  0.00  0.00    -0.284 OA
BRANCH  10  11
ATOM     11  C   UNL     1       4.228   1.333  28.968  0.00  0.00    +0.206 C 
BRANCH  11  12
ATOM     12  C   UNL     1       5.497   2.176  28.865  0.00  0.00    +0.178 C 
ATOM     13  C   UNL     1       6.745   1.347  28.563  0.00  0.00    +0.178 C 
ATOM     14  C   UNL     1       7.005   1.542  27.074  0.00  0.00    +0.195 C 
ATOM     15  C   UNL     1       5.884   2.483  26.618  0.00  0.00    +0.253 C 
ATOM     16  O   UNL     1       5.361   3.124  27.795  0.00  0.00    -0.346 OA
BRANCH  15  17
ATOM     17  N   UNL     1       6.346   3.496  25.692  0.00  0.00    -0.286 N 
ATOM     18  C   UNL     1       6.488   3.290  24.347  0.00  0.00    +0.167 A 
ATOM     19  N   UNL     1       6.228   2.168  23.659  0.00  0.00    -0.216 NA
ATOM     20  C   UNL     1       6.522   2.346  22.351  0.00  0.00    +0.225 A 
ATOM     21  N   UNL     1       7.033   3.438  21.744  0.00  0.00    -0.219 NA
ATOM     22  C   UNL     1       7.305   4.524  22.500  0.00  0.00    +0.147 A 
ATOM     23  N   UNL     1       7.869   5.638  21.887  0.00  0.00    -0.341 N 
ATOM     24  H   UNL     1       7.744   6.496  22.409  0.00  0.00    +0.144 HD
ATOM     25  H   UNL     1       7.701   5.655  20.891  0.00  0.00    +0.144 HD
ATOM     26  C   UNL     1       7.031   4.499  23.858  0.00  0.00    +0.147 A 
ATOM     27  N   UNL     1       7.126   5.414  24.885  0.00  0.00    -0.231 NA
ATOM     28  C   UNL     1       6.708   4.786  25.964  0.00  0.00    +0.203 A 
ENDBRANCH  15  17
BRANCH  14  29
ATOM     29  O   UNL     1       6.973   0.295  26.380  0.00  0.00    -0.385 OA
ATOM     30  H   UNL     1       7.585   0.374  25.620  0.00  0.00    +0.210 HD
ENDBRANCH  14  29
BRANCH  13  31
ATOM     31  O   UNL     1       7.849   1.862  29.326  0.00  0.00    -0.386 OA
ATOM     32  H   UNL     1       8.154   1.175  29.946  0.00  0.00    +0.210 HD
ENDBRANCH  13  31
ENDBRANCH  11  12
ENDBRANCH  10  11
ENDBRANCH   6  10
ENDBRANCH   5   6
ENDBRANCH   1   5
BRANCH   1  33
ATOM     33  O   UNL     1       4.315  -4.759  26.047  0.00  0.00    -0.186 OA
BRANCH  33  34
ATOM     34  P   UNL     1       4.323  -6.139  25.004  0.00  0.00    +0.483 P 
ATOM     35  O   UNL     1       3.635  -5.368  23.882  0.00  0.00    -0.227 OA
BRANCH  34  36
ATOM     36  O   UNL     1       4.331  -7.519  23.960  0.00  0.00    -0.302 OA
ATOM     37  H   UNL     1       3.514  -7.394  23.430  0.00  0.00    +0.222 HD
ENDBRANCH  34  36
BRANCH  34  38
ATOM     38  O   UNL     1       5.968  -6.024  24.838  0.00  0.00    -0.284 OA
BRANCH  38  39
ATOM     39  C   UNL     1       6.338  -5.305  23.664  0.00  0.00    +0.206 C 
BRANCH  39  43
ATOM     40  C   UNL     1       9.236  -3.201  24.242  0.00  0.00    +0.253 C 
ATOM     41  C   UNL     1       8.556  -3.134  25.614  0.00  0.00    +0.195 C 
ATOM     42  C   UNL     1       7.087  -3.477  25.341  0.00  0.00    +0.178 C 
ATOM     43  C   UNL     1       7.073  -3.989  23.900  0.00  0.00    +0.178 C 
ATOM     44  O   UNL     1       8.459  -4.206  23.537  0.00  0.00    -0.346 OA
BRANCH  40  52
ATOM     45  N   UNL     1       9.960   2.201  21.594  0.00  0.00    -0.341 N 
ATOM     46  H   UNL     1      10.128   1.710  20.724  0.00  0.00    +0.144 HD
ATOM     47  H   UNL     1      10.515   3.026  21.783  0.00  0.00    +0.144 HD
ATOM     48  C   UNL     1       9.916   1.357  22.700  0.00  0.00    +0.147 A 
ATOM     49  C   UNL     1       9.634  -0.017  22.601  0.00  0.00    +0.147 A 
ATOM     50  N   UNL     1       9.388  -0.832  21.516  0.00  0.00    -0.231 NA
ATOM     51  C   UNL     1       9.219  -2.029  22.035  0.00  0.00    +0.203 A 
ATOM     52  N   UNL     1       9.312  -2.014  23.414  0.00  0.00    -0.286 N 
ATOM     53  C   UNL     1       9.624  -0.740  23.782  0.00  0.00    +0.167 A 
ATOM     54  N   UNL     1       9.877  -0.270  25.011  0.00  0.00    -0.216 NA
ATOM     55  C   UNL     1      10.130   1.053  24.986  0.00  0.00    +0.225 A 
ATOM     56  N   UNL     1      10.162   1.882  23.921  0.00  0.00    -0.219 NA
ENDBRANCH  40  52
BRANCH  42  57
ATOM     57  O   UNL     1       6.293  -2.299  25.456  0.00  0.00    -0.386 OA
ATOM     58  H   UNL     1       5.373  -2.540  25.241  0.00  0.00    +0.210 HD
ENDBRANCH  42  57
BRANCH  41  59
ATOM     59  O   UNL     1       9.120  -4.146  26.482  0.00  0.00    -0.385 OA
ATOM     60  H   UNL     1      10.086  -4.045  26.493  0.00  0.00    +0.210 HD
ENDBRANCH  41  59
ENDBRANCH  39  43
ENDBRANCH  38  39
ENDBRANCH  34  38
ENDBRANCH  33  34
ENDBRANCH   1  33
TORSDOF 19
ENDMDL
MODEL 3
REMARK VINA RESULT:      -7.2      3.408      7.046
REMARK  Name = 
REMARK  19 active torsions:
REMARK  status: ('A' for Active; 'I' for Inactive)
REMARK    1  A    between atoms: N_10  and  C_11
REMARK    2  A    between atoms: C_14  and  C_16
REMARK    3  A    between atoms: C_16  and  O_17
REMARK    4  A    between atoms: O_17  and  P_18
REMARK    5  A    between atoms: P_18  and  O_19
REMARK    6  A    between atoms: P_18  and  O_21
REMARK    7  A    between atoms: O_21  and  P_22
REMARK    8  A    between atoms: P_22  and  O_23
REMARK    9  A    between atoms: P_22  and  O_25
REMARK   10  A    between atoms: O_25  and  P_26
REMARK   11  A    between atoms: P_26  and  O_27
REMARK   12  A    between atoms: P_26  and  O_29
REMARK   13  A    between atoms: O_29  and  C_30
REMARK   14  A    between atoms: C_30  and  C_31
REMARK   15  A    between atoms: C_34  and  N_42
REMARK   16  A    between atoms: C_36  and  O_38
REMARK   17  A    between atoms: C_39  and  O_41
REMARK   18  A    between atoms: C_52  and  O_54
REMARK   19  A    between atoms: C_55  and  O_57
REMARK                            x       y       z     vdW  Elec       q    Type
REMARK                         _______ _______ _______ _____ _____    ______ ____
ROOT
ATOM      1  P   UNL     1       6.875   4.173  26.075  0.00  0.00    +0.492 P 
ATOM      2  O   UNL     1       7.367   5.592  26.118  0.00  0.00    -0.226 OA
ENDROOT
BRANCH   1   3
ATOM      3  O   UNL     1       8.128   3.175  25.832  0.00  0.00    -0.302 OA
ATOM      4  H   UNL     1       8.886   3.760  25.684  0.00  0.00    +0.222 HD
ENDBRANCH   1   3
BRANCH   1   5
ATOM      5  O   UNL     1       6.972   3.646  27.799  0.00  0.00    -0.186 OA
BRANCH   5   6
ATOM      6  P   UNL     1       5.992   2.324  28.333  0.00  0.00    +0.483 P 
ATOM      7  O   UNL     1       7.203   1.399  28.275  0.00  0.00    -0.227 OA
BRANCH   6   8
ATOM      8  O   UNL     1       5.373   2.265  26.819  0.00  0.00    -0.302 OA
ATOM      9  H   UNL     1       6.085   1.945  26.230  0.00  0.00    +0.222 HD
ENDBRANCH   6   8
BRANCH   6  10
ATOM     10  O   UNL     1       5.011   1.003  28.867  0.00  0.00    -0.284 OA
BRANCH  10  11
ATOM     11  C   UNL     1       4.429   0.203  27.834  0.00  0.00    +0.206 C 
BRANCH  11  12
ATOM     12  C   UNL     1       4.553  -1.293  28.111  0.00  0.00    +0.178 C 
ATOM     13  C   UNL     1       3.208  -2.021  28.093  0.00  0.00    +0.178 C 
ATOM     14  C   UNL     1       3.144  -2.710  26.736  0.00  0.00    +0.195 C 
ATOM     15  C   UNL     1       4.469  -2.336  26.062  0.00  0.00    +0.253 C 
ATOM     16  O   UNL     1       5.368  -1.906  27.099  0.00  0.00    -0.346 OA
BRANCH  15  17
ATOM     17  N   UNL     1       5.067  -3.446  25.347  0.00  0.00    -0.286 N 
ATOM     18  C   UNL     1       5.736  -3.314  24.161  0.00  0.00    +0.167 A 
ATOM     19  N   UNL     1       5.969  -2.186  23.473  0.00  0.00    -0.216 NA
ATOM     20  C   UNL     1       6.640  -2.469  22.332  0.00  0.00    +0.225 A 
ATOM     21  N   UNL     1       7.030  -3.671  21.860  0.00  0.00    -0.219 NA
ATOM     22  C   UNL     1       6.734  -4.772  22.586  0.00  0.00    +0.147 A 
ATOM     23  N   UNL     1       7.098  -6.017  22.085  0.00  0.00    -0.341 N 
ATOM     24  H   UNL     1       7.151  -6.740  22.791  0.00  0.00    +0.144 HD
ATOM     25  H   UNL     1       7.845  -5.956  21.406  0.00  0.00    +0.144 HD
ATOM     26  C   UNL     1       6.070  -4.637  23.794  0.00  0.00    +0.147 A 
ATOM     27  N   UNL     1       5.672  -5.508  24.786  0.00  0.00    -0.231 NA
ATOM     28  C   UNL     1       5.079  -4.766  25.698  0.00  0.00    +0.203 A 
ENDBRANCH  15  17
BRANCH  14  29
ATOM     29  O   UNL     1       2.016  -2.262  25.985  0.00  0.00    -0.385 OA
ATOM     30  H   UNL     1       1.531  -3.060  25.690  0.00  0.00    +0.210 HD
ENDBRANCH  14  29
BRANCH  13  31
ATOM     31  O   UNL     1       3.189  -3.002  29.144  0.00  0.00    -0.386 OA
ATOM     32  H   UNL     1       2.408  -3.573  29.029  0.00  0.00    +0.210 HD
ENDBRANCH  13  31
ENDBRANCH  11  12
ENDBRANCH  10  11
ENDBRANCH   6  10
ENDBRANCH   5   6
ENDBRANCH   1   5
BRANCH   1  33
ATOM     33  O   UNL     1       6.537   3.906  24.376  0.00  0.00    -0.186 OA
BRANCH  33  34
ATOM     34  P   UNL     1       7.052   4.761  22.963  0.00  0.00    +0.483 P 
ATOM     35  O   UNL     1       8.521   4.653  23.361  0.00  0.00    -0.227 OA
BRANCH  34  36
ATOM     36  O   UNL     1       7.568   5.615  21.549  0.00  0.00    -0.302 OA
ATOM     37  H   UNL     1       7.189   5.077  20.821  0.00  0.00    +0.222 HD
ENDBRANCH  34  36
BRANCH  34  38
ATOM     38  O   UNL     1       6.631   3.472  22.011  0.00  0.00    -0.284 OA
BRANCH  38  39
ATOM     39  C   UNL     1       6.546   2.261  22.758  0.00  0.00    +0.206 C 
BRANCH  39  43
ATOM     40  C   UNL     1       9.812   0.909  23.575  0.00  0.00    +0.253 C 
ATOM     41  C   UNL     1      10.107   1.577  22.227  0.00  0.00    +0.195 C 
ATOM     42  C   UNL     1       8.747   1.667  21.526  0.00  0.00    +0.178 C 
ATOM     43  C   UNL     1       7.731   1.311  22.612  0.00  0.00    +0.178 C 
ATOM     44  O   UNL     1       8.456   1.342  23.867  0.00  0.00    -0.346 OA
BRANCH  40  52
ATOM     45  N   UNL     1       9.438  -5.001  24.860  0.00  0.00    -0.341 N 
ATOM     46  H   UNL     1       9.519  -5.184  23.867  0.00  0.00    +0.144 HD
ATOM     47  H   UNL     1       8.805  -5.582  25.395  0.00  0.00    +0.144 HD
ATOM     48  C   UNL     1       9.259  -3.652  25.157  0.00  0.00    +0.147 A 
ATOM     49  C   UNL     1       9.639  -2.621  24.280  0.00  0.00    +0.147 A 
ATOM     50  N   UNL     1      10.193  -2.642  23.017  0.00  0.00    -0.231 NA
ATOM     51  C   UNL     1      10.301  -1.374  22.684  0.00  0.00    +0.203 A 
ATOM     52  N   UNL     1       9.870  -0.534  23.694  0.00  0.00    -0.286 N 
ATOM     53  C   UNL     1       9.401  -1.323  24.701  0.00  0.00    +0.167 A 
ATOM     54  N   UNL     1       8.827  -0.946  25.851  0.00  0.00    -0.216 NA
ATOM     55  C   UNL     1       8.509  -2.013  26.610  0.00  0.00    +0.225 A 
ATOM     56  N   UNL     1       8.690  -3.323  26.337  0.00  0.00    -0.219 NA
ENDBRANCH  40  52
BRANCH  42  57
ATOM     57  O   UNL     1       8.693   0.715  20.467  0.00  0.00    -0.386 OA
ATOM     58  H   UNL     1       8.274  -0.093  20.816  0.00  0.00    +0.210 HD
ENDBRANCH  42  57
BRANCH  41  59
ATOM     59  O   UNL     1      10.608   2.916  22.452  0.00  0.00    -0.385 OA
ATOM     60  H   UNL     1      10.066   3.542  21.944  0.00  0.00    +0.210 HD
ENDBRANCH  41  59
ENDBRANCH  39  43
ENDBRANCH  38  39
ENDBRANCH  34  38
ENDBRANCH  33  34
ENDBRANCH   1  33
TORSDOF 19
ENDMDL
MODEL 4
REMARK VINA RESULT:      -7.1      2.315      6.638
REMARK  Name = 
REMARK  19 active torsions:
REMARK  status: ('A' for Active; 'I' for Inactive)
REMARK    1  A    between atoms: N_10  and  C_11
REMARK    2  A    between atoms: C_14  and  C_16
REMARK    3  A    between atoms: C_16  and  O_17
REMARK    4  A    between atoms: O_17  and  P_18
REMARK    5  A    between atoms: P_18  and  O_19
REMARK    6  A    between atoms: P_18  and  O_21
REMARK    7  A    between atoms: O_21  and  P_22
REMARK    8  A    between atoms: P_22  and  O_23
REMARK    9  A    between atoms: P_22  and  O_25
REMARK   10  A    between atoms: O_25  and  P_26
REMARK   11  A    between atoms: P_26  and  O_27
REMARK   12  A    between atoms: P_26  and  O_29
REMARK   13  A    between atoms: O_29  and  C_30
REMARK   14  A    between atoms: C_30  and  C_31
REMARK   15  A    between atoms: C_34  and  N_42
REMARK   16  A    between atoms: C_36  and  O_38
REMARK   17  A    between atoms: C_39  and  O_41
REMARK   18  A    between atoms: C_52  and  O_54
REMARK   19  A    between atoms: C_55  and  O_57
REMARK                            x       y       z     vdW  Elec       q    Type
REMARK                         _______ _______ _______ _____ _____    ______ ____
ROOT
ATOM      1  P   UNL     1       3.615  -4.487  26.781  0.00  0.00    +0.492 P 
ATOM      2  O   UNL     1       2.286  -5.161  26.600  0.00  0.00    -0.226 OA
ENDROOT
BRANCH   1   3
ATOM      3  O   UNL     1       4.478  -4.618  25.416  0.00  0.00    -0.302 OA
ATOM      4  H   UNL     1       5.403  -4.577  25.701  0.00  0.00    +0.222 HD
ENDBRANCH   1   3
BRANCH   1   5
ATOM      5  O   UNL     1       3.298  -2.791  26.250  0.00  0.00    -0.186 OA
BRANCH   5   6
ATOM      6  P   UNL     1       4.380  -1.535  26.746  0.00  0.00    +0.483 P 
ATOM      7  O   UNL     1       4.883  -1.397  25.312  0.00  0.00    -0.227 OA
BRANCH   6   8
ATOM      8  O   UNL     1       5.327  -2.703  27.390  0.00  0.00    -0.302 OA
ATOM      9  H   UNL     1       6.191  -2.293  27.595  0.00  0.00    +0.222 HD
ENDBRANCH   6   8
BRANCH   6  10
ATOM     10  O   UNL     1       5.461  -0.279  27.243  0.00  0.00    -0.284 OA
BRANCH  10  11
ATOM     11  C   UNL     1       4.875   1.013  27.419  0.00  0.00    +0.206 C 
BRANCH  11  12
ATOM     12  C   UNL     1       5.714   2.127  26.795  0.00  0.00    +0.178 C 
ATOM     13  C   UNL     1       6.757   1.610  25.805  0.00  0.00    +0.178 C 
ATOM     14  C   UNL     1       6.163   1.867  24.426  0.00  0.00    +0.195 C 
ATOM     15  C   UNL     1       4.810   2.527  24.718  0.00  0.00    +0.253 C 
ATOM     16  O   UNL     1       4.861   3.024  26.067  0.00  0.00    -0.346 OA
BRANCH  15  17
ATOM     17  N   UNL     1       4.516   3.625  23.820  0.00  0.00    -0.286 N 
ATOM     18  C   UNL     1       3.358   3.729  23.099  0.00  0.00    +0.167 A 
ATOM     19  N   UNL     1       2.316   2.883  23.096  0.00  0.00    -0.216 NA
ATOM     20  C   UNL     1       1.370   3.315  22.231  0.00  0.00    +0.225 A 
ATOM     21  N   UNL     1       1.395   4.399  21.428  0.00  0.00    -0.219 NA
ATOM     22  C   UNL     1       2.489   5.191  21.453  0.00  0.00    +0.147 A 
ATOM     23  N   UNL     1       2.537   6.288  20.599  0.00  0.00    -0.341 N 
ATOM     24  H   UNL     1       3.196   7.000  20.887  0.00  0.00    +0.144 HD
ATOM     25  H   UNL     1       1.618   6.581  20.297  0.00  0.00    +0.144 HD
ATOM     26  C   UNL     1       3.533   4.890  22.313  0.00  0.00    +0.147 A 
ATOM     27  N   UNL     1       4.734   5.488  22.630  0.00  0.00    -0.231 NA
ATOM     28  C   UNL     1       5.294   4.711  23.532  0.00  0.00    +0.203 A 
ENDBRANCH  15  17
BRANCH  14  29
ATOM     29  O   UNL     1       6.019   0.651  23.693  0.00  0.00    -0.385 OA
ATOM     30  H   UNL     1       5.477   0.853  22.903  0.00  0.00    +0.210 HD
ENDBRANCH  14  29
BRANCH  13  31
ATOM     31  O   UNL     1       7.973   2.362  25.964  0.00  0.00    -0.386 OA
ATOM     32  H   UNL     1       7.862   2.990  26.701  0.00  0.00    +0.210 HD
ENDBRANCH  13  31
ENDBRANCH  11  12
ENDBRANCH  10  11
ENDBRANCH   6  10
ENDBRANCH   5   6
ENDBRANCH   1   5
BRANCH   1  33
ATOM     33  O   UNL     1       4.652  -5.771  27.372  0.00  0.00    -0.186 OA
BRANCH  33  34
ATOM     34  P   UNL     1       5.524  -5.940  28.856  0.00  0.00    +0.483 P 
ATOM     35  O   UNL     1       5.797  -7.418  28.595  0.00  0.00    -0.227 OA
BRANCH  34  36
ATOM     36  O   UNL     1       6.398  -6.110  30.340  0.00  0.00    -0.302 OA
ATOM     37  H   UNL     1       7.333  -6.096  30.043  0.00  0.00    +0.222 HD
ENDBRANCH  34  36
BRANCH  34  38
ATOM     38  O   UNL     1       6.765  -5.024  28.249  0.00  0.00    -0.284 OA
BRANCH  38  39
ATOM     39  C   UNL     1       7.454  -5.690  27.194  0.00  0.00    +0.206 C 
BRANCH  39  43
ATOM     40  C   UNL     1       7.608  -3.484  24.318  0.00  0.00    +0.253 C 
ATOM     41  C   UNL     1       8.304  -4.731  23.760  0.00  0.00    +0.195 C 
ATOM     42  C   UNL     1       8.810  -5.485  24.995  0.00  0.00    +0.178 C 
ATOM     43  C   UNL     1       8.138  -4.782  26.176  0.00  0.00    +0.178 C 
ATOM     44  O   UNL     1       7.111  -3.933  25.607  0.00  0.00    -0.346 OA
BRANCH  40  52
ATOM     45  N   UNL     1      10.632   1.764  24.158  0.00  0.00    -0.341 N 
ATOM     46  H   UNL     1      10.291   1.947  25.094  0.00  0.00    +0.144 HD
ATOM     47  H   UNL     1      10.685   2.545  23.516  0.00  0.00    +0.144 HD
ATOM     48  C   UNL     1      10.034   0.658  23.561  0.00  0.00    +0.147 A 
ATOM     49  C   UNL     1       9.422  -0.370  24.301  0.00  0.00    +0.147 A 
ATOM     50  N   UNL     1       9.227  -0.541  25.654  0.00  0.00    -0.231 NA
ATOM     51  C   UNL     1       8.571  -1.677  25.751  0.00  0.00    +0.203 A 
ATOM     52  N   UNL     1       8.363  -2.263  24.516  0.00  0.00    -0.286 N 
ATOM     53  C   UNL     1       8.863  -1.411  23.578  0.00  0.00    +0.167 A 
ATOM     54  N   UNL     1       8.826  -1.532  22.245  0.00  0.00    -0.216 NA
ATOM     55  C   UNL     1       9.443  -0.496  21.643  0.00  0.00    +0.225 A 
ATOM     56  N   UNL     1      10.038   0.574  22.213  0.00  0.00    -0.219 NA
ENDBRANCH  40  52
BRANCH  42  57
ATOM     57  O   UNL     1      10.227  -5.356  25.084  0.00  0.00    -0.386 OA
ATOM     58  H   UNL     1      10.579  -6.200  25.422  0.00  0.00    +0.210 HD
ENDBRANCH  42  57
BRANCH  41  59
ATOM     59  O   UNL     1       7.335  -5.556  23.072  0.00  0.00    -0.385 OA
ATOM     60  H   UNL     1       6.497  -5.531  23.563  0.00  0.00    +0.210 HD
ENDBRANCH  41  59
ENDBRANCH  39  43
ENDBRANCH  38  39
ENDBRANCH  34  38
ENDBRANCH  33  34
ENDBRANCH   1  33
TORSDOF 19
ENDMDL
MODEL 5
REMARK VINA RESULT:      -7.0      2.940      5.441
REMARK  Name = 
REMARK  19 active torsions:
REMARK  status: ('A' for Active; 'I' for Inactive)
REMARK    1  A    between atoms: N_10  and  C_11
REMARK    2  A    between atoms: C_14  and  C_16
REMARK    3  A    between atoms: C_16  and  O_17
REMARK    4  A    between atoms: O_17  and  P_18
REMARK    5  A    between atoms: P_18  and  O_19
REMARK    6  A    between atoms: P_18  and  O_21
REMARK    7  A    between atoms: O_21  and  P_22
REMARK    8  A    between atoms: P_22  and  O_23
REMARK    9  A    between atoms: P_22  and  O_25
REMARK   10  A    between atoms: O_25  and  P_26
REMARK   11  A    between atoms: P_26  and  O_27
REMARK   12  A    between atoms: P_26  and  O_29
REMARK   13  A    between atoms: O_29  and  C_30
REMARK   14  A    between atoms: C_30  and  C_31
REMARK   15  A    between atoms: C_34  and  N_42
REMARK   16  A    between atoms: C_36  and  O_38
REMARK   17  A    between atoms: C_39  and  O_41
REMARK   18  A    between atoms: C_52  and  O_54
REMARK   19  A    between atoms: C_55  and  O_57
REMARK                            x       y       z     vdW  Elec       q    Type
REMARK                         _______ _______ _______ _____ _____    ______ ____
ROOT
ATOM      1  P   UNL     1       6.993  -5.173  22.893  0.00  0.00    +0.492 P 
ATOM      2  O   UNL     1       6.954  -3.938  22.041  0.00  0.00    -0.226 OA
ENDROOT
BRANCH   1   3
ATOM      3  O   UNL     1       6.364  -4.845  24.350  0.00  0.00    -0.302 OA
ATOM      4  H   UNL     1       6.449  -5.672  24.848  0.00  0.00    +0.222 HD
ENDBRANCH   1   3
BRANCH   1   5
ATOM      5  O   UNL     1       5.410  -5.970  22.546  0.00  0.00    -0.186 OA
BRANCH   5   6
ATOM      6  P   UNL     1       4.248  -6.125  23.818  0.00  0.00    +0.483 P 
ATOM      7  O   UNL     1       4.869  -7.457  24.227  0.00  0.00    -0.227 OA
BRANCH   6   8
ATOM      8  O   UNL     1       3.154  -6.531  22.671  0.00  0.00    -0.302 OA
ATOM      9  H   UNL     1       2.804  -7.414  22.906  0.00  0.00    +0.222 HD
ENDBRANCH   6   8
BRANCH   6  10
ATOM     10  O   UNL     1       3.084  -6.280  25.089  0.00  0.00    -0.284 OA
BRANCH  10  11
ATOM     11  C   UNL     1       3.605  -6.655  26.367  0.00  0.00    +0.206 C 
BRANCH  11  12
ATOM     12  C   UNL     1       3.276  -5.636  27.455  0.00  0.00    +0.178 C 
ATOM     13  C   UNL     1       4.267  -5.658  28.619  0.00  0.00    +0.178 C 
ATOM     14  C   UNL     1       5.192  -4.470  28.381  0.00  0.00    +0.195 C 
ATOM     15  C   UNL     1       4.661  -3.835  27.091  0.00  0.00    +0.253 C 
ATOM     16  O   UNL     1       3.316  -4.310  26.904  0.00  0.00    -0.346 OA
BRANCH  15  17
ATOM     17  N   UNL     1       4.649  -2.387  27.143  0.00  0.00    -0.286 N 
ATOM     18  C   UNL     1       5.106  -1.586  26.133  0.00  0.00    +0.167 A 
ATOM     19  N   UNL     1       5.615  -1.967  24.952  0.00  0.00    -0.216 NA
ATOM     20  C   UNL     1       5.982  -0.882  24.232  0.00  0.00    +0.225 A 
ATOM     21  N   UNL     1       5.915   0.420  24.578  0.00  0.00    -0.219 NA
ATOM     22  C   UNL     1       5.423   0.735  25.797  0.00  0.00    +0.147 A 
ATOM     23  N   UNL     1       5.388   2.073  26.175  0.00  0.00    -0.341 N 
ATOM     24  H   UNL     1       4.732   2.268  26.921  0.00  0.00    +0.144 HD
ATOM     25  H   UNL     1       5.409   2.698  25.381  0.00  0.00    +0.144 HD
ATOM     26  C   UNL     1       4.981  -0.273  26.638  0.00  0.00    +0.147 A 
ATOM     27  N   UNL     1       4.391  -0.309  27.884  0.00  0.00    -0.231 NA
ATOM     28  C   UNL     1       4.204  -1.584  28.154  0.00  0.00    +0.203 A 
ENDBRANCH  15  17
BRANCH  14  29
ATOM     29  O   UNL     1       6.549  -4.894  28.252  0.00  0.00    -0.385 OA
ATOM     30  H   UNL     1       7.107  -4.091  28.314  0.00  0.00    +0.210 HD
ENDBRANCH  14  29
BRANCH  13  31
ATOM     31  O   UNL     1       3.550  -5.484  29.853  0.00  0.00    -0.386 OA
ATOM     32  H   UNL     1       3.732  -4.592  30.201  0.00  0.00    +0.210 HD
ENDBRANCH  13  31
ENDBRANCH  11  12
ENDBRANCH  10  11
ENDBRANCH   6  10
ENDBRANCH   5   6
ENDBRANCH   1   5
BRANCH   1  33
ATOM     33  O   UNL     1       8.539  -5.060  23.711  0.00  0.00    -0.186 OA
BRANCH  33  34
ATOM     34  P   UNL     1       8.935  -4.952  25.392  0.00  0.00    +0.483 P 
ATOM     35  O   UNL     1      10.414  -5.207  25.120  0.00  0.00    -0.227 OA
BRANCH  34  36
ATOM     36  O   UNL     1       9.332  -4.843  27.072  0.00  0.00    -0.302 OA
ATOM     37  H   UNL     1       8.920  -5.653  27.445  0.00  0.00    +0.222 HD
ENDBRANCH  34  36
BRANCH  34  38
ATOM     38  O   UNL     1       8.633  -3.322  25.373  0.00  0.00    -0.284 OA
BRANCH  38  39
ATOM     39  C   UNL     1       9.381  -2.652  24.361  0.00  0.00    +0.206 C 
BRANCH  39  43
ATOM     40  C   UNL     1      10.119   0.721  23.249  0.00  0.00    +0.253 C 
ATOM     41  C   UNL     1      10.588   0.791  24.707  0.00  0.00    +0.195 C 
ATOM     42  C   UNL     1       9.822  -0.329  25.421  0.00  0.00    +0.178 C 
ATOM     43  C   UNL     1       9.187  -1.140  24.291  0.00  0.00    +0.178 C 
ATOM     44  O   UNL     1       9.819  -0.689  23.067  0.00  0.00    -0.346 OA
BRANCH  40  52
ATOM     45  N   UNL     1       5.546   4.564  22.235  0.00  0.00    -0.341 N 
ATOM     46  H   UNL     1       5.657   4.377  21.245  0.00  0.00    +0.144 HD
ATOM     47  H   UNL     1       5.328   5.513  22.512  0.00  0.00    +0.144 HD
ATOM     48  C   UNL     1       6.570   4.032  23.013  0.00  0.00    +0.147 A 
ATOM     49  C   UNL     1       7.375   2.962  22.585  0.00  0.00    +0.147 A 
ATOM     50  N   UNL     1       7.407   2.245  21.408  0.00  0.00    -0.231 NA
ATOM     51  C   UNL     1       8.389   1.385  21.572  0.00  0.00    +0.203 A 
ATOM     52  N   UNL     1       8.971   1.496  22.822  0.00  0.00    -0.286 N 
ATOM     53  C   UNL     1       8.361   2.533  23.459  0.00  0.00    +0.167 A 
ATOM     54  N   UNL     1       8.641   3.046  24.665  0.00  0.00    -0.216 NA
ATOM     55  C   UNL     1       7.807   4.059  24.970  0.00  0.00    +0.225 A 
ATOM     56  N   UNL     1       6.803   4.574  24.229  0.00  0.00    -0.219 NA
ENDBRANCH  40  52
BRANCH  42  57
ATOM     57  O   UNL     1       8.812   0.239  26.251  0.00  0.00    -0.386 OA
ATOM     58  H   UNL     1       7.950  -0.090  25.935  0.00  0.00    +0.210 HD
ENDBRANCH  42  57
BRANCH  41  59
ATOM     59  O   UNL     1      12.005   0.505  24.772  0.00  0.00    -0.385 OA
ATOM     60  H   UNL     1      12.147  -0.235  25.385  0.00  0.00    +0.210 HD
ENDBRANCH  41  59
ENDBRANCH  39  43
ENDBRANCH  38  39
ENDBRANCH  34  38
ENDBRANCH  33  34
ENDBRANCH   1  33
TORSDOF 19
ENDMDL
MODEL 6
REMARK VINA RESULT:      -6.9      2.939      6.378
REMARK  Name = 
REMARK  19 active torsions:
REMARK  status: ('A' for Active; 'I' for Inactive)
REMARK    1  A    between atoms: N_10  and  C_11
REMARK    2  A    between atoms: C_14  and  C_16
REMARK    3  A    between atoms: C_16  and  O_17
REMARK    4  A    between atoms: O_17  and  P_18
REMARK    5  A    between atoms: P_18  and  O_19
REMARK    6  A    between atoms: P_18  and  O_21
REMARK    7  A    between atoms: O_21  and  P_22
REMARK    8  A    between atoms: P_22  and  O_23
REMARK    9  A    between atoms: P_22  and  O_25
REMARK   10  A    between atoms: O_25  and  P_26
REMARK   11  A    between atoms: P_26  and  O_27
REMARK   12  A    between atoms: P_26  and  O_29
REMARK   13  A    between atoms: O_29  and  C_30
REMARK   14  A    between atoms: C_30  and  C_31
REMARK   15  A    between atoms: C_34  and  N_42
REMARK   16  A    between atoms: C_36  and  O_38
REMARK   17  A    between atoms: C_39  and  O_41
REMARK   18  A    between atoms: C_52  and  O_54
REMARK   19  A    between atoms: C_55  and  O_57
REMARK                            x       y       z     vdW  Elec       q    Type
REMARK                         _______ _______ _______ _____ _____    ______ ____
ROOT
ATOM      1  P   UNL     1       6.847  -5.318  26.488  0.00  0.00    +0.492 P 
ATOM      2  O   UNL     1       5.848  -6.392  26.169  0.00  0.00    -0.226 OA
ENDROOT
BRANCH   1   3
ATOM      3  O   UNL     1       8.249  -5.999  26.930  0.00  0.00    -0.302 OA
ATOM      4  H   UNL     1       8.678  -5.339  27.495  0.00  0.00    +0.222 HD
ENDBRANCH   1   3
BRANCH   1   5
ATOM      5  O   UNL     1       7.656  -5.017  24.902  0.00  0.00    -0.186 OA
BRANCH   5   6
ATOM      6  P   UNL     1       8.757  -3.690  24.755  0.00  0.00    +0.483 P 
ATOM      7  O   UNL     1       9.933  -4.660  24.770  0.00  0.00    -0.227 OA
BRANCH   6   8
ATOM      8  O   UNL     1       8.478  -3.377  26.337  0.00  0.00    -0.302 OA
ATOM      9  H   UNL     1       8.016  -4.156  26.707  0.00  0.00    +0.222 HD
ENDBRANCH   6   8
BRANCH   6  10
ATOM     10  O   UNL     1       9.856  -2.362  24.608  0.00  0.00    -0.284 OA
BRANCH  10  11
ATOM     11  C   UNL     1       9.392  -1.111  25.122  0.00  0.00    +0.206 C 
BRANCH  11  12
ATOM     12  C   UNL     1       8.036  -0.708  24.548  0.00  0.00    +0.178 C 
ATOM     13  C   UNL     1       7.065  -0.191  25.609  0.00  0.00    +0.178 C 
ATOM     14  C   UNL     1       7.094   1.327  25.474  0.00  0.00    +0.195 C 
ATOM     15  C   UNL     1       8.083   1.581  24.329  0.00  0.00    +0.253 C 
ATOM     16  O   UNL     1       8.209   0.352  23.594  0.00  0.00    -0.346 OA
BRANCH  15  17
ATOM     17  N   UNL     1       7.641   2.628  23.431  0.00  0.00    -0.286 N 
ATOM     18  C   UNL     1       8.166   3.891  23.417  0.00  0.00    +0.167 A 
ATOM     19  N   UNL     1       9.152   4.376  24.186  0.00  0.00    -0.216 NA
ATOM     20  C   UNL     1       9.370   5.679  23.895  0.00  0.00    +0.225 A 
ATOM     21  N   UNL     1       8.725   6.463  23.007  0.00  0.00    -0.219 NA
ATOM     22  C   UNL     1       7.717   5.922  22.287  0.00  0.00    +0.147 A 
ATOM     23  N   UNL     1       7.022   6.735  21.398  0.00  0.00    -0.341 N 
ATOM     24  H   UNL     1       6.528   6.222  20.679  0.00  0.00    +0.144 HD
ATOM     25  H   UNL     1       7.554   7.550  21.126  0.00  0.00    +0.144 HD
ATOM     26  C   UNL     1       7.395   4.585  22.458  0.00  0.00    +0.147 A 
ATOM     27  N   UNL     1       6.495   3.720  21.873  0.00  0.00    -0.231 NA
ATOM     28  C   UNL     1       6.668   2.562  22.473  0.00  0.00    +0.203 A 
ENDBRANCH  15  17
BRANCH  14  29
ATOM     29  O   UNL     1       7.513   1.943  26.691  0.00  0.00    -0.385 OA
ATOM     30  H   UNL     1       8.393   2.339  26.525  0.00  0.00    +0.210 HD
ENDBRANCH  14  29
BRANCH  13  31
ATOM     31  O   UNL     1       5.745  -0.684  25.322  0.00  0.00    -0.386 OA
ATOM     32  H   UNL     1       5.225  -0.696  26.145  0.00  0.00    +0.210 HD
ENDBRANCH  13  31
ENDBRANCH  11  12
ENDBRANCH  10  11
ENDBRANCH   6  10
ENDBRANCH   5   6
ENDBRANCH   1   5
BRANCH   1  33
ATOM     33  O   UNL     1       6.622  -5.043  28.204  0.00  0.00    -0.186 OA
BRANCH  33  34
ATOM     34  P   UNL     1       5.363  -5.538  29.283  0.00  0.00    +0.483 P 
ATOM     35  O   UNL     1       6.302  -5.511  30.485  0.00  0.00    -0.227 OA
BRANCH  34  36
ATOM     36  O   UNL     1       4.105  -6.032  30.363  0.00  0.00    -0.302 OA
ATOM     37  H   UNL     1       3.629  -5.192  30.540  0.00  0.00    +0.222 HD
ENDBRANCH  34  36
BRANCH  34  38
ATOM     38  O   UNL     1       4.621  -4.066  29.117  0.00  0.00    -0.284 OA
BRANCH  38  39
ATOM     39  C   UNL     1       3.239  -4.198  28.793  0.00  0.00    +0.206 C 
BRANCH  39  43
ATOM     40  C   UNL     1       3.006  -3.169  25.323  0.00  0.00    +0.253 C 
ATOM     41  C   UNL     1       1.522  -3.220  25.706  0.00  0.00    +0.195 C 
ATOM     42  C   UNL     1       1.460  -4.169  26.909  0.00  0.00    +0.178 C 
ATOM     43  C   UNL     1       2.921  -4.375  27.312  0.00  0.00    +0.178 C 
ATOM     44  O   UNL     1       3.682  -3.373  26.593  0.00  0.00    -0.346 OA
BRANCH  40  52
ATOM     45  N   UNL     1       5.968  -6.451  21.179  0.00  0.00    -0.341 N 
ATOM     46  H   UNL     1       5.650  -7.281  21.664  0.00  0.00    +0.144 HD
ATOM     47  H   UNL     1       6.908  -6.456  20.803  0.00  0.00    +0.144 HD
ATOM     48  C   UNL     1       5.709  -5.274  21.877  0.00  0.00    +0.147 A 
ATOM     49  C   UNL     1       4.711  -5.176  22.862  0.00  0.00    +0.147 A 
ATOM     50  N   UNL     1       3.835  -6.104  23.383  0.00  0.00    -0.231 NA
ATOM     51  C   UNL     1       3.157  -5.442  24.296  0.00  0.00    +0.203 A 
ATOM     52  N   UNL     1       3.537  -4.114  24.361  0.00  0.00    -0.286 N 
ATOM     53  C   UNL     1       4.563  -3.945  23.481  0.00  0.00    +0.167 A 
ATOM     54  N   UNL     1       5.287  -2.841  23.253  0.00  0.00    -0.216 NA
ATOM     55  C   UNL     1       6.207  -3.051  22.291  0.00  0.00    +0.225 A 
ATOM     56  N   UNL     1       6.456  -4.183  21.599  0.00  0.00    -0.219 NA
ENDBRANCH  40  52
BRANCH  42  57
ATOM     57  O   UNL     1       0.877  -5.406  26.510  0.00  0.00    -0.386 OA
ATOM     58  H   UNL     1       1.218  -5.622  25.623  0.00  0.00    +0.210 HD
ENDBRANCH  42  57
BRANCH  41  59
ATOM     59  O   UNL     1       1.086  -1.905  26.123  0.00  0.00    -0.385 OA
ATOM     60  H   UNL     1       1.701  -1.570  26.796  0.00  0.00    +0.210 HD
ENDBRANCH  41  59
ENDBRANCH  39  43
ENDBRANCH  38  39
ENDBRANCH  34  38
ENDBRANCH  33  34
ENDBRANCH   1  33
TORSDOF 19
ENDMDL
MODEL 7
REMARK VINA RESULT:      -6.9      3.290      5.958
REMARK  Name = 
REMARK  19 active torsions:
REMARK  status: ('A' for Active; 'I' for Inactive)
REMARK    1  A    between atoms: N_10  and  C_11
REMARK    2  A    between atoms: C_14  and  C_16
REMARK    3  A    between atoms: C_16  and  O_17
REMARK    4  A    between atoms: O_17  and  P_18
REMARK    5  A    between atoms: P_18  and  O_19
REMARK    6  A    between atoms: P_18  and  O_21
REMARK    7  A    between atoms: O_21  and  P_22
REMARK    8  A    between atoms: P_22  and  O_23
REMARK    9  A    between atoms: P_22  and  O_25
REMARK   10  A    between atoms: O_25  and  P_26
REMARK   11  A    between atoms: P_26  and  O_27
REMARK   12  A    between atoms: P_26  and  O_29
REMARK   13  A    between atoms: O_29  and  C_30
REMARK   14  A    between atoms: C_30  and  C_31
REMARK   15  A    between atoms: C_34  and  N_42
REMARK   16  A    between atoms: C_36  and  O_38
REMARK   17  A    between atoms: C_39  and  O_41
REMARK   18  A    between atoms: C_52  and  O_54
REMARK   19  A    between atoms: C_55  and  O_57
REMARK                            x       y       z     vdW  Elec       q    Type
REMARK                         _______ _______ _______ _____ _____    ______ ____
ROOT
ATOM      1  P   UNL     1       6.352  -4.258  22.664  0.00  0.00    +0.492 P 
ATOM      2  O   UNL     1       6.593  -3.359  21.485  0.00  0.00    -0.226 OA
ENDROOT
BRANCH   1   3
ATOM      3  O   UNL     1       6.053  -3.357  23.977  0.00  0.00    -0.302 OA
ATOM      4  H   UNL     1       5.211  -2.916  23.788  0.00  0.00    +0.222 HD
ENDBRANCH   1   3
BRANCH   1   5
ATOM      5  O   UNL     1       4.568  -4.533  22.621  0.00  0.00    -0.186 OA
BRANCH   5   6
ATOM      6  P   UNL     1       3.840  -5.535  23.829  0.00  0.00    +0.483 P 
ATOM      7  O   UNL     1       5.200  -6.150  24.143  0.00  0.00    -0.227 OA
BRANCH   6   8
ATOM      8  O   UNL     1       3.258  -6.458  22.610  0.00  0.00    -0.302 OA
ATOM      9  H   UNL     1       2.286  -6.491  22.713  0.00  0.00    +0.222 HD
ENDBRANCH   6   8
BRANCH   6  10
ATOM     10  O   UNL     1       3.111  -6.537  25.037  0.00  0.00    -0.284 OA
BRANCH  10  11
ATOM     11  C   UNL     1       3.995  -7.046  26.039  0.00  0.00    +0.206 C 
BRANCH  11  12
ATOM     12  C   UNL     1       3.651  -6.537  27.437  0.00  0.00    +0.178 C 
ATOM     13  C   UNL     1       4.770  -6.767  28.453  0.00  0.00    +0.178 C 
ATOM     14  C   UNL     1       5.464  -5.418  28.596  0.00  0.00    +0.195 C 
ATOM     15  C   UNL     1       4.685  -4.494  27.652  0.00  0.00    +0.253 C 
ATOM     16  O   UNL     1       3.417  -5.121  27.392  0.00  0.00    -0.346 OA
BRANCH  15  17
ATOM     17  N   UNL     1       4.458  -3.180  28.216  0.00  0.00    -0.286 N 
ATOM     18  C   UNL     1       4.903  -2.019  27.646  0.00  0.00    +0.167 A 
ATOM     19  N   UNL     1       5.592  -1.880  26.502  0.00  0.00    -0.216 NA
ATOM     20  C   UNL     1       5.876  -0.575  26.286  0.00  0.00    +0.225 A 
ATOM     21  N   UNL     1       5.581   0.490  27.060  0.00  0.00    -0.219 NA
ATOM     22  C   UNL     1       4.915   0.278  28.217  0.00  0.00    +0.147 A 
ATOM     23  N   UNL     1       4.643   1.367  29.038  0.00  0.00    -0.341 N 
ATOM     24  H   UNL     1       3.887   1.206  29.691  0.00  0.00    +0.144 HD
ATOM     25  H   UNL     1       4.662   2.243  28.535  0.00  0.00    +0.144 HD
ATOM     26  C   UNL     1       4.533  -1.009  28.561  0.00  0.00    +0.147 A 
ATOM     27  N   UNL     1       3.818  -1.564  29.601  0.00  0.00    -0.231 NA
ATOM     28  C   UNL     1       3.789  -2.859  29.364  0.00  0.00    +0.203 A 
ENDBRANCH  15  17
BRANCH  14  29
ATOM     29  O   UNL     1       6.843  -5.509  28.241  0.00  0.00    -0.385 OA
ATOM     30  H   UNL     1       6.898  -6.084  27.450  0.00  0.00    +0.210 HD
ENDBRANCH  14  29
BRANCH  13  31
ATOM     31  O   UNL     1       4.193  -7.159  29.710  0.00  0.00    -0.386 OA
ATOM     32  H   UNL     1       3.281  -7.466  29.558  0.00  0.00    +0.210 HD
ENDBRANCH  13  31
ENDBRANCH  11  12
ENDBRANCH  10  11
ENDBRANCH   6  10
ENDBRANCH   5   6
ENDBRANCH   1   5
BRANCH   1  33
ATOM     33  O   UNL     1       7.947  -4.459  23.360  0.00  0.00    -0.186 OA
BRANCH  33  34
ATOM     34  P   UNL     1       8.460  -4.647  25.002  0.00  0.00    +0.483 P 
ATOM     35  O   UNL     1       9.697  -5.436  24.586  0.00  0.00    -0.227 OA
BRANCH  34  36
ATOM     36  O   UNL     1       8.973  -4.836  26.643  0.00  0.00    -0.302 OA
ATOM     37  H   UNL     1       8.383  -5.547  26.974  0.00  0.00    +0.222 HD
ENDBRANCH  34  36
BRANCH  34  38
ATOM     38  O   UNL     1       8.825  -3.033  25.089  0.00  0.00    -0.284 OA
BRANCH  38  39
ATOM     39  C   UNL     1       9.777  -2.647  24.101  0.00  0.00    +0.206 C 
BRANCH  39  43
ATOM     40  C   UNL     1       8.290   0.653  23.849  0.00  0.00    +0.253 C 
ATOM     41  C   UNL     1       7.748  -0.004  22.574  0.00  0.00    +0.195 C 
ATOM     42  C   UNL     1       8.730  -1.142  22.270  0.00  0.00    +0.178 C 
ATOM     43  C   UNL     1       9.598  -1.245  23.525  0.00  0.00    +0.178 C 
ATOM     44  O   UNL     1       8.935  -0.451  24.539  0.00  0.00    -0.346 OA
BRANCH  40  52
ATOM     45  N   UNL     1      11.451   5.820  23.695  0.00  0.00    -0.341 N 
ATOM     46  H   UNL     1      12.254   5.295  24.020  0.00  0.00    +0.144 HD
ATOM     47  H   UNL     1      11.320   6.755  24.061  0.00  0.00    +0.144 HD
ATOM     48  C   UNL     1      10.265   5.091  23.734  0.00  0.00    +0.147 A 
ATOM     49  C   UNL     1      10.234   3.686  23.735  0.00  0.00    +0.147 A 
ATOM     50  N   UNL     1      11.239   2.741  23.735  0.00  0.00    -0.231 NA
ATOM     51  C   UNL     1      10.606   1.588  23.766  0.00  0.00    +0.203 A 
ATOM     52  N   UNL     1       9.233   1.749  23.752  0.00  0.00    -0.286 N 
ATOM     53  C   UNL     1       8.985   3.088  23.780  0.00  0.00    +0.167 A 
ATOM     54  N   UNL     1       7.801   3.711  23.843  0.00  0.00    -0.216 NA
ATOM     55  C   UNL     1       7.952   5.050  23.833  0.00  0.00    +0.225 A 
ATOM     56  N   UNL     1       9.096   5.766  23.781  0.00  0.00    -0.219 NA
ENDBRANCH  40  52
BRANCH  42  57
ATOM     57  O   UNL     1       9.529  -0.794  21.142  0.00  0.00    -0.386 OA
ATOM     58  H   UNL     1      10.453  -1.020  21.354  0.00  0.00    +0.210 HD
ENDBRANCH  42  57
BRANCH  41  59
ATOM     59  O   UNL     1       6.443  -0.569  22.840  0.00  0.00    -0.385 OA
ATOM     60  H   UNL     1       6.557  -1.410  23.313  0.00  0.00    +0.210 HD
ENDBRANCH  41  59
ENDBRANCH  39  43
ENDBRANCH  38  39
ENDBRANCH  34  38
ENDBRANCH  33  34
ENDBRANCH   1  33
TORSDOF 19
ENDMDL
MODEL 8
REMARK VINA RESULT:      -6.9      3.567      7.275
REMARK  Name = 
REMARK  19 active torsions:
REMARK  status: ('A' for Active; 'I' for Inactive)
REMARK    1  A    between atoms: N_10  and  C_11
REMARK    2  A    between atoms: C_14  and  C_16
REMARK    3  A    between atoms: C_16  and  O_17
REMARK    4  A    between atoms: O_17  and  P_18
REMARK    5  A    between atoms: P_18  and  O_19
REMARK    6  A    between atoms: P_18  and  O_21
REMARK    7  A    between atoms: O_21  and  P_22
REMARK    8  A    between atoms: P_22  and  O_23
REMARK    9  A    between atoms: P_22  and  O_25
REMARK   10  A    between atoms: O_25  and  P_26
REMARK   11  A    between atoms: P_26  and  O_27
REMARK   12  A    between atoms: P_26  and  O_29
REMARK   13  A    between atoms: O_29  and  C_30
REMARK   14  A    between atoms: C_30  and  C_31
REMARK   15  A    between atoms: C_34  and  N_42
REMARK   16  A    between atoms: C_36  and  O_38
REMARK   17  A    between atoms: C_39  and  O_41
REMARK   18  A    between atoms: C_52  and  O_54
REMARK   19  A    between atoms: C_55  and  O_57
REMARK                            x       y       z     vdW  Elec       q    Type
REMARK                         _______ _______ _______ _____ _____    ______ ____
ROOT
ATOM      1  P   UNL     1       4.747   2.963  24.293  0.00  0.00    +0.492 P 
ATOM      2  O   UNL     1       3.399   2.608  23.735  0.00  0.00    -0.226 OA
ENDROOT
BRANCH   1   3
ATOM      3  O   UNL     1       4.761   4.527  24.716  0.00  0.00    -0.302 OA
ATOM      4  H   UNL     1       5.315   4.960  24.049  0.00  0.00    +0.222 HD
ENDBRANCH   1   3
BRANCH   1   5
ATOM      5  O   UNL     1       4.567   2.634  26.059  0.00  0.00    -0.186 OA
BRANCH   5   6
ATOM      6  P   UNL     1       4.922   1.051  26.663  0.00  0.00    +0.483 P 
ATOM      7  O   UNL     1       6.362   1.475  26.934  0.00  0.00    -0.227 OA
BRANCH   6   8
ATOM      8  O   UNL     1       4.943   0.542  25.108  0.00  0.00    -0.302 OA
ATOM      9  H   UNL     1       5.385  -0.331  25.098  0.00  0.00    +0.222 HD
ENDBRANCH   6   8
BRANCH   6  10
ATOM     10  O   UNL     1       5.276  -0.531  27.266  0.00  0.00    -0.284 OA
BRANCH  10  11
ATOM     11  C   UNL     1       4.464  -0.978  28.354  0.00  0.00    +0.206 C 
BRANCH  11  12
ATOM     12  C   UNL     1       4.173  -2.476  28.292  0.00  0.00    +0.178 C 
ATOM     13  C   UNL     1       2.701  -2.791  28.028  0.00  0.00    +0.178 C 
ATOM     14  C   UNL     1       2.627  -3.148  26.548  0.00  0.00    +0.195 C 
ATOM     15  C   UNL     1       4.074  -3.020  26.059  0.00  0.00    +0.253 C 
ATOM     16  O   UNL     1       4.922  -3.069  27.219  0.00  0.00    -0.346 OA
BRANCH  15  17
ATOM     17  N   UNL     1       4.454  -4.081  25.149  0.00  0.00    -0.286 N 
ATOM     18  C   UNL     1       5.036  -3.866  23.930  0.00  0.00    +0.167 A 
ATOM     19  N   UNL     1       5.365  -2.689  23.376  0.00  0.00    -0.216 NA
ATOM     20  C   UNL     1       5.896  -2.886  22.147  0.00  0.00    +0.225 A 
ATOM     21  N   UNL     1       6.077  -4.048  21.485  0.00  0.00    -0.219 NA
ATOM     22  C   UNL     1       5.693  -5.195  22.085  0.00  0.00    +0.147 A 
ATOM     23  N   UNL     1       5.841  -6.392  21.392  0.00  0.00    -0.341 N 
ATOM     24  H   UNL     1       5.851  -7.210  21.988  0.00  0.00    +0.144 HD
ATOM     25  H   UNL     1       6.531  -6.328  20.657  0.00  0.00    +0.144 HD
ATOM     26  C   UNL     1       5.154  -5.153  23.361  0.00  0.00    +0.147 A 
ATOM     27  N   UNL     1       4.722  -6.101  24.265  0.00  0.00    -0.231 NA
ATOM     28  C   UNL     1       4.313  -5.429  25.320  0.00  0.00    +0.203 A 
ENDBRANCH  15  17
BRANCH  14  29
ATOM     29  O   UNL     1       1.746  -2.267  25.852  0.00  0.00    -0.385 OA
ATOM     30  H   UNL     1       1.797  -2.500  24.902  0.00  0.00    +0.210 HD
ENDBRANCH  14  29
BRANCH  13  31
ATOM     31  O   UNL     1       2.310  -3.922  28.826  0.00  0.00    -0.386 OA
ATOM     32  H   UNL     1       3.074  -4.216  29.354  0.00  0.00    +0.210 HD
ENDBRANCH  13  31
ENDBRANCH  11  12
ENDBRANCH  10  11
ENDBRANCH   6  10
ENDBRANCH   5   6
ENDBRANCH   1   5
BRANCH   1  33
ATOM     33  O   UNL     1       5.646   3.499  22.888  0.00  0.00    -0.186 OA
BRANCH  33  34
ATOM     34  P   UNL     1       7.170   4.307  22.749  0.00  0.00    +0.483 P 
ATOM     35  O   UNL     1       6.542   5.666  23.037  0.00  0.00    -0.227 OA
BRANCH  34  36
ATOM     36  O   UNL     1       8.693   5.115  22.610  0.00  0.00    -0.302 OA
ATOM     37  H   UNL     1       9.233   4.474  22.098  0.00  0.00    +0.222 HD
ENDBRANCH  34  36
BRANCH  34  38
ATOM     38  O   UNL     1       7.684   3.613  24.163  0.00  0.00    -0.284 OA
BRANCH  38  39
ATOM     39  C   UNL     1       8.788   2.735  23.957  0.00  0.00    +0.206 C 
BRANCH  39  43
ATOM     40  C   UNL     1       9.518  -0.810  23.702  0.00  0.00    +0.253 C 
ATOM     41  C   UNL     1       8.788  -0.572  22.376  0.00  0.00    +0.195 C 
ATOM     42  C   UNL     1       7.945   0.687  22.611  0.00  0.00    +0.178 C 
ATOM     43  C   UNL     1       8.453   1.246  23.941  0.00  0.00    +0.178 C 
ATOM     44  O   UNL     1       9.679   0.532  24.235  0.00  0.00    -0.346 OA
BRANCH  40  52
ATOM     45  N   UNL     1       7.327  -5.057  27.428  0.00  0.00    -0.341 N 
ATOM     46  H   UNL     1       7.491  -4.415  28.195  0.00  0.00    +0.144 HD
ATOM     47  H   UNL     1       7.514  -6.039  27.588  0.00  0.00    +0.144 HD
ATOM     48  C   UNL     1       7.881  -4.627  26.225  0.00  0.00    +0.147 A 
ATOM     49  C   UNL     1       8.183  -3.279  25.964  0.00  0.00    +0.147 A 
ATOM     50  N   UNL     1       8.070  -2.142  26.735  0.00  0.00    -0.231 NA
ATOM     51  C   UNL     1       8.533  -1.177  25.970  0.00  0.00    +0.203 A 
ATOM     52  N   UNL     1       8.910  -1.640  24.723  0.00  0.00    -0.286 N 
ATOM     53  C   UNL     1       8.734  -2.991  24.725  0.00  0.00    +0.167 A 
ATOM     54  N   UNL     1       9.028  -3.867  23.756  0.00  0.00    -0.216 NA
ATOM     55  C   UNL     1       8.693  -5.123  24.114  0.00  0.00    +0.225 A 
ATOM     56  N   UNL     1       8.144  -5.548  25.272  0.00  0.00    -0.219 NA
ENDBRANCH  40  52
BRANCH  42  57
ATOM     57  O   UNL     1       6.571   0.328  22.718  0.00  0.00    -0.386 OA
ATOM     58  H   UNL     1       6.467  -0.563  22.333  0.00  0.00    +0.210 HD
ENDBRANCH  42  57
BRANCH  41  59
ATOM     59  O   UNL     1       9.756  -0.300  21.335  0.00  0.00    -0.385 OA
ATOM     60  H   UNL     1      10.308  -1.089  21.207  0.00  0.00    +0.210 HD
ENDBRANCH  41  59
ENDBRANCH  39  43
ENDBRANCH  38  39
ENDBRANCH  34  38
ENDBRANCH  33  34
ENDBRANCH   1  33
TORSDOF 19
ENDMDL
MODEL 9
REMARK VINA RESULT:      -6.8      4.324      7.741
REMARK  Name = 
REMARK  19 active torsions:
REMARK  status: ('A' for Active; 'I' for Inactive)
REMARK    1  A    between atoms: N_10  and  C_11
REMARK    2  A    between atoms: C_14  and  C_16
REMARK    3  A    between atoms: C_16  and  O_17
REMARK    4  A    between atoms: O_17  and  P_18
REMARK    5  A    between atoms: P_18  and  O_19
REMARK    6  A    between atoms: P_18  and  O_21
REMARK    7  A    between atoms: O_21  and  P_22
REMARK    8  A    between atoms: P_22  and  O_23
REMARK    9  A    between atoms: P_22  and  O_25
REMARK   10  A    between atoms: O_25  and  P_26
REMARK   11  A    between atoms: P_26  and  O_27
REMARK   12  A    between atoms: P_26  and  O_29
REMARK   13  A    between atoms: O_29  and  C_30
REMARK   14  A    between atoms: C_30  and  C_31
REMARK   15  A    between atoms: C_34  and  N_42
REMARK   16  A    between atoms: C_36  and  O_38
REMARK   17  A    between atoms: C_39  and  O_41
REMARK   18  A    between atoms: C_52  and  O_54
REMARK   19  A    between atoms: C_55  and  O_57
REMARK                            x       y       z     vdW  Elec       q    Type
REMARK                         _______ _______ _______ _____ _____    ______ ____
ROOT
ATOM      1  P   UNL     1       4.588   2.789  24.485  0.00  0.00    +0.492 P 
ATOM      2  O   UNL     1       3.186   2.604  23.981  0.00  0.00    -0.226 OA
ENDROOT
BRANCH   1   3
ATOM      3  O   UNL     1       4.775   4.306  25.021  0.00  0.00    -0.302 OA
ATOM      4  H   UNL     1       5.631   4.590  24.668  0.00  0.00    +0.222 HD
ENDBRANCH   1   3
BRANCH   1   5
ATOM      5  O   UNL     1       4.469   2.338  26.229  0.00  0.00    -0.186 OA
BRANCH   5   6
ATOM      6  P   UNL     1       5.133   0.831  26.759  0.00  0.00    +0.483 P 
ATOM      7  O   UNL     1       6.523   1.457  26.807  0.00  0.00    -0.227 OA
BRANCH   6   8
ATOM      8  O   UNL     1       4.985   0.306  25.216  0.00  0.00    -0.302 OA
ATOM      9  H   UNL     1       5.411  -0.574  25.169  0.00  0.00    +0.222 HD
ENDBRANCH   6   8
BRANCH   6  10
ATOM     10  O   UNL     1       5.796  -0.677  27.288  0.00  0.00    -0.284 OA
BRANCH  10  11
ATOM     11  C   UNL     1       4.936  -1.813  27.165  0.00  0.00    +0.206 C 
BRANCH  11  12
ATOM     12  C   UNL     1       5.674  -3.057  26.677  0.00  0.00    +0.178 C 
ATOM     13  C   UNL     1       5.839  -4.121  27.761  0.00  0.00    +0.178 C 
ATOM     14  C   UNL     1       4.767  -5.163  27.467  0.00  0.00    +0.195 C 
ATOM     15  C   UNL     1       4.057  -4.627  26.218  0.00  0.00    +0.253 C 
ATOM     16  O   UNL     1       4.937  -3.668  25.606  0.00  0.00    -0.346 OA
BRANCH  15  17
ATOM     17  N   UNL     1       3.749  -5.668  25.259  0.00  0.00    -0.286 N 
ATOM     18  C   UNL     1       2.697  -5.612  24.387  0.00  0.00    +0.167 A 
ATOM     19  N   UNL     1       1.798  -4.624  24.250  0.00  0.00    -0.216 NA
ATOM     20  C   UNL     1       0.892  -4.950  23.300  0.00  0.00    +0.225 A 
ATOM     21  N   UNL     1       0.804  -6.082  22.572  0.00  0.00    -0.219 NA
ATOM     22  C   UNL     1       1.721  -7.053  22.783  0.00  0.00    +0.147 A 
ATOM     23  N   UNL     1       1.612  -8.239  22.064  0.00  0.00    -0.341 N 
ATOM     24  H   UNL     1       2.475  -8.767  22.018  0.00  0.00    +0.144 HD
ATOM     25  H   UNL     1       1.074  -8.127  21.216  0.00  0.00    +0.144 HD
ATOM     26  C   UNL     1       2.730  -6.851  23.710  0.00  0.00    +0.147 A 
ATOM     27  N   UNL     1       3.826  -7.577  24.126  0.00  0.00    -0.231 NA
ATOM     28  C   UNL     1       4.414  -6.843  25.047  0.00  0.00    +0.203 A 
ENDBRANCH  15  17
BRANCH  14  29
ATOM     29  O   UNL     1       3.874  -5.307  28.571  0.00  0.00    -0.385 OA
ATOM     30  H   UNL     1       4.333  -4.953  29.360  0.00  0.00    +0.210 HD
ENDBRANCH  14  29
BRANCH  13  31
ATOM     31  O   UNL     1       7.145  -4.714  27.646  0.00  0.00    -0.386 OA
ATOM     32  H   UNL     1       7.291  -5.306  28.406  0.00  0.00    +0.210 HD
ENDBRANCH  13  31
ENDBRANCH  11  12
ENDBRANCH  10  11
ENDBRANCH   6  10
ENDBRANCH   5   6
ENDBRANCH   1   5
BRANCH   1  33
ATOM     33  O   UNL     1       5.462   3.349  23.073  0.00  0.00    -0.186 OA
BRANCH  33  34
ATOM     34  P   UNL     1       7.158   3.465  22.753  0.00  0.00    +0.483 P 
ATOM     35  O   UNL     1       7.512   3.190  24.211  0.00  0.00    -0.227 OA
BRANCH  34  36
ATOM     36  O   UNL     1       8.855   3.580  22.434  0.00  0.00    -0.302 OA
ATOM     37  H   UNL     1       8.896   3.518  21.454  0.00  0.00    +0.222 HD
ENDBRANCH  34  36
BRANCH  34  38
ATOM     38  O   UNL     1       7.112   2.040  21.908  0.00  0.00    -0.284 OA
BRANCH  38  39
ATOM     39  C   UNL     1       8.412   1.483  21.726  0.00  0.00    +0.206 C 
BRANCH  39  43
ATOM     40  C   UNL     1       7.953  -0.856  24.460  0.00  0.00    +0.253 C 
ATOM     41  C   UNL     1       9.264  -0.181  24.878  0.00  0.00    +0.195 C 
ATOM     42  C   UNL     1       9.850   0.379  23.577  0.00  0.00    +0.178 C 
ATOM     43  C   UNL     1       8.720   0.241  22.556  0.00  0.00    +0.178 C 
ATOM     44  O   UNL     1       7.526  -0.067  23.317  0.00  0.00    -0.346 OA
BRANCH  40  52
ATOM     45  N   UNL     1       7.255  -6.430  22.190  0.00  0.00    -0.341 N 
ATOM     46  H   UNL     1       8.233  -6.595  22.393  0.00  0.00    +0.144 HD
ATOM     47  H   UNL     1       6.880  -6.816  21.332  0.00  0.00    +0.144 HD
ATOM     48  C   UNL     1       6.876  -5.100  22.353  0.00  0.00    +0.147 A 
ATOM     49  C   UNL     1       7.589  -4.199  23.163  0.00  0.00    +0.147 A 
ATOM     50  N   UNL     1       8.742  -4.340  23.906  0.00  0.00    -0.231 NA
ATOM     51  C   UNL     1       8.944  -3.150  24.429  0.00  0.00    +0.203 A 
ATOM     52  N   UNL     1       7.949  -2.255  24.082  0.00  0.00    -0.286 N 
ATOM     53  C   UNL     1       7.103  -2.904  23.234  0.00  0.00    +0.167 A 
ATOM     54  N   UNL     1       6.033  -2.413  22.594  0.00  0.00    -0.216 NA
ATOM     55  C   UNL     1       5.429  -3.363  21.853  0.00  0.00    +0.225 A 
ATOM     56  N   UNL     1       5.780  -4.658  21.699  0.00  0.00    -0.219 NA
ENDBRANCH  40  52
BRANCH  42  57
ATOM     57  O   UNL     1      10.972  -0.406  23.183  0.00  0.00    -0.386 OA
ATOM     58  H   UNL     1      11.724   0.199  23.047  0.00  0.00    +0.210 HD
ENDBRANCH  42  57
BRANCH  41  59
ATOM     59  O   UNL     1       8.976   0.919  25.774  0.00  0.00    -0.385 OA
ATOM     60  H   UNL     1       8.378   1.540  25.326  0.00  0.00    +0.210 HD
ENDBRANCH  41  59
ENDBRANCH  39  43
ENDBRANCH  38  39
ENDBRANCH  34  38
ENDBRANCH  33  34
ENDBRANCH   1  33
TORSDOF 19
ENDMDL
