MODEL 1
REMARK VINA RESULT:      -7.7      0.000      0.000
REMARK  Name = 
REMARK  11 active torsions:
REMARK  status: ('A' for Active; 'I' for Inactive)
REMARK    1  A    between atoms: C_1  and  N_2
REMARK    2  A    between atoms: C_3  and  C_5
REMARK    3  A    between atoms: C_5  and  C_7
REMARK    4  A    between atoms: C_5  and  N_18
REMARK    5  A    between atoms: C_7  and  C_8
REMARK    6  A    between atoms: N_23  and  C_24
REMARK    7  A    between atoms: C_24  and  C_25
REMARK    8  A    between atoms: C_35  and  C_37
REMARK    9  A    between atoms: C_37  and  C_38
REMARK   10  A    between atoms: C_38  and  C_39
REMARK   11  A    between atoms: C_38  and  C_40
REMARK                            x       y       z     vdW  Elec       q    Type
REMARK                         _______ _______ _______ _____ _____    ______ ____
ROOT
ATOM      1  N   UNL     1       9.680   2.082  23.340  0.00  0.00    -0.288 N 
ATOM      2  C   UNL     1      10.041   1.097  24.246  0.00  0.00    +0.237 C 
ATOM      3  O   UNL     1      11.070   1.177  24.902  0.00  0.00    -0.274 OA
ATOM      4  C   UNL     1       9.070  -0.102  24.207  0.00  0.00    +0.163 C 
ATOM      5  N   UNL     1       9.562  -1.132  23.280  0.00  0.00    -0.286 N 
ATOM      6  C   UNL     1       9.607  -0.820  21.908  0.00  0.00    +0.218 C 
ATOM      7  O   UNL     1       9.966  -1.641  21.062  0.00  0.00    -0.276 OA
ATOM      8  C   UNL     1       9.084   0.547  21.440  0.00  0.00    +0.115 C 
ATOM      9  C   UNL     1       9.863   1.770  21.919  0.00  0.00    +0.118 C 
ENDROOT
BRANCH   1  10
ATOM     10  C   UNL     1       9.254   3.416  23.848  0.00  0.00    +0.166 C 
BRANCH  10  14
ATOM     11  C   UNL     1      12.688   5.011  23.027  0.00  0.00    +0.128 C 
ATOM     12  N   UNL     1      11.626   4.084  23.335  0.00  0.00    -0.317 N 
ATOM     13  H   UNL     1      11.842   3.105  23.239  0.00  0.00    +0.148 HD
ATOM     14  C   UNL     1      10.360   4.500  23.672  0.00  0.00    +0.234 C 
ATOM     15  O   UNL     1      10.088   5.692  23.797  0.00  0.00    -0.274 OA
ENDBRANCH  10  14
BRANCH  10  16
ATOM     16  C   UNL     1       8.402   3.452  25.152  0.00  0.00    +0.067 C 
BRANCH  16  17
ATOM     17  C   UNL     1       6.915   3.228  24.987  0.00  0.00    -0.045 A 
ATOM     18  C   UNL     1       6.123   3.030  26.109  0.00  0.00    +0.004 A 
ATOM     19  C   UNL     1       4.740   3.056  26.016  0.00  0.00    +0.009 A 
ATOM     20  C   UNL     1       4.115   3.209  24.773  0.00  0.00    -0.018 A 
ATOM     21  C   UNL     1       4.895   3.233  23.601  0.00  0.00    -0.018 A 
ATOM     22  C   UNL     1       4.238   3.288  22.357  0.00  0.00    +0.008 A 
ATOM     23  C   UNL     1       2.838   3.374  22.290  0.00  0.00    +0.001 A 
ATOM     24  C   UNL     1       2.089   3.422  23.464  0.00  0.00    +0.001 A 
ATOM     25  C   UNL     1       2.719   3.322  24.700  0.00  0.00    +0.008 A 
ATOM     26  C   UNL     1       6.302   3.231  23.719  0.00  0.00    +0.012 A 
ENDBRANCH  16  17
ENDBRANCH  10  16
ENDBRANCH   1  10
BRANCH   4  27
ATOM     27  C   UNL     1       8.491  -0.425  25.594  0.00  0.00    +0.035 C 
BRANCH  27  28
ATOM     28  C   UNL     1       6.983  -0.501  25.867  0.00  0.00    -0.015 C 
ATOM     29  C   UNL     1       6.703  -1.809  26.616  0.00  0.00    +0.007 C 
ATOM     30  C   UNL     1       6.109  -0.388  24.629  0.00  0.00    +0.007 C 
ENDBRANCH  27  28
ENDBRANCH   4  27
BRANCH   5  31
ATOM     31  C   UNL     1       9.488  -2.563  23.614  0.00  0.00    +0.141 C 
BRANCH  31  32
ATOM     32  C   UNL     1       8.167  -3.268  23.396  0.00  0.00    -0.034 C 
ATOM     33  C   UNL     1       7.949  -4.489  24.290  0.00  0.00    +0.070 C 
ATOM     34  C   UNL     1       6.494  -4.788  24.584  0.00  0.00    -0.022 A 
ATOM     35  C   UNL     1       5.513  -4.293  23.707  0.00  0.00    +0.034 A 
ATOM     36  C   UNL     1       4.165  -4.574  23.958  0.00  0.00    +0.023 A 
ATOM     37  C   UNL     1       3.792  -5.296  25.099  0.00  0.00    +0.002 A 
ATOM     38  C   UNL     1       4.767  -5.785  25.967  0.00  0.00    +0.000 A 
ATOM     39  N   UNL     1       5.919  -3.535  22.585  0.00  0.00    -0.320 N 
ATOM     40  H   UNL     1       5.175  -3.043  22.101  0.00  0.00    +0.152 HD
ATOM     41  C   UNL     1       6.117  -5.550  25.701  0.00  0.00    +0.006 A 
ATOM     42  C   UNL     1       7.158  -2.917  22.578  0.00  0.00    +0.073 C 
ENDBRANCH  31  32
ENDBRANCH   5  31
TORSDOF 8
ENDMDL
MODEL 2
REMARK VINA RESULT:      -7.7      3.062      5.015
REMARK  Name = 
REMARK  11 active torsions:
REMARK  status: ('A' for Active; 'I' for Inactive)
REMARK    1  A    between atoms: C_1  and  N_2
REMARK    2  A    between atoms: C_3  and  C_5
REMARK    3  A    between atoms: C_5  and  C_7
REMARK    4  A    between atoms: C_5  and  N_18
REMARK    5  A    between atoms: C_7  and  C_8
REMARK    6  A    between atoms: N_23  and  C_24
REMARK    7  A    between atoms: C_24  and  C_25
REMARK    8  A    between atoms: C_35  and  C_37
REMARK    9  A    between atoms: C_37  and  C_38
REMARK   10  A    between atoms: C_38  and  C_39
REMARK   11  A    between atoms: C_38  and  C_40
REMARK                            x       y       z     vdW  Elec       q    Type
REMARK                         _______ _______ _______ _____ _____    ______ ____
ROOT
ATOM      1  N   UNL     1       8.506  -2.640  23.654  0.00  0.00    -0.288 N 
ATOM      2  C   UNL     1       8.423  -3.911  24.201  0.00  0.00    +0.237 C 
ATOM      3  O   UNL     1       9.420  -4.600  24.373  0.00  0.00    -0.274 OA
ATOM      4  C   UNL     1       6.960  -4.345  24.426  0.00  0.00    +0.163 C 
ATOM      5  N   UNL     1       6.461  -5.091  23.262  0.00  0.00    -0.286 N 
ATOM      6  C   UNL     1       6.317  -4.400  22.044  0.00  0.00    +0.218 C 
ATOM      7  O   UNL     1       5.865  -4.941  21.033  0.00  0.00    -0.276 OA
ATOM      8  C   UNL     1       6.625  -2.894  22.005  0.00  0.00    +0.115 C 
ATOM      9  C   UNL     1       8.076  -2.494  22.259  0.00  0.00    +0.118 C 
ENDROOT
BRANCH   1  10
ATOM     10  C   UNL     1       9.127  -1.544  24.449  0.00  0.00    +0.166 C 
BRANCH  10  14
ATOM     11  C   UNL     1       7.804   0.202  27.645  0.00  0.00    +0.128 C 
ATOM     12  N   UNL     1       8.613  -0.512  26.686  0.00  0.00    -0.317 N 
ATOM     13  H   UNL     1       9.577  -0.664  26.937  0.00  0.00    +0.148 HD
ATOM     14  C   UNL     1       8.129  -0.906  25.462  0.00  0.00    +0.234 C 
ATOM     15  O   UNL     1       6.953  -0.729  25.150  0.00  0.00    -0.274 OA
ENDBRANCH  10  14
BRANCH  10  16
ATOM     16  C   UNL     1      10.124  -0.598  23.716  0.00  0.00    +0.067 C 
BRANCH  16  17
ATOM     17  C   UNL     1       9.565   0.725  23.241  0.00  0.00    -0.045 A 
ATOM     18  C   UNL     1       8.814   0.771  22.074  0.00  0.00    +0.004 A 
ATOM     19  C   UNL     1       8.097   1.909  21.737  0.00  0.00    +0.009 A 
ATOM     20  C   UNL     1       8.175   3.060  22.530  0.00  0.00    -0.018 A 
ATOM     21  C   UNL     1       9.069   3.094  23.617  0.00  0.00    -0.018 A 
ATOM     22  C   UNL     1       9.203   4.296  24.339  0.00  0.00    +0.008 A 
ATOM     23  C   UNL     1       8.422   5.416  24.016  0.00  0.00    +0.001 A 
ATOM     24  C   UNL     1       7.492   5.338  22.982  0.00  0.00    +0.001 A 
ATOM     25  C   UNL     1       7.380   4.174  22.228  0.00  0.00    +0.008 A 
ATOM     26  C   UNL     1       9.770   1.918  23.960  0.00  0.00    +0.012 A 
ENDBRANCH  16  17
ENDBRANCH  10  16
ENDBRANCH   1  10
BRANCH   4  27
ATOM     27  C   UNL     1       6.700  -4.777  25.878  0.00  0.00    +0.035 C 
BRANCH  27  28
ATOM     28  C   UNL     1       5.996  -3.875  26.900  0.00  0.00    -0.015 C 
ATOM     29  C   UNL     1       5.672  -4.722  28.136  0.00  0.00    +0.007 C 
ATOM     30  C   UNL     1       4.749  -3.179  26.378  0.00  0.00    +0.007 C 
ENDBRANCH  27  28
ENDBRANCH   4  27
BRANCH   5  31
ATOM     31  C   UNL     1       5.629  -6.295  23.421  0.00  0.00    +0.141 C 
BRANCH  31  32
ATOM     32  C   UNL     1       4.227  -6.115  23.959  0.00  0.00    -0.034 C 
ATOM     33  C   UNL     1       3.900  -6.988  25.171  0.00  0.00    +0.070 C 
ATOM     34  C   UNL     1       2.855  -6.398  26.095  0.00  0.00    -0.022 A 
ATOM     35  C   UNL     1       1.972  -5.430  25.584  0.00  0.00    +0.034 A 
ATOM     36  C   UNL     1       0.992  -4.887  26.423  0.00  0.00    +0.023 A 
ATOM     37  C   UNL     1       0.925  -5.263  27.770  0.00  0.00    +0.002 A 
ATOM     38  C   UNL     1       1.802  -6.223  28.274  0.00  0.00    +0.000 A 
ATOM     39  N   UNL     1       2.091  -5.044  24.230  0.00  0.00    -0.320 N 
ATOM     40  H   UNL     1       1.568  -4.215  23.967  0.00  0.00    +0.152 HD
ATOM     41  C   UNL     1       2.753  -6.804  27.434  0.00  0.00    +0.006 A 
ATOM     42  C   UNL     1       3.281  -5.250  23.552  0.00  0.00    +0.073 C 
ENDBRANCH  31  32
ENDBRANCH   5  31
TORSDOF 8
ENDMDL
MODEL 3
REMARK VINA RESULT:      -7.6      2.698      5.199
REMARK  Name = 
REMARK  11 active torsions:
REMARK  status: ('A' for Active; 'I' for Inactive)
REMARK    1  A    between atoms: C_1  and  N_2
REMARK    2  A    between atoms: C_3  and  C_5
REMARK    3  A    between atoms: C_5  and  C_7
REMARK    4  A    between atoms: C_5  and  N_18
REMARK    5  A    between atoms: C_7  and  C_8
REMARK    6  A    between atoms: N_23  and  C_24
REMARK    7  A    between atoms: C_24  and  C_25
REMARK    8  A    between atoms: C_35  and  C_37
REMARK    9  A    between atoms: C_37  and  C_38
REMARK   10  A    between atoms: C_38  and  C_39
REMARK   11  A    between atoms: C_38  and  C_40
REMARK                            x       y       z     vdW  Elec       q    Type
REMARK                         _______ _______ _______ _____ _____    ______ ____
ROOT
ATOM      1  N   UNL     1       7.085   0.023  25.748  0.00  0.00    -0.288 N 
ATOM      2  C   UNL     1       6.621  -0.869  24.794  0.00  0.00    +0.237 C 
ATOM      3  O   UNL     1       5.425  -1.014  24.581  0.00  0.00    -0.274 OA
ATOM      4  C   UNL     1       7.768  -1.692  24.172  0.00  0.00    +0.163 C 
ATOM      5  N   UNL     1       7.946  -2.958  24.899  0.00  0.00    -0.286 N 
ATOM      6  C   UNL     1       8.395  -2.898  26.232  0.00  0.00    +0.218 C 
ATOM      7  O   UNL     1       8.610  -3.913  26.897  0.00  0.00    -0.276 OA
ATOM      8  C   UNL     1       8.737  -1.528  26.839  0.00  0.00    +0.115 C 
ATOM      9  C   UNL     1       7.574  -0.552  27.006  0.00  0.00    +0.118 C 
ENDROOT
BRANCH   1  10
ATOM     10  C   UNL     1       6.950   1.486  25.502  0.00  0.00    +0.166 C 
BRANCH  10  14
ATOM     11  C   UNL     1       3.293   2.021  26.662  0.00  0.00    +0.128 C 
ATOM     12  N   UNL     1       4.476   1.609  25.947  0.00  0.00    -0.317 N 
ATOM     13  H   UNL     1       4.352   0.894  25.247  0.00  0.00    +0.148 HD
ATOM     14  C   UNL     1       5.724   2.102  26.241  0.00  0.00    +0.234 C 
ATOM     15  O   UNL     1       5.884   2.978  27.089  0.00  0.00    -0.274 OA
ENDBRANCH  10  14
BRANCH  10  16
ATOM     16  C   UNL     1       7.275   2.008  24.071  0.00  0.00    +0.067 C 
BRANCH  16  17
ATOM     17  C   UNL     1       8.209   3.194  23.987  0.00  0.00    -0.045 A 
ATOM     18  C   UNL     1       7.764   4.447  24.386  0.00  0.00    +0.004 A 
ATOM     19  C   UNL     1       8.653   5.500  24.543  0.00  0.00    +0.009 A 
ATOM     20  C   UNL     1      10.007   5.338  24.231  0.00  0.00    -0.018 A 
ATOM     21  C   UNL     1      10.448   4.131  23.655  0.00  0.00    -0.018 A 
ATOM     22  C   UNL     1      11.795   4.028  23.258  0.00  0.00    +0.008 A 
ATOM     23  C   UNL     1      12.690   5.086  23.482  0.00  0.00    +0.001 A 
ATOM     24  C   UNL     1      12.250   6.244  24.118  0.00  0.00    +0.001 A 
ATOM     25  C   UNL     1      10.912   6.381  24.475  0.00  0.00    +0.008 A 
ATOM     26  C   UNL     1       9.533   3.064  23.527  0.00  0.00    +0.012 A 
ENDBRANCH  16  17
ENDBRANCH  10  16
ENDBRANCH   1  10
BRANCH   4  27
ATOM     27  C   UNL     1       7.788  -1.593  22.638  0.00  0.00    +0.035 C 
BRANCH  27  28
ATOM     28  C   UNL     1       9.057  -1.257  21.844  0.00  0.00    -0.015 C 
ATOM     29  C   UNL     1      10.268  -1.593  22.723  0.00  0.00    +0.007 C 
ATOM     30  C   UNL     1       9.131   0.177  21.345  0.00  0.00    +0.007 C 
ENDBRANCH  27  28
ENDBRANCH   4  27
BRANCH   5  31
ATOM     31  C   UNL     1       8.202  -4.222  24.189  0.00  0.00    +0.141 C 
BRANCH  31  32
ATOM     32  C   UNL     1       7.009  -5.077  23.825  0.00  0.00    -0.034 C 
ATOM     33  C   UNL     1       6.127  -5.465  25.011  0.00  0.00    +0.070 C 
ATOM     34  C   UNL     1       4.675  -5.706  24.650  0.00  0.00    -0.022 A 
ATOM     35  C   UNL     1       4.356  -6.023  23.318  0.00  0.00    +0.034 A 
ATOM     36  C   UNL     1       3.020  -6.262  22.973  0.00  0.00    +0.023 A 
ATOM     37  C   UNL     1       2.007  -6.136  23.931  0.00  0.00    +0.002 A 
ATOM     38  C   UNL     1       2.328  -5.822  25.252  0.00  0.00    +0.000 A 
ATOM     39  N   UNL     1       5.397  -6.104  22.366  0.00  0.00    -0.320 N 
ATOM     40  H   UNL     1       5.098  -6.140  21.397  0.00  0.00    +0.152 HD
ATOM     41  C   UNL     1       3.661  -5.627  25.616  0.00  0.00    +0.006 A 
ATOM     42  C   UNL     1       6.604  -5.469  22.603  0.00  0.00    +0.073 C 
ENDBRANCH  31  32
ENDBRANCH   5  31
TORSDOF 8
ENDMDL
MODEL 4
REMARK VINA RESULT:      -7.5      2.728      8.437
REMARK  Name = 
REMARK  11 active torsions:
REMARK  status: ('A' for Active; 'I' for Inactive)
REMARK    1  A    between atoms: C_1  and  N_2
REMARK    2  A    between atoms: C_3  and  C_5
REMARK    3  A    between atoms: C_5  and  C_7
REMARK    4  A    between atoms: C_5  and  N_18
REMARK    5  A    between atoms: C_7  and  C_8
REMARK    6  A    between atoms: N_23  and  C_24
REMARK    7  A    between atoms: C_24  and  C_25
REMARK    8  A    between atoms: C_35  and  C_37
REMARK    9  A    between atoms: C_37  and  C_38
REMARK   10  A    between atoms: C_38  and  C_39
REMARK   11  A    between atoms: C_38  and  C_40
REMARK                            x       y       z     vdW  Elec       q    Type
REMARK                         _______ _______ _______ _____ _____    ______ ____
ROOT
ATOM      1  N   UNL     1       7.722  -3.702  25.800  0.00  0.00    -0.288 N 
ATOM      2  C   UNL     1       8.583  -3.841  24.723  0.00  0.00    +0.237 C 
ATOM      3  O   UNL     1       9.404  -4.746  24.672  0.00  0.00    -0.274 OA
ATOM      4  C   UNL     1       8.441  -2.676  23.722  0.00  0.00    +0.163 C 
ATOM      5  N   UNL     1       9.408  -1.612  24.030  0.00  0.00    -0.286 N 
ATOM      6  C   UNL     1       9.252  -0.906  25.238  0.00  0.00    +0.218 C 
ATOM      7  O   UNL     1       9.993   0.028  25.551  0.00  0.00    -0.276 OA
ATOM      8  C   UNL     1       8.050  -1.233  26.139  0.00  0.00    +0.115 C 
ATOM      9  C   UNL     1       8.026  -2.630  26.754  0.00  0.00    +0.118 C 
ENDROOT
BRANCH   1  10
ATOM     10  C   UNL     1       6.634  -4.701  25.995  0.00  0.00    +0.166 C 
BRANCH  10  14
ATOM     11  C   UNL     1       5.343  -5.693  29.511  0.00  0.00    +0.128 C 
ATOM     12  N   UNL     1       5.508  -5.084  28.213  0.00  0.00    -0.317 N 
ATOM     13  H   UNL     1       4.735  -4.533  27.874  0.00  0.00    +0.148 HD
ATOM     14  C   UNL     1       6.622  -5.293  27.437  0.00  0.00    +0.234 C 
ATOM     15  O   UNL     1       7.572  -5.959  27.845  0.00  0.00    -0.274 OA
ENDBRANCH  10  14
BRANCH  10  16
ATOM     16  C   UNL     1       6.321  -5.665  24.812  0.00  0.00    +0.067 C 
BRANCH  16  17
ATOM     17  C   UNL     1       4.860  -5.961  24.559  0.00  0.00    -0.045 A 
ATOM     18  C   UNL     1       4.085  -5.043  23.863  0.00  0.00    +0.004 A 
ATOM     19  C   UNL     1       2.817  -5.380  23.413  0.00  0.00    +0.009 A 
ATOM     20  C   UNL     1       2.265  -6.630  23.716  0.00  0.00    -0.018 A 
ATOM     21  C   UNL     1       2.960  -7.507  24.570  0.00  0.00    -0.018 A 
ATOM     22  C   UNL     1       2.339  -8.717  24.940  0.00  0.00    +0.008 A 
ATOM     23  C   UNL     1       1.081  -9.063  24.423  0.00  0.00    +0.001 A 
ATOM     24  C   UNL     1       0.443  -8.212  23.523  0.00  0.00    +0.001 A 
ATOM     25  C   UNL     1       1.020  -6.993  23.183  0.00  0.00    +0.008 A 
ATOM     26  C   UNL     1       4.259  -7.157  24.996  0.00  0.00    +0.012 A 
ENDBRANCH  16  17
ENDBRANCH  10  16
ENDBRANCH   1  10
BRANCH   4  27
ATOM     27  C   UNL     1       8.160  -3.169  22.293  0.00  0.00    +0.035 C 
BRANCH  27  28
ATOM     28  C   UNL     1       6.746  -3.237  21.701  0.00  0.00    -0.015 C 
ATOM     29  C   UNL     1       5.782  -2.595  22.706  0.00  0.00    +0.007 C 
ATOM     30  C   UNL     1       6.284  -4.635  21.323  0.00  0.00    +0.007 C 
ENDBRANCH  27  28
ENDBRANCH   4  27
BRANCH   5  31
ATOM     31  C   UNL     1      10.147  -0.913  22.966  0.00  0.00    +0.141 C 
BRANCH  31  32
ATOM     32  C   UNL     1       9.572   0.387  22.449  0.00  0.00    -0.034 C 
ATOM     33  C   UNL     1       8.055   0.372  22.256  0.00  0.00    +0.070 C 
ATOM     34  C   UNL     1       7.400   1.730  22.398  0.00  0.00    -0.022 A 
ATOM     35  C   UNL     1       8.188   2.881  22.214  0.00  0.00    +0.034 A 
ATOM     36  C   UNL     1       7.593   4.143  22.328  0.00  0.00    +0.023 A 
ATOM     37  C   UNL     1       6.240   4.260  22.673  0.00  0.00    +0.002 A 
ATOM     38  C   UNL     1       5.462   3.117  22.854  0.00  0.00    +0.000 A 
ATOM     39  N   UNL     1       9.558   2.729  21.905  0.00  0.00    -0.320 N 
ATOM     40  H   UNL     1      10.115   3.574  21.975  0.00  0.00    +0.152 HD
ATOM     41  C   UNL     1       6.035   1.854  22.698  0.00  0.00    +0.006 A 
ATOM     42  C   UNL     1      10.210   1.546  22.210  0.00  0.00    +0.073 C 
ENDBRANCH  31  32
ENDBRANCH   5  31
TORSDOF 8
ENDMDL
MODEL 5
REMARK VINA RESULT:      -7.1      2.812      5.748
REMARK  Name = 
REMARK  11 active torsions:
REMARK  status: ('A' for Active; 'I' for Inactive)
REMARK    1  A    between atoms: C_1  and  N_2
REMARK    2  A    between atoms: C_3  and  C_5
REMARK    3  A    between atoms: C_5  and  C_7
REMARK    4  A    between atoms: C_5  and  N_18
REMARK    5  A    between atoms: C_7  and  C_8
REMARK    6  A    between atoms: N_23  and  C_24
REMARK    7  A    between atoms: C_24  and  C_25
REMARK    8  A    between atoms: C_35  and  C_37
REMARK    9  A    between atoms: C_37  and  C_38
REMARK   10  A    between atoms: C_38  and  C_39
REMARK   11  A    between atoms: C_38  and  C_40
REMARK                            x       y       z     vdW  Elec       q    Type
REMARK                         _______ _______ _______ _____ _____    ______ ____
ROOT
ATOM      1  N   UNL     1       5.722   2.988  25.388  0.00  0.00    -0.288 N 
ATOM      2  C   UNL     1       6.123   1.813  24.772  0.00  0.00    +0.237 C 
ATOM      3  O   UNL     1       5.340   1.132  24.123  0.00  0.00    -0.274 OA
ATOM      4  C   UNL     1       7.583   1.454  25.115  0.00  0.00    +0.163 C 
ATOM      5  N   UNL     1       7.632   0.559  26.281  0.00  0.00    -0.286 N 
ATOM      6  C   UNL     1       7.216   1.069  27.525  0.00  0.00    +0.218 C 
ATOM      7  O   UNL     1       7.266   0.398  28.558  0.00  0.00    -0.276 OA
ATOM      8  C   UNL     1       6.795   2.545  27.619  0.00  0.00    +0.115 C 
ATOM      9  C   UNL     1       5.540   2.941  26.843  0.00  0.00    +0.118 C 
ENDROOT
BRANCH   1  10
ATOM     10  C   UNL     1       5.385   4.172  24.549  0.00  0.00    +0.166 C 
BRANCH  10  14
ATOM     11  C   UNL     1       2.037   3.371  22.772  0.00  0.00    +0.128 C 
ATOM     12  N   UNL     1       3.433   3.485  23.115  0.00  0.00    -0.317 N 
ATOM     13  H   UNL     1       4.078   2.945  22.561  0.00  0.00    +0.148 HD
ATOM     14  C   UNL     1       3.871   4.230  24.184  0.00  0.00    +0.234 C 
ATOM     15  O   UNL     1       3.092   4.896  24.863  0.00  0.00    -0.274 OA
ENDBRANCH  10  14
BRANCH  10  16
ATOM     16  C   UNL     1       6.412   4.596  23.457  0.00  0.00    +0.067 C 
BRANCH  16  17
ATOM     17  C   UNL     1       7.609   5.388  23.935  0.00  0.00    -0.045 A 
ATOM     18  C   UNL     1       7.448   6.334  24.938  0.00  0.00    +0.004 A 
ATOM     19  C   UNL     1       8.549   6.905  25.558  0.00  0.00    +0.009 A 
ATOM     20  C   UNL     1       9.845   6.592  25.135  0.00  0.00    -0.018 A 
ATOM     21  C   UNL     1      10.027   5.773  24.004  0.00  0.00    -0.018 A 
ATOM     22  C   UNL     1      11.338   5.553  23.537  0.00  0.00    +0.008 A 
ATOM     23  C   UNL     1      12.440   6.092  24.218  0.00  0.00    +0.001 A 
ATOM     24  C   UNL     1      12.241   6.840  25.376  0.00  0.00    +0.001 A 
ATOM     25  C   UNL     1      10.952   7.107  25.825  0.00  0.00    +0.008 A 
ATOM     26  C   UNL     1       8.895   5.181  23.402  0.00  0.00    +0.012 A 
ENDBRANCH  16  17
ENDBRANCH  10  16
ENDBRANCH   1  10
BRANCH   4  27
ATOM     27  C   UNL     1       8.441   1.244  23.856  0.00  0.00    +0.035 C 
BRANCH  27  28
ATOM     28  C   UNL     1       9.866   1.796  23.722  0.00  0.00    -0.015 C 
ATOM     29  C   UNL     1      10.182   1.932  22.228  0.00  0.00    +0.007 C 
ATOM     30  C   UNL     1      10.933   0.974  24.428  0.00  0.00    +0.007 C 
ENDBRANCH  27  28
ENDBRANCH   4  27
BRANCH   5  31
ATOM     31  C   UNL     1       8.554  -0.587  26.330  0.00  0.00    +0.141 C 
BRANCH  31  32
ATOM     32  C   UNL     1       8.046  -1.920  25.827  0.00  0.00    -0.034 C 
ATOM     33  C   UNL     1       6.921  -1.816  24.796  0.00  0.00    +0.070 C 
ATOM     34  C   UNL     1       6.861  -2.980  23.828  0.00  0.00    -0.022 A 
ATOM     35  C   UNL     1       7.450  -4.201  24.204  0.00  0.00    +0.034 A 
ATOM     36  C   UNL     1       7.389  -5.289  23.325  0.00  0.00    +0.023 A 
ATOM     37  C   UNL     1       6.793  -5.150  22.066  0.00  0.00    +0.002 A 
ATOM     38  C   UNL     1       6.209  -3.939  21.696  0.00  0.00    +0.000 A 
ATOM     39  N   UNL     1       8.078  -4.297  25.466  0.00  0.00    -0.320 N 
ATOM     40  H   UNL     1       8.649  -5.124  25.605  0.00  0.00    +0.152 HD
ATOM     41  C   UNL     1       6.224  -2.861  22.584  0.00  0.00    +0.006 A 
ATOM     42  C   UNL     1       8.500  -3.152  26.119  0.00  0.00    +0.073 C 
ENDBRANCH  31  32
ENDBRANCH   5  31
TORSDOF 8
ENDMDL
MODEL 6
REMARK VINA RESULT:      -7.0      2.457      8.328
REMARK  Name = 
REMARK  11 active torsions:
REMARK  status: ('A' for Active; 'I' for Inactive)
REMARK    1  A    between atoms: C_1  and  N_2
REMARK    2  A    between atoms: C_3  and  C_5
REMARK    3  A    between atoms: C_5  and  C_7
REMARK    4  A    between atoms: C_5  and  N_18
REMARK    5  A    between atoms: C_7  and  C_8
REMARK    6  A    between atoms: N_23  and  C_24
REMARK    7  A    between atoms: C_24  and  C_25
REMARK    8  A    between atoms: C_35  and  C_37
REMARK    9  A    between atoms: C_37  and  C_38
REMARK   10  A    between atoms: C_38  and  C_39
REMARK   11  A    between atoms: C_38  and  C_40
REMARK                            x       y       z     vdW  Elec       q    Type
REMARK                         _______ _______ _______ _____ _____    ______ ____
ROOT
ATOM      1  N   UNL     1       6.849  -3.305  24.195  0.00  0.00    -0.288 N 
ATOM      2  C   UNL     1       6.560  -2.393  23.192  0.00  0.00    +0.237 C 
ATOM      3  O   UNL     1       5.796  -2.669  22.276  0.00  0.00    -0.274 OA
ATOM      4  C   UNL     1       7.396  -1.104  23.330  0.00  0.00    +0.163 C 
ATOM      5  N   UNL     1       8.628  -1.203  22.533  0.00  0.00    -0.286 N 
ATOM      6  C   UNL     1       9.592  -2.152  22.921  0.00  0.00    +0.218 C 
ATOM      7  O   UNL     1      10.670  -2.268  22.334  0.00  0.00    -0.276 OA
ATOM      8  C   UNL     1       9.343  -2.989  24.186  0.00  0.00    +0.115 C 
ATOM      9  C   UNL     1       8.162  -3.956  24.135  0.00  0.00    +0.118 C 
ENDROOT
BRANCH   1  10
ATOM     10  C   UNL     1       5.791  -3.660  25.181  0.00  0.00    +0.166 C 
BRANCH  10  14
ATOM     11  C   UNL     1       4.489  -1.297  27.962  0.00  0.00    +0.128 C 
ATOM     12  N   UNL     1       4.624  -2.087  26.762  0.00  0.00    -0.317 N 
ATOM     13  H   UNL     1       3.793  -2.201  26.203  0.00  0.00    +0.148 HD
ATOM     14  C   UNL     1       5.797  -2.719  26.423  0.00  0.00    +0.234 C 
ATOM     15  O   UNL     1       6.817  -2.581  27.096  0.00  0.00    -0.274 OA
ENDBRANCH  10  14
BRANCH  10  16
ATOM     16  C   UNL     1       5.506  -5.173  25.418  0.00  0.00    +0.067 C 
BRANCH  16  17
ATOM     17  C   UNL     1       4.241  -5.721  24.796  0.00  0.00    -0.045 A 
ATOM     18  C   UNL     1       3.661  -5.056  23.724  0.00  0.00    +0.004 A 
ATOM     19  C   UNL     1       2.647  -5.648  22.986  0.00  0.00    +0.009 A 
ATOM     20  C   UNL     1       2.137  -6.898  23.354  0.00  0.00    -0.018 A 
ATOM     21  C   UNL     1       2.586  -7.510  24.541  0.00  0.00    -0.018 A 
ATOM     22  C   UNL     1       1.987  -8.720  24.942  0.00  0.00    +0.008 A 
ATOM     23  C   UNL     1       1.005  -9.330  24.147  0.00  0.00    +0.001 A 
ATOM     24  C   UNL     1       0.627  -8.744  22.940  0.00  0.00    +0.001 A 
ATOM     25  C   UNL     1       1.174  -7.526  22.552  0.00  0.00    +0.008 A 
ATOM     26  C   UNL     1       3.637  -6.904  25.263  0.00  0.00    +0.012 A 
ENDBRANCH  16  17
ENDBRANCH  10  16
ENDBRANCH   1  10
BRANCH   4  27
ATOM     27  C   UNL     1       6.517   0.157  23.368  0.00  0.00    +0.035 C 
BRANCH  27  28
ATOM     28  C   UNL     1       5.964   0.744  24.673  0.00  0.00    -0.015 C 
ATOM     29  C   UNL     1       5.223   2.042  24.331  0.00  0.00    +0.007 C 
ATOM     30  C   UNL     1       7.008   0.985  25.751  0.00  0.00    +0.007 C 
ENDBRANCH  27  28
ENDBRANCH   4  27
BRANCH   5  31
ATOM     31  C   UNL     1       9.126  -0.063  21.745  0.00  0.00    +0.141 C 
BRANCH  31  32
ATOM     32  C   UNL     1       9.344   1.248  22.466  0.00  0.00    -0.034 C 
ATOM     33  C   UNL     1       8.596   2.434  21.857  0.00  0.00    +0.070 C 
ATOM     34  C   UNL     1       8.249   3.523  22.852  0.00  0.00    -0.022 A 
ATOM     35  C   UNL     1       8.994   3.612  24.041  0.00  0.00    +0.034 A 
ATOM     36  C   UNL     1       8.694   4.623  24.962  0.00  0.00    +0.023 A 
ATOM     37  C   UNL     1       7.630   5.502  24.727  0.00  0.00    +0.002 A 
ATOM     38  C   UNL     1       6.893   5.411  23.547  0.00  0.00    +0.000 A 
ATOM     39  N   UNL     1      10.036   2.685  24.266  0.00  0.00    -0.320 N 
ATOM     40  H   UNL     1      10.407   2.669  25.210  0.00  0.00    +0.152 HD
ATOM     41  C   UNL     1       7.214   4.437  22.601  0.00  0.00    +0.006 A 
ATOM     42  C   UNL     1      10.046   1.476  23.591  0.00  0.00    +0.073 C 
ENDBRANCH  31  32
ENDBRANCH   5  31
TORSDOF 8
ENDMDL
MODEL 7
REMARK VINA RESULT:      -6.9      2.170      7.790
REMARK  Name = 
REMARK  11 active torsions:
REMARK  status: ('A' for Active; 'I' for Inactive)
REMARK    1  A    between atoms: C_1  and  N_2
REMARK    2  A    between atoms: C_3  and  C_5
REMARK    3  A    between atoms: C_5  and  C_7
REMARK    4  A    between atoms: C_5  and  N_18
REMARK    5  A    between atoms: C_7  and  C_8
REMARK    6  A    between atoms: N_23  and  C_24
REMARK    7  A    between atoms: C_24  and  C_25
REMARK    8  A    between atoms: C_35  and  C_37
REMARK    9  A    between atoms: C_37  and  C_38
REMARK   10  A    between atoms: C_38  and  C_39
REMARK   11  A    between atoms: C_38  and  C_40
REMARK                            x       y       z     vdW  Elec       q    Type
REMARK                         _______ _______ _______ _____ _____    ______ ____
ROOT
ATOM      1  N   UNL     1       8.528  -2.132  23.668  0.00  0.00    -0.288 N 
ATOM      2  C   UNL     1       7.447  -1.420  23.173  0.00  0.00    +0.237 C 
ATOM      3  O   UNL     1       6.664  -1.917  22.374  0.00  0.00    -0.274 OA
ATOM      4  C   UNL     1       7.455   0.046  23.655  0.00  0.00    +0.163 C 
ATOM      5  N   UNL     1       8.142   0.905  22.679  0.00  0.00    -0.286 N 
ATOM      6  C   UNL     1       9.522   0.712  22.484  0.00  0.00    +0.218 C 
ATOM      7  O   UNL     1      10.180   1.418  21.716  0.00  0.00    -0.276 OA
ATOM      8  C   UNL     1      10.255  -0.334  23.340  0.00  0.00    +0.115 C 
ATOM      9  C   UNL     1       9.847  -1.789  23.125  0.00  0.00    +0.118 C 
ENDROOT
BRANCH   1  10
ATOM     10  C   UNL     1       8.286  -3.262  24.607  0.00  0.00    +0.166 C 
BRANCH  10  14
ATOM     11  C   UNL     1       7.299  -5.950  21.997  0.00  0.00    +0.128 C 
ATOM     12  N   UNL     1       7.349  -4.765  22.818  0.00  0.00    -0.317 N 
ATOM     13  H   UNL     1       6.750  -4.002  22.543  0.00  0.00    +0.148 HD
ATOM     14  C   UNL     1       8.216  -4.637  23.877  0.00  0.00    +0.234 C 
ATOM     15  O   UNL     1       8.947  -5.564  24.222  0.00  0.00    -0.274 OA
ENDBRANCH  10  14
BRANCH  10  16
ATOM     16  C   UNL     1       7.302  -3.017  25.791  0.00  0.00    +0.067 C 
BRANCH  16  17
ATOM     17  C   UNL     1       5.934  -3.648  25.665  0.00  0.00    -0.045 A 
ATOM     18  C   UNL     1       4.863  -2.880  25.229  0.00  0.00    +0.004 A 
ATOM     19  C   UNL     1       3.658  -3.474  24.882  0.00  0.00    +0.009 A 
ATOM     20  C   UNL     1       3.476  -4.853  25.034  0.00  0.00    -0.018 A 
ATOM     21  C   UNL     1       4.486  -5.624  25.642  0.00  0.00    -0.018 A 
ATOM     22  C   UNL     1       4.239  -6.991  25.874  0.00  0.00    +0.008 A 
ATOM     23  C   UNL     1       3.036  -7.582  25.459  0.00  0.00    +0.001 A 
ATOM     24  C   UNL     1       2.080  -6.816  24.795  0.00  0.00    +0.001 A 
ATOM     25  C   UNL     1       2.287  -5.455  24.599  0.00  0.00    +0.008 A 
ATOM     26  C   UNL     1       5.713  -5.006  25.965  0.00  0.00    +0.012 A 
ENDBRANCH  16  17
ENDBRANCH  10  16
ENDBRANCH   1  10
BRANCH   4  27
ATOM     27  C   UNL     1       6.137   0.439  24.342  0.00  0.00    +0.035 C 
BRANCH  27  28
ATOM     28  C   UNL     1       6.009   0.603  25.861  0.00  0.00    -0.015 C 
ATOM     29  C   UNL     1       4.716   1.377  26.147  0.00  0.00    +0.007 C 
ATOM     30  C   UNL     1       7.199   1.273  26.529  0.00  0.00    +0.007 C 
ENDBRANCH  27  28
ENDBRANCH   4  27
BRANCH   5  31
ATOM     31  C   UNL     1       7.620   2.235  22.327  0.00  0.00    +0.141 C 
BRANCH  31  32
ATOM     32  C   UNL     1       7.717   3.326  23.370  0.00  0.00    -0.034 C 
ATOM     33  C   UNL     1       6.405   4.069  23.627  0.00  0.00    +0.070 C 
ATOM     34  C   UNL     1       6.282   4.640  25.025  0.00  0.00    -0.022 A 
ATOM     35  C   UNL     1       7.455   4.872  25.764  0.00  0.00    +0.034 A 
ATOM     36  C   UNL     1       7.357   5.413  27.052  0.00  0.00    +0.023 A 
ATOM     37  C   UNL     1       6.103   5.671  27.618  0.00  0.00    +0.002 A 
ATOM     38  C   UNL     1       4.941   5.440  26.882  0.00  0.00    +0.000 A 
ATOM     39  N   UNL     1       8.704   4.564  25.179  0.00  0.00    -0.320 N 
ATOM     40  H   UNL     1       9.494   4.566  25.815  0.00  0.00    +0.152 HD
ATOM     41  C   UNL     1       5.030   4.944  25.580  0.00  0.00    +0.006 A 
ATOM     42  C   UNL     1       8.774   3.666  24.128  0.00  0.00    +0.073 C 
ENDBRANCH  31  32
ENDBRANCH   5  31
TORSDOF 8
ENDMDL
MODEL 8
REMARK VINA RESULT:      -6.8      1.641      2.207
REMARK  Name = 
REMARK  11 active torsions:
REMARK  status: ('A' for Active; 'I' for Inactive)
REMARK    1  A    between atoms: C_1  and  N_2
REMARK    2  A    between atoms: C_3  and  C_5
REMARK    3  A    between atoms: C_5  and  C_7
REMARK    4  A    between atoms: C_5  and  N_18
REMARK    5  A    between atoms: C_7  and  C_8
REMARK    6  A    between atoms: N_23  and  C_24
REMARK    7  A    between atoms: C_24  and  C_25
REMARK    8  A    between atoms: C_35  and  C_37
REMARK    9  A    between atoms: C_37  and  C_38
REMARK   10  A    between atoms: C_38  and  C_39
REMARK   11  A    between atoms: C_38  and  C_40
REMARK                            x       y       z     vdW  Elec       q    Type
REMARK                         _______ _______ _______ _____ _____    ______ ____
ROOT
ATOM      1  N   UNL     1       8.227   1.981  22.912  0.00  0.00    -0.288 N 
ATOM      2  C   UNL     1       8.526   1.346  24.108  0.00  0.00    +0.237 C 
ATOM      3  O   UNL     1       9.120   1.924  25.008  0.00  0.00    -0.274 OA
ATOM      4  C   UNL     1       8.131  -0.145  24.080  0.00  0.00    +0.163 C 
ATOM      5  N   UNL     1       9.270  -0.971  23.652  0.00  0.00    -0.286 N 
ATOM      6  C   UNL     1       9.733  -0.825  22.331  0.00  0.00    +0.218 C 
ATOM      7  O   UNL     1      10.655  -1.509  21.882  0.00  0.00    -0.276 OA
ATOM      8  C   UNL     1       8.993   0.135  21.386  0.00  0.00    +0.115 C 
ATOM      9  C   UNL     1       9.045   1.617  21.751  0.00  0.00    +0.118 C 
ENDROOT
BRANCH   1  10
ATOM     10  C   UNL     1       7.202   3.061  22.899  0.00  0.00    +0.166 C 
BRANCH  10  14
ATOM     11  C   UNL     1       9.639   6.040  23.339  0.00  0.00    +0.128 C 
ATOM     12  N   UNL     1       8.907   4.809  23.509  0.00  0.00    -0.317 N 
ATOM     13  H   UNL     1       9.258   4.170  24.206  0.00  0.00    +0.148 HD
ATOM     14  C   UNL     1       7.831   4.476  22.723  0.00  0.00    +0.234 C 
ATOM     15  O   UNL     1       7.393   5.251  21.874  0.00  0.00    -0.274 OA
ENDBRANCH  10  14
BRANCH  10  16
ATOM     16  C   UNL     1       5.993   2.919  23.872  0.00  0.00    +0.067 C 
BRANCH  16  17
ATOM     17  C   UNL     1       4.727   3.646  23.478  0.00  0.00    -0.045 A 
ATOM     18  C   UNL     1       4.265   4.694  24.263  0.00  0.00    +0.004 A 
ATOM     19  C   UNL     1       3.252   5.526  23.812  0.00  0.00    +0.009 A 
ATOM     20  C   UNL     1       2.624   5.280  22.586  0.00  0.00    -0.018 A 
ATOM     21  C   UNL     1       2.952   4.121  21.857  0.00  0.00    -0.018 A 
ATOM     22  C   UNL     1       2.237   3.844  20.676  0.00  0.00    +0.008 A 
ATOM     23  C   UNL     1       1.256   4.732  20.208  0.00  0.00    +0.001 A 
ATOM     24  C   UNL     1       0.997   5.909  20.907  0.00  0.00    +0.001 A 
ATOM     25  C   UNL     1       1.661   6.176  22.100  0.00  0.00    +0.008 A 
ATOM     26  C   UNL     1       4.004   3.301  22.320  0.00  0.00    +0.012 A 
ENDBRANCH  16  17
ENDBRANCH  10  16
ENDBRANCH   1  10
BRANCH   4  27
ATOM     27  C   UNL     1       7.210  -0.523  25.252  0.00  0.00    +0.035 C 
BRANCH  27  28
ATOM     28  C   UNL     1       5.687  -0.641  25.106  0.00  0.00    -0.015 C 
ATOM     29  C   UNL     1       5.040   0.244  26.179  0.00  0.00    +0.007 C 
ATOM     30  C   UNL     1       5.151  -2.061  25.179  0.00  0.00    +0.007 C 
ENDBRANCH  27  28
ENDBRANCH   4  27
BRANCH   5  31
ATOM     31  C   UNL     1       9.575  -2.254  24.305  0.00  0.00    +0.141 C 
BRANCH  31  32
ATOM     32  C   UNL     1       8.660  -3.424  24.018  0.00  0.00    -0.034 C 
ATOM     33  C   UNL     1       8.462  -4.373  25.199  0.00  0.00    +0.070 C 
ATOM     34  C   UNL     1       7.133  -5.101  25.192  0.00  0.00    -0.022 A 
ATOM     35  C   UNL     1       6.445  -5.236  23.973  0.00  0.00    +0.034 A 
ATOM     36  C   UNL     1       5.223  -5.918  23.949  0.00  0.00    +0.023 A 
ATOM     37  C   UNL     1       4.666  -6.416  25.133  0.00  0.00    +0.002 A 
ATOM     38  C   UNL     1       5.351  -6.280  26.341  0.00  0.00    +0.000 A 
ATOM     39  N   UNL     1       7.016  -4.688  22.802  0.00  0.00    -0.320 N 
ATOM     40  H   UNL     1       6.398  -4.641  21.999  0.00  0.00    +0.152 HD
ATOM     41  C   UNL     1       6.592  -5.642  26.368  0.00  0.00    +0.006 A 
ATOM     42  C   UNL     1       7.963  -3.683  22.897  0.00  0.00    +0.073 C 
ENDBRANCH  31  32
ENDBRANCH   5  31
TORSDOF 8
ENDMDL
MODEL 9
REMARK VINA RESULT:      -6.8      3.585      7.703
REMARK  Name = 
REMARK  11 active torsions:
REMARK  status: ('A' for Active; 'I' for Inactive)
REMARK    1  A    between atoms: C_1  and  N_2
REMARK    2  A    between atoms: C_3  and  C_5
REMARK    3  A    between atoms: C_5  and  C_7
REMARK    4  A    between atoms: C_5  and  N_18
REMARK    5  A    between atoms: C_7  and  C_8
REMARK    6  A    between atoms: N_23  and  C_24
REMARK    7  A    between atoms: C_24  and  C_25
REMARK    8  A    between atoms: C_35  and  C_37
REMARK    9  A    between atoms: C_37  and  C_38
REMARK   10  A    between atoms: C_38  and  C_39
REMARK   11  A    between atoms: C_38  and  C_40
REMARK                            x       y       z     vdW  Elec       q    Type
REMARK                         _______ _______ _______ _____ _____    ______ ____
ROOT
ATOM      1  N   UNL     1       6.623  -4.250  25.034  0.00  0.00    -0.288 N 
ATOM      2  C   UNL     1       6.927  -3.637  26.239  0.00  0.00    +0.237 C 
ATOM      3  O   UNL     1       7.871  -4.006  26.925  0.00  0.00    -0.274 OA
ATOM      4  C   UNL     1       5.881  -2.569  26.620  0.00  0.00    +0.163 C 
ATOM      5  N   UNL     1       4.836  -3.154  27.473  0.00  0.00    -0.286 N 
ATOM      6  C   UNL     1       3.988  -4.125  26.909  0.00  0.00    +0.218 C 
ATOM      7  O   UNL     1       3.061  -4.633  27.544  0.00  0.00    -0.276 OA
ATOM      8  C   UNL     1       4.150  -4.479  25.422  0.00  0.00    +0.115 C 
ATOM      9  C   UNL     1       5.463  -5.148  25.025  0.00  0.00    +0.118 C 
ENDROOT
BRANCH   1  10
ATOM     10  C   UNL     1       7.540  -4.068  23.874  0.00  0.00    +0.166 C 
BRANCH  10  14
ATOM     11  C   UNL     1       6.193  -5.897  20.735  0.00  0.00    +0.128 C 
ATOM     12  N   UNL     1       6.366  -4.999  21.851  0.00  0.00    -0.317 N 
ATOM     13  H   UNL     1       5.755  -4.199  21.883  0.00  0.00    +0.148 HD
ATOM     14  C   UNL     1       7.354  -5.173  22.790  0.00  0.00    +0.234 C 
ATOM     15  O   UNL     1       8.101  -6.149  22.762  0.00  0.00    -0.274 OA
ENDBRANCH  10  14
BRANCH  10  16
ATOM     16  C   UNL     1       8.988  -3.577  24.170  0.00  0.00    +0.067 C 
BRANCH  16  17
ATOM     17  C   UNL     1       9.392  -2.263  23.540  0.00  0.00    -0.045 A 
ATOM     18  C   UNL     1       9.196  -2.067  22.179  0.00  0.00    +0.004 A 
ATOM     19  C   UNL     1       9.334  -0.807  21.617  0.00  0.00    +0.009 A 
ATOM     20  C   UNL     1       9.746   0.278  22.398  0.00  0.00    -0.018 A 
ATOM     21  C   UNL     1      10.123   0.067  23.738  0.00  0.00    -0.018 A 
ATOM     22  C   UNL     1      10.628   1.155  24.475  0.00  0.00    +0.008 A 
ATOM     23  C   UNL     1      10.702   2.434  23.902  0.00  0.00    +0.001 A 
ATOM     24  C   UNL     1      10.257   2.637  22.597  0.00  0.00    +0.001 A 
ATOM     25  C   UNL     1       9.799   1.564  21.840  0.00  0.00    +0.008 A 
ATOM     26  C   UNL     1       9.950  -1.218  24.299  0.00  0.00    +0.012 A 
ENDBRANCH  16  17
ENDBRANCH  10  16
ENDBRANCH   1  10
BRANCH   4  27
ATOM     27  C   UNL     1       6.523  -1.199  26.894  0.00  0.00    +0.035 C 
BRANCH  27  28
ATOM     28  C   UNL     1       6.288   0.022  25.995  0.00  0.00    -0.015 C 
ATOM     29  C   UNL     1       6.281  -0.456  24.539  0.00  0.00    +0.007 C 
ATOM     30  C   UNL     1       7.285   1.153  26.189  0.00  0.00    +0.007 C 
ENDBRANCH  27  28
ENDBRANCH   4  27
BRANCH   5  31
ATOM     31  C   UNL     1       4.303  -2.430  28.638  0.00  0.00    +0.141 C 
BRANCH  31  32
ATOM     32  C   UNL     1       3.718  -1.054  28.403  0.00  0.00    -0.034 C 
ATOM     33  C   UNL     1       4.315   0.043  29.285  0.00  0.00    +0.070 C 
ATOM     34  C   UNL     1       4.275   1.424  28.664  0.00  0.00    -0.022 A 
ATOM     35  C   UNL     1       3.339   1.680  27.647  0.00  0.00    +0.034 A 
ATOM     36  C   UNL     1       3.281   2.956  27.075  0.00  0.00    +0.023 A 
ATOM     37  C   UNL     1       4.179   3.953  27.474  0.00  0.00    +0.002 A 
ATOM     38  C   UNL     1       5.106   3.697  28.484  0.00  0.00    +0.000 A 
ATOM     39  N   UNL     1       2.472   0.641  27.239  0.00  0.00    -0.320 N 
ATOM     40  H   UNL     1       1.959   0.815  26.381  0.00  0.00    +0.152 HD
ATOM     41  C   UNL     1       5.142   2.441  29.093  0.00  0.00    +0.006 A 
ATOM     42  C   UNL     1       2.808  -0.679  27.486  0.00  0.00    +0.073 C 
ENDBRANCH  31  32
ENDBRANCH   5  31
TORSDOF 8
ENDMDL
