MODEL 1
REMARK VINA RESULT:      -4.9      0.000      0.000
REMARK  Name = 
REMARK  6 active torsions:
REMARK  status: ('A' for Active; 'I' for Inactive)
REMARK    1  A    between atoms: C_2  and  C_3
REMARK    2  A    between atoms: C_2  and  O_4
REMARK    3  A    between atoms: C_2  and  C_5
REMARK    4  A    between atoms: C_5  and  N_7
REMARK    5  A    between atoms: C_5  and  C_8
REMARK    6  A    between atoms: C_8  and  C_9
REMARK                            x       y       z     vdW  Elec       q    Type
REMARK                         _______ _______ _______ _____ _____    ______ ____
ROOT
ATOM      1  C   UNL     1       9.115  -4.636  25.605  0.00  0.00    +0.084 C 
ENDROOT
BRANCH   1   2
ATOM      2  N   UNL     1      10.263  -5.543  25.392  0.00  0.00    -0.325 NA
ATOM      3  H   UNL     1      10.351  -5.774  24.405  0.00  0.00    +0.119 HD
ATOM      4  H   UNL     1      11.127  -5.083  25.670  0.00  0.00    +0.119 HD
ENDBRANCH   1   2
BRANCH   1   5
ATOM      5  C   UNL     1       7.840  -5.385  26.097  0.00  0.00    +0.128 C 
ATOM      6  C   UNL     1       6.572  -4.546  25.963  0.00  0.00    +0.039 C 
BRANCH   5   7
ATOM      7  O   UNL     1       7.985  -5.802  27.457  0.00  0.00    -0.391 OA
ATOM      8  H   UNL     1       7.379  -6.546  27.603  0.00  0.00    +0.210 HD
ENDBRANCH   5   7
ENDBRANCH   1   5
BRANCH   1   9
ATOM      9  C   UNL     1       8.854  -3.845  24.299  0.00  0.00    +0.056 C 
BRANCH   9  10
ATOM     10  C   UNL     1       9.263  -2.389  24.372  0.00  0.00    -0.046 A 
ATOM     11  C   UNL     1       8.904  -1.613  25.482  0.00  0.00    +0.004 A 
ATOM     12  C   UNL     1       9.304  -0.278  25.572  0.00  0.00    +0.000 A 
ATOM     13  C   UNL     1      10.065   0.293  24.555  0.00  0.00    +0.000 A 
ATOM     14  C   UNL     1      10.414  -0.465  23.438  0.00  0.00    +0.000 A 
ATOM     15  C   UNL     1      10.008  -1.796  23.343  0.00  0.00    +0.004 A 
ENDBRANCH   9  10
ENDBRANCH   1   9
TORSDOF 5
ENDMDL
MODEL 2
REMARK VINA RESULT:      -4.8      2.549      3.188
REMARK  Name = 
REMARK  6 active torsions:
REMARK  status: ('A' for Active; 'I' for Inactive)
REMARK    1  A    between atoms: C_2  and  C_3
REMARK    2  A    between atoms: C_2  and  O_4
REMARK    3  A    between atoms: C_2  and  C_5
REMARK    4  A    between atoms: C_5  and  N_7
REMARK    5  A    between atoms: C_5  and  C_8
REMARK    6  A    between atoms: C_8  and  C_9
REMARK                            x       y       z     vdW  Elec       q    Type
REMARK                         _______ _______ _______ _____ _____    ______ ____
ROOT
ATOM      1  C   UNL     1       9.167  -2.590  23.683  0.00  0.00    +0.084 C 
ENDROOT
BRANCH   1   2
ATOM      2  N   UNL     1       9.697  -3.781  24.381  0.00  0.00    -0.325 NA
ATOM      3  H   UNL     1      10.711  -3.725  24.451  0.00  0.00    +0.119 HD
ATOM      4  H   UNL     1       9.333  -3.820  25.329  0.00  0.00    +0.119 HD
ENDBRANCH   1   2
BRANCH   1   5
ATOM      5  C   UNL     1       7.976  -2.929  22.735  0.00  0.00    +0.128 C 
ATOM      6  C   UNL     1       6.809  -1.956  22.881  0.00  0.00    +0.039 C 
BRANCH   5   7
ATOM      7  O   UNL     1       7.508  -4.261  22.960  0.00  0.00    -0.391 OA
ATOM      8  H   UNL     1       8.192  -4.733  23.460  0.00  0.00    +0.210 HD
ENDBRANCH   5   7
ENDBRANCH   1   5
BRANCH   1   9
ATOM      9  C   UNL     1      10.328  -1.895  22.928  0.00  0.00    +0.056 C 
BRANCH   9  10
ATOM     10  C   UNL     1      10.252  -0.383  22.947  0.00  0.00    -0.046 A 
ATOM     11  C   UNL     1      10.657   0.327  24.085  0.00  0.00    +0.004 A 
ATOM     12  C   UNL     1      10.620   1.723  24.099  0.00  0.00    +0.000 A 
ATOM     13  C   UNL     1      10.178   2.421  22.977  0.00  0.00    +0.000 A 
ATOM     14  C   UNL     1       9.757   1.724  21.846  0.00  0.00    +0.000 A 
ATOM     15  C   UNL     1       9.785   0.329  21.834  0.00  0.00    +0.004 A 
ENDBRANCH   9  10
ENDBRANCH   1   9
TORSDOF 5
ENDMDL
MODEL 3
REMARK VINA RESULT:      -4.8      1.923      2.644
REMARK  Name = 
REMARK  6 active torsions:
REMARK  status: ('A' for Active; 'I' for Inactive)
REMARK    1  A    between atoms: C_2  and  C_3
REMARK    2  A    between atoms: C_2  and  O_4
REMARK    3  A    between atoms: C_2  and  C_5
REMARK    4  A    between atoms: C_5  and  N_7
REMARK    5  A    between atoms: C_5  and  C_8
REMARK    6  A    between atoms: C_8  and  C_9
REMARK                            x       y       z     vdW  Elec       q    Type
REMARK                         _______ _______ _______ _____ _____    ______ ____
ROOT
ATOM      1  C   UNL     1       8.556  -3.492  24.038  0.00  0.00    +0.084 C 
ENDROOT
BRANCH   1   2
ATOM      2  N   UNL     1       7.579  -2.687  24.802  0.00  0.00    -0.325 NA
ATOM      3  H   UNL     1       7.017  -3.290  25.399  0.00  0.00    +0.119 HD
ATOM      4  H   UNL     1       8.066  -2.033  25.409  0.00  0.00    +0.119 HD
ENDBRANCH   1   2
BRANCH   1   5
ATOM      5  C   UNL     1       8.671  -4.955  24.562  0.00  0.00    +0.128 C 
ATOM      6  C   UNL     1       7.858  -5.194  25.831  0.00  0.00    +0.039 C 
BRANCH   5   7
ATOM      7  O   UNL     1      10.036  -5.305  24.806  0.00  0.00    -0.391 OA
ATOM      8  H   UNL     1      10.297  -4.900  25.648  0.00  0.00    +0.210 HD
ENDBRANCH   5   7
ENDBRANCH   1   5
BRANCH   1   9
ATOM      9  C   UNL     1       9.923  -2.763  24.050  0.00  0.00    +0.056 C 
BRANCH   9  10
ATOM     10  C   UNL     1       9.911  -1.426  23.339  0.00  0.00    -0.046 A 
ATOM     11  C   UNL     1       9.502  -1.345  22.001  0.00  0.00    +0.004 A 
ATOM     12  C   UNL     1       9.459  -0.112  21.348  0.00  0.00    +0.000 A 
ATOM     13  C   UNL     1       9.823   1.050  22.024  0.00  0.00    +0.000 A 
ATOM     14  C   UNL     1      10.247   0.979  23.349  0.00  0.00    +0.000 A 
ATOM     15  C   UNL     1      10.301  -0.253  24.001  0.00  0.00    +0.004 A 
ENDBRANCH   9  10
ENDBRANCH   1   9
TORSDOF 5
ENDMDL
MODEL 4
REMARK VINA RESULT:      -4.7      2.393      3.305
REMARK  Name = 
REMARK  6 active torsions:
REMARK  status: ('A' for Active; 'I' for Inactive)
REMARK    1  A    between atoms: C_2  and  C_3
REMARK    2  A    between atoms: C_2  and  O_4
REMARK    3  A    between atoms: C_2  and  C_5
REMARK    4  A    between atoms: C_5  and  N_7
REMARK    5  A    between atoms: C_5  and  C_8
REMARK    6  A    between atoms: C_8  and  C_9
REMARK                            x       y       z     vdW  Elec       q    Type
REMARK                         _______ _______ _______ _____ _____    ______ ____
ROOT
ATOM      1  C   UNL     1       9.261  -2.605  24.006  0.00  0.00    +0.084 C 
ENDROOT
BRANCH   1   2
ATOM      2  N   UNL     1       9.904  -3.861  24.446  0.00  0.00    -0.325 NA
ATOM      3  H   UNL     1      10.846  -3.675  24.785  0.00  0.00    +0.119 HD
ATOM      4  H   UNL     1       9.383  -4.267  25.219  0.00  0.00    +0.119 HD
ENDBRANCH   1   2
BRANCH   1   5
ATOM      5  C   UNL     1       7.782  -2.811  23.558  0.00  0.00    +0.128 C 
ATOM      6  C   UNL     1       7.191  -4.127  24.057  0.00  0.00    +0.039 C 
BRANCH   5   7
ATOM      7  O   UNL     1       7.667  -2.754  22.134  0.00  0.00    -0.391 OA
ATOM      8  H   UNL     1       8.521  -3.024  21.759  0.00  0.00    +0.210 HD
ENDBRANCH   5   7
ENDBRANCH   1   5
BRANCH   1   9
ATOM      9  C   UNL     1      10.122  -1.969  22.886  0.00  0.00    +0.056 C 
BRANCH   9  10
ATOM     10  C   UNL     1      10.184  -0.457  22.944  0.00  0.00    -0.046 A 
ATOM     11  C   UNL     1       9.800   0.306  21.834  0.00  0.00    +0.004 A 
ATOM     12  C   UNL     1       9.825   1.701  21.891  0.00  0.00    +0.000 A 
ATOM     13  C   UNL     1      10.233   2.345  23.056  0.00  0.00    +0.000 A 
ATOM     14  C   UNL     1      10.633   1.596  24.161  0.00  0.00    +0.000 A 
ATOM     15  C   UNL     1      10.619   0.202  24.103  0.00  0.00    +0.004 A 
ENDBRANCH   9  10
ENDBRANCH   1   9
TORSDOF 5
ENDMDL
MODEL 5
REMARK VINA RESULT:      -4.7      4.187      5.905
REMARK  Name = 
REMARK  6 active torsions:
REMARK  status: ('A' for Active; 'I' for Inactive)
REMARK    1  A    between atoms: C_2  and  C_3
REMARK    2  A    between atoms: C_2  and  O_4
REMARK    3  A    between atoms: C_2  and  C_5
REMARK    4  A    between atoms: C_5  and  N_7
REMARK    5  A    between atoms: C_5  and  C_8
REMARK    6  A    between atoms: C_8  and  C_9
REMARK                            x       y       z     vdW  Elec       q    Type
REMARK                         _______ _______ _______ _____ _____    ______ ____
ROOT
ATOM      1  C   UNL     1       9.153   0.668  22.124  0.00  0.00    +0.084 C 
ENDROOT
BRANCH   1   2
ATOM      2  N   UNL     1       8.682   1.355  20.903  0.00  0.00    -0.325 NA
ATOM      3  H   UNL     1       9.258   2.172  20.715  0.00  0.00    +0.119 HD
ATOM      4  H   UNL     1       8.767   0.737  20.100  0.00  0.00    +0.119 HD
ENDBRANCH   1   2
BRANCH   1   5
ATOM      5  C   UNL     1      10.186   1.513  22.930  0.00  0.00    +0.128 C 
ATOM      6  C   UNL     1       9.721   1.817  24.352  0.00  0.00    +0.039 C 
BRANCH   5   7
ATOM      7  O   UNL     1      10.476   2.741  22.258  0.00  0.00    -0.391 OA
ATOM      8  H   UNL     1      10.311   2.604  21.311  0.00  0.00    +0.210 HD
ENDBRANCH   5   7
ENDBRANCH   1   5
BRANCH   1   9
ATOM      9  C   UNL     1       9.720  -0.719  21.730  0.00  0.00    +0.056 C 
BRANCH   9  10
ATOM     10  C   UNL     1       9.200  -1.858  22.583  0.00  0.00    -0.046 A 
ATOM     11  C   UNL     1       7.973  -2.461  22.278  0.00  0.00    +0.004 A 
ATOM     12  C   UNL     1       7.502  -3.532  23.041  0.00  0.00    +0.000 A 
ATOM     13  C   UNL     1       8.252  -4.010  24.113  0.00  0.00    +0.000 A 
ATOM     14  C   UNL     1       9.467  -3.407  24.434  0.00  0.00    +0.000 A 
ATOM     15  C   UNL     1       9.934  -2.330  23.680  0.00  0.00    +0.004 A 
ENDBRANCH   9  10
ENDBRANCH   1   9
TORSDOF 5
ENDMDL
MODEL 6
REMARK VINA RESULT:      -4.5      5.265      6.982
REMARK  Name = 
REMARK  6 active torsions:
REMARK  status: ('A' for Active; 'I' for Inactive)
REMARK    1  A    between atoms: C_2  and  C_3
REMARK    2  A    between atoms: C_2  and  O_4
REMARK    3  A    between atoms: C_2  and  C_5
REMARK    4  A    between atoms: C_5  and  N_7
REMARK    5  A    between atoms: C_5  and  C_8
REMARK    6  A    between atoms: C_8  and  C_9
REMARK                            x       y       z     vdW  Elec       q    Type
REMARK                         _______ _______ _______ _____ _____    ______ ____
ROOT
ATOM      1  C   UNL     1      10.399   3.413  23.294  0.00  0.00    +0.084 C 
ENDROOT
BRANCH   1   2
ATOM      2  N   UNL     1      11.703   4.075  23.071  0.00  0.00    -0.325 NA
ATOM      3  H   UNL     1      12.460   3.400  23.160  0.00  0.00    +0.119 HD
ATOM      4  H   UNL     1      11.746   4.451  22.128  0.00  0.00    +0.119 HD
ENDBRANCH   1   2
BRANCH   1   5
ATOM      5  C   UNL     1       9.371   4.338  24.013  0.00  0.00    +0.128 C 
ATOM      6  C   UNL     1       8.421   3.568  24.927  0.00  0.00    +0.039 C 
BRANCH   5   7
ATOM      7  O   UNL     1       8.606   5.086  23.064  0.00  0.00    -0.391 OA
ATOM      8  H   UNL     1       9.016   5.962  22.981  0.00  0.00    +0.210 HD
ENDBRANCH   5   7
ENDBRANCH   1   5
BRANCH   1   9
ATOM      9  C   UNL     1      10.635   2.094  24.071  0.00  0.00    +0.056 C 
BRANCH   9  10
ATOM     10  C   UNL     1      10.233   0.851  23.305  0.00  0.00    -0.046 A 
ATOM     11  C   UNL     1       9.758   0.958  21.992  0.00  0.00    +0.004 A 
ATOM     12  C   UNL     1       9.415  -0.185  21.268  0.00  0.00    +0.000 A 
ATOM     13  C   UNL     1       9.544  -1.445  21.849  0.00  0.00    +0.000 A 
ATOM     14  C   UNL     1      10.000  -1.562  23.161  0.00  0.00    +0.000 A 
ATOM     15  C   UNL     1      10.334  -0.419  23.889  0.00  0.00    +0.004 A 
ENDBRANCH   9  10
ENDBRANCH   1   9
TORSDOF 5
ENDMDL
MODEL 7
REMARK VINA RESULT:      -4.5      3.695      5.682
REMARK  Name = 
REMARK  6 active torsions:
REMARK  status: ('A' for Active; 'I' for Inactive)
REMARK    1  A    between atoms: C_2  and  C_3
REMARK    2  A    between atoms: C_2  and  O_4
REMARK    3  A    between atoms: C_2  and  C_5
REMARK    4  A    between atoms: C_5  and  N_7
REMARK    5  A    between atoms: C_5  and  C_8
REMARK    6  A    between atoms: C_8  and  C_9
REMARK                            x       y       z     vdW  Elec       q    Type
REMARK                         _______ _______ _______ _____ _____    ______ ____
ROOT
ATOM      1  C   UNL     1       9.318  -0.676  21.777  0.00  0.00    +0.084 C 
ENDROOT
BRANCH   1   2
ATOM      2  N   UNL     1      10.485  -1.575  21.656  0.00  0.00    -0.325 NA
ATOM      3  H   UNL     1      10.294  -2.464  22.114  0.00  0.00    +0.119 HD
ATOM      4  H   UNL     1      10.671  -1.776  20.677  0.00  0.00    +0.119 HD
ENDBRANCH   1   2
BRANCH   1   5
ATOM      5  C   UNL     1       9.715   0.831  21.760  0.00  0.00    +0.128 C 
ATOM      6  C   UNL     1       9.925   1.402  23.160  0.00  0.00    +0.039 C 
BRANCH   5   7
ATOM      7  O   UNL     1       8.730   1.611  21.077  0.00  0.00    -0.391 OA
ATOM      8  H   UNL     1       8.247   1.018  20.480  0.00  0.00    +0.210 HD
ENDBRANCH   5   7
ENDBRANCH   1   5
BRANCH   1   9
ATOM      9  C   UNL     1       8.527  -1.053  23.054  0.00  0.00    +0.056 C 
BRANCH   9  10
ATOM     10  C   UNL     1       8.197  -2.527  23.159  0.00  0.00    -0.046 A 
ATOM     11  C   UNL     1       8.747  -3.299  24.190  0.00  0.00    +0.004 A 
ATOM     12  C   UNL     1       8.424  -4.652  24.311  0.00  0.00    +0.000 A 
ATOM     13  C   UNL     1       7.549  -5.246  23.404  0.00  0.00    +0.000 A 
ATOM     14  C   UNL     1       7.010  -4.491  22.364  0.00  0.00    +0.000 A 
ATOM     15  C   UNL     1       7.339  -3.141  22.236  0.00  0.00    +0.004 A 
ENDBRANCH   9  10
ENDBRANCH   1   9
TORSDOF 5
ENDMDL
MODEL 8
REMARK VINA RESULT:      -4.2      3.272      5.266
REMARK  Name = 
REMARK  6 active torsions:
REMARK  status: ('A' for Active; 'I' for Inactive)
REMARK    1  A    between atoms: C_2  and  C_3
REMARK    2  A    between atoms: C_2  and  O_4
REMARK    3  A    between atoms: C_2  and  C_5
REMARK    4  A    between atoms: C_5  and  N_7
REMARK    5  A    between atoms: C_5  and  C_8
REMARK    6  A    between atoms: C_8  and  C_9
REMARK                            x       y       z     vdW  Elec       q    Type
REMARK                         _______ _______ _______ _____ _____    ______ ____
ROOT
ATOM      1  C   UNL     1       9.563  -1.102  23.980  0.00  0.00    +0.084 C 
ENDROOT
BRANCH   1   2
ATOM      2  N   UNL     1       9.804  -0.161  25.095  0.00  0.00    -0.325 NA
ATOM      3  H   UNL     1       9.173   0.634  25.027  0.00  0.00    +0.119 HD
ATOM      4  H   UNL     1       9.616  -0.618  25.983  0.00  0.00    +0.119 HD
ENDBRANCH   1   2
BRANCH   1   5
ATOM      5  C   UNL     1      10.146  -0.593  22.626  0.00  0.00    +0.128 C 
ATOM      6  C   UNL     1       9.189   0.336  21.883  0.00  0.00    +0.039 C 
BRANCH   5   7
ATOM      7  O   UNL     1      10.493  -1.688  21.775  0.00  0.00    -0.391 OA
ATOM      8  H   UNL     1      10.548  -2.484  22.328  0.00  0.00    +0.210 HD
ENDBRANCH   5   7
ENDBRANCH   1   5
BRANCH   1   9
ATOM      9  C   UNL     1       8.043  -1.386  23.886  0.00  0.00    +0.056 C 
BRANCH   9  10
ATOM     10  C   UNL     1       7.709  -2.794  23.441  0.00  0.00    -0.046 A 
ATOM     11  C   UNL     1       6.877  -3.003  22.333  0.00  0.00    +0.004 A 
ATOM     12  C   UNL     1       6.589  -4.298  21.898  0.00  0.00    +0.000 A 
ATOM     13  C   UNL     1       7.129  -5.396  22.566  0.00  0.00    +0.000 A 
ATOM     14  C   UNL     1       7.944  -5.200  23.679  0.00  0.00    +0.000 A 
ATOM     15  C   UNL     1       8.225  -3.906  24.121  0.00  0.00    +0.004 A 
ENDBRANCH   9  10
ENDBRANCH   1   9
TORSDOF 5
ENDMDL
MODEL 9
REMARK VINA RESULT:      -4.2      4.440      6.339
REMARK  Name = 
REMARK  6 active torsions:
REMARK  status: ('A' for Active; 'I' for Inactive)
REMARK    1  A    between atoms: C_2  and  C_3
REMARK    2  A    between atoms: C_2  and  O_4
REMARK    3  A    between atoms: C_2  and  C_5
REMARK    4  A    between atoms: C_5  and  N_7
REMARK    5  A    between atoms: C_5  and  C_8
REMARK    6  A    between atoms: C_8  and  C_9
REMARK                            x       y       z     vdW  Elec       q    Type
REMARK                         _______ _______ _______ _____ _____    ______ ____
ROOT
ATOM      1  C   UNL     1       9.613   1.078  24.053  0.00  0.00    +0.084 C 
ENDROOT
BRANCH   1   2
ATOM      2  N   UNL     1       9.986   0.482  25.354  0.00  0.00    -0.325 NA
ATOM      3  H   UNL     1      10.157  -0.516  25.248  0.00  0.00    +0.119 HD
ATOM      4  H   UNL     1      10.848   0.900  25.695  0.00  0.00    +0.119 HD
ENDBRANCH   1   2
BRANCH   1   5
ATOM      5  C   UNL     1       9.145   0.012  23.016  0.00  0.00    +0.128 C 
ATOM      6  C   UNL     1       9.395   0.443  21.573  0.00  0.00    +0.039 C 
BRANCH   5   7
ATOM      7  O   UNL     1       7.757  -0.288  23.183  0.00  0.00    -0.391 OA
ATOM      8  H   UNL     1       7.252   0.357  22.662  0.00  0.00    +0.210 HD
ENDBRANCH   5   7
ENDBRANCH   1   5
BRANCH   1   9
ATOM      9  C   UNL     1      10.806   1.914  23.527  0.00  0.00    +0.056 C 
BRANCH   9  10
ATOM     10  C   UNL     1      10.600   3.411  23.636  0.00  0.00    -0.046 A 
ATOM     11  C   UNL     1      11.675   4.285  23.424  0.00  0.00    +0.004 A 
ATOM     12  C   UNL     1      11.486   5.667  23.492  0.00  0.00    +0.000 A 
ATOM     13  C   UNL     1      10.225   6.187  23.772  0.00  0.00    +0.000 A 
ATOM     14  C   UNL     1       9.153   5.326  24.001  0.00  0.00    +0.000 A 
ATOM     15  C   UNL     1       9.341   3.945  23.943  0.00  0.00    +0.004 A 
ENDBRANCH   9  10
ENDBRANCH   1   9
TORSDOF 5
ENDMDL
