MODEL 1
REMARK VINA RESULT:      -7.3      0.000      0.000
REMARK  Name = 
REMARK  3 active torsions:
REMARK  status: ('A' for Active; 'I' for Inactive)
REMARK    1  A    between atoms: C_2  and  C_14
REMARK    2  A    between atoms: N_4  and  C_5
REMARK    3  A    between atoms: N_16  and  C_17
REMARK                            x       y       z     vdW  Elec       q    Type
REMARK                         _______ _______ _______ _____ _____    ______ ____
ROOT
ATOM      1  C   UNL     1       6.182   0.933  23.945  0.00  0.00    +0.101 C 
ATOM      2  C   UNL     1       6.410   1.870  25.126  0.00  0.00    +0.110 C 
ATOM      3  C   UNL     1       7.615   2.688  24.728  0.00  0.00    +0.217 C 
ATOM      4  O   UNL     1       8.037   3.639  25.361  0.00  0.00    -0.276 OA
ATOM      5  N   UNL     1       8.179   2.078  23.612  0.00  0.00    -0.298 N 
ATOM      6  C   UNL     1       7.129   1.426  22.863  0.00  0.00    +0.121 C 
ENDROOT
BRANCH   5   7
ATOM      7  C   UNL     1       9.520   2.379  23.066  0.00  0.00    +0.076 C 
ATOM      8  C   UNL     1       9.800   1.602  21.764  0.00  0.00    +0.022 C 
ATOM      9  C   UNL     1       9.698   0.091  21.985  0.00  0.00    +0.002 C 
ATOM     10  C   UNL     1      10.536  -0.417  23.160  0.00  0.00    +0.000 C 
ATOM     11  C   UNL     1      10.517   0.475  24.399  0.00  0.00    +0.002 C 
ATOM     12  C   UNL     1      10.634   1.959  24.046  0.00  0.00    +0.022 C 
ENDBRANCH   5   7
BRANCH   1  13
ATOM     13  C   UNL     1       6.352  -0.571  24.154  0.00  0.00    +0.222 C 
ATOM     14  N   UNL     1       7.265  -1.255  23.363  0.00  0.00    -0.285 N 
ATOM     15  H   UNL     1       7.973  -0.715  22.880  0.00  0.00    +0.155 HD
ATOM     16  O   UNL     1       5.608  -1.129  24.961  0.00  0.00    -0.275 OA
BRANCH  14  17
ATOM     17  C   UNL     1       7.360  -2.673  23.229  0.00  0.00    +0.036 A 
ATOM     18  C   UNL     1       8.131  -3.383  24.158  0.00  0.00    +0.043 A 
ATOM     19  C   UNL     1       8.250  -4.776  24.066  0.00  0.00    +0.044 A 
ATOM     20 CL   UNL     1       9.175  -5.633  25.239  0.00  0.00    -0.083 Cl
ATOM     21  C   UNL     1       7.633  -5.481  23.039  0.00  0.00    +0.040 A 
ATOM     22  C   UNL     1       6.902  -4.775  22.091  0.00  0.00    +0.044 A 
ATOM     23 CL   UNL     1       6.169  -5.623  20.783  0.00  0.00    -0.083 Cl
ATOM     24  C   UNL     1       6.764  -3.385  22.181  0.00  0.00    +0.043 A 
ENDBRANCH  14  17
ENDBRANCH   1  13
TORSDOF 3
ENDMDL
MODEL 2
REMARK VINA RESULT:      -7.2      4.103      6.935
REMARK  Name = 
REMARK  3 active torsions:
REMARK  status: ('A' for Active; 'I' for Inactive)
REMARK    1  A    between atoms: C_2  and  C_14
REMARK    2  A    between atoms: N_4  and  C_5
REMARK    3  A    between atoms: N_16  and  C_17
REMARK                            x       y       z     vdW  Elec       q    Type
REMARK                         _______ _______ _______ _____ _____    ______ ____
ROOT
ATOM      1  C   UNL     1       9.395  -0.682  21.736  0.00  0.00    +0.101 C 
ATOM      2  C   UNL     1      10.475  -1.516  22.417  0.00  0.00    +0.110 C 
ATOM      3  C   UNL     1       9.728  -2.328  23.447  0.00  0.00    +0.217 C 
ATOM      4  O   UNL     1      10.230  -3.214  24.116  0.00  0.00    -0.276 OA
ATOM      5  N   UNL     1       8.448  -1.793  23.546  0.00  0.00    -0.298 N 
ATOM      6  C   UNL     1       8.082  -1.232  22.266  0.00  0.00    +0.121 C 
ENDROOT
BRANCH   5   7
ATOM      7  C   UNL     1       7.481  -2.099  24.623  0.00  0.00    +0.076 C 
ATOM      8  C   UNL     1       6.248  -1.175  24.569  0.00  0.00    +0.022 C 
ATOM      9  C   UNL     1       6.650   0.297  24.687  0.00  0.00    +0.002 C 
ATOM     10  C   UNL     1       7.551   0.595  25.887  0.00  0.00    +0.000 C 
ATOM     11  C   UNL     1       8.631  -0.450  26.157  0.00  0.00    +0.002 C 
ATOM     12  C   UNL     1       8.103  -1.879  26.017  0.00  0.00    +0.022 C 
ENDBRANCH   5   7
BRANCH   1  13
ATOM     13  C   UNL     1       9.432   0.838  21.887  0.00  0.00    +0.222 C 
ATOM     14  N   UNL     1      10.158   1.387  22.935  0.00  0.00    -0.285 N 
ATOM     15  H   UNL     1      10.849   0.804  23.391  0.00  0.00    +0.155 HD
ATOM     16  O   UNL     1       8.745   1.510  21.118  0.00  0.00    -0.275 OA
BRANCH  14  17
ATOM     17  C   UNL     1      10.085   2.739  23.386  0.00  0.00    +0.036 A 
ATOM     18  C   UNL     1      11.227   3.543  23.277  0.00  0.00    +0.043 A 
ATOM     19  C   UNL     1      11.200   4.877  23.707  0.00  0.00    +0.044 A 
ATOM     20 CL   UNL     1      12.605   5.858  23.531  0.00  0.00    -0.083 Cl
ATOM     21  C   UNL     1      10.055   5.424  24.273  0.00  0.00    +0.040 A 
ATOM     22  C   UNL     1       8.933   4.617  24.421  0.00  0.00    +0.044 A 
ATOM     23 CL   UNL     1       7.519   5.260  25.165  0.00  0.00    -0.083 Cl
ATOM     24  C   UNL     1       8.944   3.287  23.984  0.00  0.00    +0.043 A 
ENDBRANCH  14  17
ENDBRANCH   1  13
TORSDOF 3
ENDMDL
MODEL 3
REMARK VINA RESULT:      -7.2      4.046      6.954
REMARK  Name = 
REMARK  3 active torsions:
REMARK  status: ('A' for Active; 'I' for Inactive)
REMARK    1  A    between atoms: C_2  and  C_14
REMARK    2  A    between atoms: N_4  and  C_5
REMARK    3  A    between atoms: N_16  and  C_17
REMARK                            x       y       z     vdW  Elec       q    Type
REMARK                         _______ _______ _______ _____ _____    ______ ____
ROOT
ATOM      1  C   UNL     1       9.400  -0.852  21.855  0.00  0.00    +0.101 C 
ATOM      2  C   UNL     1      10.437  -1.704  22.578  0.00  0.00    +0.110 C 
ATOM      3  C   UNL     1       9.639  -2.484  23.595  0.00  0.00    +0.217 C 
ATOM      4  O   UNL     1      10.097  -3.373  24.289  0.00  0.00    -0.276 OA
ATOM      5  N   UNL     1       8.371  -1.915  23.649  0.00  0.00    -0.298 N 
ATOM      6  C   UNL     1       8.058  -1.362  22.351  0.00  0.00    +0.121 C 
ENDROOT
BRANCH   5   7
ATOM      7  C   UNL     1       7.365  -2.183  24.700  0.00  0.00    +0.076 C 
ATOM      8  C   UNL     1       6.139  -1.256  24.573  0.00  0.00    +0.022 C 
ATOM      9  C   UNL     1       6.544   0.218  24.657  0.00  0.00    +0.002 C 
ATOM     10  C   UNL     1       7.403   0.551  25.879  0.00  0.00    +0.000 C 
ATOM     11  C   UNL     1       8.468  -0.489  26.221  0.00  0.00    +0.002 C 
ATOM     12  C   UNL     1       7.937  -1.921  26.107  0.00  0.00    +0.022 C 
ENDBRANCH   5   7
BRANCH   1  13
ATOM     13  C   UNL     1       9.472   0.668  21.988  0.00  0.00    +0.222 C 
ATOM     14  N   UNL     1      10.222   1.213  23.022  0.00  0.00    -0.285 N 
ATOM     15  H   UNL     1      10.905   0.619  23.476  0.00  0.00    +0.155 HD
ATOM     16  O   UNL     1       8.790   1.347  21.220  0.00  0.00    -0.275 OA
BRANCH  14  17
ATOM     17  C   UNL     1      10.183   2.571  23.459  0.00  0.00    +0.036 A 
ATOM     18  C   UNL     1       9.008   3.049  24.053  0.00  0.00    +0.043 A 
ATOM     19  C   UNL     1       8.926   4.375  24.498  0.00  0.00    +0.044 A 
ATOM     20 CL   UNL     1       7.484   4.933  25.257  0.00  0.00    -0.083 Cl
ATOM     21  C   UNL     1       9.993   5.252  24.338  0.00  0.00    +0.040 A 
ATOM     22  C   UNL     1      11.145   4.792  23.712  0.00  0.00    +0.044 A 
ATOM     23 CL   UNL     1      12.461   5.874  23.459  0.00  0.00    -0.083 Cl
ATOM     24  C   UNL     1      11.244   3.466  23.275  0.00  0.00    +0.043 A 
ENDBRANCH  14  17
ENDBRANCH   1  13
TORSDOF 3
ENDMDL
MODEL 4
REMARK VINA RESULT:      -7.1      3.529      6.916
REMARK  Name = 
REMARK  3 active torsions:
REMARK  status: ('A' for Active; 'I' for Inactive)
REMARK    1  A    between atoms: C_2  and  C_14
REMARK    2  A    between atoms: N_4  and  C_5
REMARK    3  A    between atoms: N_16  and  C_17
REMARK                            x       y       z     vdW  Elec       q    Type
REMARK                         _______ _______ _______ _____ _____    ______ ____
ROOT
ATOM      1  C   UNL     1       9.441  -4.335  24.879  0.00  0.00    +0.101 C 
ATOM      2  C   UNL     1       9.265  -4.513  26.383  0.00  0.00    +0.110 C 
ATOM      3  C   UNL     1       7.947  -5.234  26.524  0.00  0.00    +0.217 C 
ATOM      4  O   UNL     1       7.513  -5.669  27.575  0.00  0.00    -0.276 OA
ATOM      5  N   UNL     1       7.317  -5.189  25.284  0.00  0.00    -0.298 N 
ATOM      6  C   UNL     1       8.328  -5.159  24.253  0.00  0.00    +0.121 C 
ENDROOT
BRANCH   5   7
ATOM      7  C   UNL     1       5.897  -5.524  25.042  0.00  0.00    +0.076 C 
ATOM      8  C   UNL     1       5.578  -5.628  23.537  0.00  0.00    +0.022 C 
ATOM      9  C   UNL     1       5.895  -4.319  22.809  0.00  0.00    +0.002 C 
ATOM     10  C   UNL     1       5.261  -3.086  23.456  0.00  0.00    +0.000 C 
ATOM     11  C   UNL     1       5.301  -3.067  24.982  0.00  0.00    +0.002 C 
ATOM     12  C   UNL     1       4.958  -4.429  25.589  0.00  0.00    +0.022 C 
ENDBRANCH   5   7
BRANCH   1  13
ATOM     13  C   UNL     1       9.445  -2.921  24.299  0.00  0.00    +0.222 C 
ATOM     14  N   UNL     1       9.242  -1.848  25.155  0.00  0.00    -0.285 N 
ATOM     15  H   UNL     1       9.371  -2.002  26.147  0.00  0.00    +0.155 HD
ATOM     16  O   UNL     1       9.546  -2.801  23.077  0.00  0.00    -0.275 OA
BRANCH  14  17
ATOM     17  C   UNL     1       8.946  -0.508  24.762  0.00  0.00    +0.036 A 
ATOM     18  C   UNL     1       7.603  -0.124  24.655  0.00  0.00    +0.043 A 
ATOM     19  C   UNL     1       7.266   1.182  24.274  0.00  0.00    +0.044 A 
ATOM     20 CL   UNL     1       5.609   1.643  24.182  0.00  0.00    -0.083 Cl
ATOM     21  C   UNL     1       8.250   2.115  23.969  0.00  0.00    +0.040 A 
ATOM     22  C   UNL     1       9.582   1.725  24.034  0.00  0.00    +0.044 A 
ATOM     23 CL   UNL     1      10.816   2.851  23.613  0.00  0.00    -0.083 Cl
ATOM     24  C   UNL     1       9.932   0.428  24.426  0.00  0.00    +0.043 A 
ENDBRANCH  14  17
ENDBRANCH   1  13
TORSDOF 3
ENDMDL
MODEL 5
REMARK VINA RESULT:      -7.1      1.751      3.632
REMARK  Name = 
REMARK  3 active torsions:
REMARK  status: ('A' for Active; 'I' for Inactive)
REMARK    1  A    between atoms: C_2  and  C_14
REMARK    2  A    between atoms: N_4  and  C_5
REMARK    3  A    between atoms: N_16  and  C_17
REMARK                            x       y       z     vdW  Elec       q    Type
REMARK                         _______ _______ _______ _____ _____    ______ ____
ROOT
ATOM      1  C   UNL     1       9.779   0.529  22.037  0.00  0.00    +0.101 C 
ATOM      2  C   UNL     1       8.783   1.297  21.176  0.00  0.00    +0.110 C 
ATOM      3  C   UNL     1       8.038   2.171  22.155  0.00  0.00    +0.217 C 
ATOM      4  O   UNL     1       7.236   3.030  21.834  0.00  0.00    -0.276 OA
ATOM      5  N   UNL     1       8.356   1.725  23.434  0.00  0.00    -0.298 N 
ATOM      6  C   UNL     1       9.691   1.173  23.410  0.00  0.00    +0.121 C 
ENDROOT
BRANCH   5   7
ATOM      7  C   UNL     1       7.641   2.110  24.670  0.00  0.00    +0.076 C 
ATOM      8  C   UNL     1       8.188   1.368  25.906  0.00  0.00    +0.022 C 
ATOM      9  C   UNL     1       8.079  -0.149  25.739  0.00  0.00    +0.002 C 
ATOM     10  C   UNL     1       6.680  -0.626  25.344  0.00  0.00    +0.000 C 
ATOM     11  C   UNL     1       5.969   0.245  24.311  0.00  0.00    +0.002 C 
ATOM     12  C   UNL     1       6.145   1.739  24.594  0.00  0.00    +0.022 C 
ENDBRANCH   5   7
BRANCH   1  13
ATOM     13  C   UNL     1       9.638  -0.988  22.153  0.00  0.00    +0.222 C 
ATOM     14  N   UNL     1       8.370  -1.530  22.312  0.00  0.00    -0.285 N 
ATOM     15  H   UNL     1       7.574  -0.952  22.074  0.00  0.00    +0.155 HD
ATOM     16  O   UNL     1      10.669  -1.662  22.185  0.00  0.00    -0.275 OA
BRANCH  14  17
ATOM     17  C   UNL     1       8.076  -2.870  22.704  0.00  0.00    +0.036 A 
ATOM     18  C   UNL     1       7.264  -3.648  21.868  0.00  0.00    +0.043 A 
ATOM     19  C   UNL     1       6.950  -4.970  22.213  0.00  0.00    +0.044 A 
ATOM     20 CL   UNL     1       5.980  -5.921  21.153  0.00  0.00    -0.083 Cl
ATOM     21  C   UNL     1       7.411  -5.529  23.399  0.00  0.00    +0.040 A 
ATOM     22  C   UNL     1       8.181  -4.747  24.250  0.00  0.00    +0.044 A 
ATOM     23 CL   UNL     1       8.722  -5.405  25.748  0.00  0.00    -0.083 Cl
ATOM     24  C   UNL     1       8.513  -3.430  23.911  0.00  0.00    +0.043 A 
ENDBRANCH  14  17
ENDBRANCH   1  13
TORSDOF 3
ENDMDL
MODEL 6
REMARK VINA RESULT:      -6.9      3.416      6.655
REMARK  Name = 
REMARK  3 active torsions:
REMARK  status: ('A' for Active; 'I' for Inactive)
REMARK    1  A    between atoms: C_2  and  C_14
REMARK    2  A    between atoms: N_4  and  C_5
REMARK    3  A    between atoms: N_16  and  C_17
REMARK                            x       y       z     vdW  Elec       q    Type
REMARK                         _______ _______ _______ _____ _____    ______ ____
ROOT
ATOM      1  C   UNL     1       9.412  -3.715  24.905  0.00  0.00    +0.101 C 
ATOM      2  C   UNL     1       8.825  -3.703  26.312  0.00  0.00    +0.110 C 
ATOM      3  C   UNL     1       7.589  -4.563  26.210  0.00  0.00    +0.217 C 
ATOM      4  O   UNL     1       6.909  -4.900  27.162  0.00  0.00    -0.276 OA
ATOM      5  N   UNL     1       7.342  -4.774  24.857  0.00  0.00    -0.298 N 
ATOM      6  C   UNL     1       8.602  -4.756  24.150  0.00  0.00    +0.121 C 
ENDROOT
BRANCH   5   7
ATOM      7  C   UNL     1       6.087  -5.321  24.299  0.00  0.00    +0.076 C 
ATOM      8  C   UNL     1       6.216  -5.639  22.795  0.00  0.00    +0.022 C 
ATOM      9  C   UNL     1       6.597  -4.393  21.993  0.00  0.00    +0.002 C 
ATOM     10  C   UNL     1       5.691  -3.189  22.259  0.00  0.00    +0.000 C 
ATOM     11  C   UNL     1       5.298  -2.988  23.721  0.00  0.00    +0.002 C 
ATOM     12  C   UNL     1       4.931  -4.305  24.409  0.00  0.00    +0.022 C 
ENDBRANCH   5   7
BRANCH   1  13
ATOM     13  C   UNL     1       9.464  -2.408  24.115  0.00  0.00    +0.222 C 
ATOM     14  N   UNL     1       9.339  -1.208  24.802  0.00  0.00    -0.285 N 
ATOM     15  H   UNL     1       9.493  -1.216  25.803  0.00  0.00    +0.155 HD
ATOM     16  O   UNL     1       9.530  -2.479  22.888  0.00  0.00    -0.275 OA
BRANCH  14  17
ATOM     17  C   UNL     1       9.093   0.070  24.217  0.00  0.00    +0.036 A 
ATOM     18  C   UNL     1      10.152   0.983  24.138  0.00  0.00    +0.043 A 
ATOM     19  C   UNL     1       9.957   2.250  23.570  0.00  0.00    +0.044 A 
ATOM     20 CL   UNL     1      11.281   3.345  23.451  0.00  0.00    -0.083 Cl
ATOM     21  C   UNL     1       8.708   2.638  23.099  0.00  0.00    +0.040 A 
ATOM     22  C   UNL     1       7.646   1.750  23.214  0.00  0.00    +0.044 A 
ATOM     23 CL   UNL     1       6.080   2.228  22.680  0.00  0.00    -0.083 Cl
ATOM     24  C   UNL     1       7.832   0.477  23.767  0.00  0.00    +0.043 A 
ENDBRANCH  14  17
ENDBRANCH   1  13
TORSDOF 3
ENDMDL
MODEL 7
REMARK VINA RESULT:      -6.8      3.260      6.619
REMARK  Name = 
REMARK  3 active torsions:
REMARK  status: ('A' for Active; 'I' for Inactive)
REMARK    1  A    between atoms: C_2  and  C_14
REMARK    2  A    between atoms: N_4  and  C_5
REMARK    3  A    between atoms: N_16  and  C_17
REMARK                            x       y       z     vdW  Elec       q    Type
REMARK                         _______ _______ _______ _____ _____    ______ ____
ROOT
ATOM      1  C   UNL     1       8.545  -3.584  25.739  0.00  0.00    +0.101 C 
ATOM      2  C   UNL     1       7.717  -4.342  26.770  0.00  0.00    +0.110 C 
ATOM      3  C   UNL     1       6.992  -5.395  25.968  0.00  0.00    +0.217 C 
ATOM      4  O   UNL     1       6.320  -6.286  26.456  0.00  0.00    -0.276 OA
ATOM      5  N   UNL     1       7.149  -5.072  24.624  0.00  0.00    -0.298 N 
ATOM      6  C   UNL     1       8.411  -4.390  24.458  0.00  0.00    +0.121 C 
ENDROOT
BRANCH   5   7
ATOM      7  C   UNL     1       6.377  -5.668  23.512  0.00  0.00    +0.076 C 
ATOM      8  C   UNL     1       6.933  -5.250  22.136  0.00  0.00    +0.022 C 
ATOM      9  C   UNL     1       6.920  -3.728  21.970  0.00  0.00    +0.002 C 
ATOM     10  C   UNL     1       5.563  -3.088  22.271  0.00  0.00    +0.000 C 
ATOM     11  C   UNL     1       4.831  -3.666  23.479  0.00  0.00    +0.002 C 
ATOM     12  C   UNL     1       4.909  -5.194  23.527  0.00  0.00    +0.022 C 
ENDBRANCH   5   7
BRANCH   1  13
ATOM     13  C   UNL     1       8.228  -2.112  25.475  0.00  0.00    +0.222 C 
ATOM     14  N   UNL     1       8.288  -1.640  24.171  0.00  0.00    -0.285 N 
ATOM     15  H   UNL     1       8.267  -2.319  23.419  0.00  0.00    +0.155 HD
ATOM     16  O   UNL     1       8.013  -1.386  26.446  0.00  0.00    -0.275 OA
BRANCH  14  17
ATOM     17  C   UNL     1       8.293  -0.269  23.776  0.00  0.00    +0.036 A 
ATOM     18  C   UNL     1       9.494   0.448  23.865  0.00  0.00    +0.043 A 
ATOM     19  C   UNL     1       9.545   1.796  23.486  0.00  0.00    +0.044 A 
ATOM     20 CL   UNL     1      11.039   2.649  23.570  0.00  0.00    -0.083 Cl
ATOM     21  C   UNL     1       8.407   2.459  23.042  0.00  0.00    +0.040 A 
ATOM     22  C   UNL     1       7.206   1.762  22.992  0.00  0.00    +0.044 A 
ATOM     23 CL   UNL     1       5.774   2.577  22.491  0.00  0.00    -0.083 Cl
ATOM     24  C   UNL     1       7.144   0.412  23.355  0.00  0.00    +0.043 A 
ENDBRANCH  14  17
ENDBRANCH   1  13
TORSDOF 3
ENDMDL
MODEL 8
REMARK VINA RESULT:      -6.6      1.851      3.611
REMARK  Name = 
REMARK  3 active torsions:
REMARK  status: ('A' for Active; 'I' for Inactive)
REMARK    1  A    between atoms: C_2  and  C_14
REMARK    2  A    between atoms: N_4  and  C_5
REMARK    3  A    between atoms: N_16  and  C_17
REMARK                            x       y       z     vdW  Elec       q    Type
REMARK                         _______ _______ _______ _____ _____    ______ ____
ROOT
ATOM      1  C   UNL     1       9.776  -0.850  23.748  0.00  0.00    +0.101 C 
ATOM      2  C   UNL     1      10.209  -0.179  22.449  0.00  0.00    +0.110 C 
ATOM      3  C   UNL     1      10.064   1.298  22.724  0.00  0.00    +0.217 C 
ATOM      4  O   UNL     1      10.433   2.176  21.964  0.00  0.00    -0.276 OA
ATOM      5  N   UNL     1       9.348   1.430  23.910  0.00  0.00    -0.298 N 
ATOM      6  C   UNL     1       9.627   0.286  24.746  0.00  0.00    +0.121 C 
ENDROOT
BRANCH   5   7
ATOM      7  C   UNL     1       8.743   2.687  24.400  0.00  0.00    +0.076 C 
ATOM      8  C   UNL     1       7.819   2.447  25.611  0.00  0.00    +0.022 C 
ATOM      9  C   UNL     1       6.690   1.472  25.266  0.00  0.00    +0.002 C 
ATOM     10  C   UNL     1       5.912   1.853  24.005  0.00  0.00    +0.000 C 
ATOM     11  C   UNL     1       6.768   2.371  22.851  0.00  0.00    +0.002 C 
ATOM     12  C   UNL     1       7.853   3.342  23.324  0.00  0.00    +0.022 C 
ENDBRANCH   5   7
BRANCH   1  13
ATOM     13  C   UNL     1       8.521  -1.722  23.745  0.00  0.00    +0.222 C 
ATOM     14  N   UNL     1       8.635  -3.056  24.113  0.00  0.00    -0.285 N 
ATOM     15  H   UNL     1       9.463  -3.338  24.625  0.00  0.00    +0.155 HD
ATOM     16  O   UNL     1       7.473  -1.223  23.335  0.00  0.00    -0.275 OA
BRANCH  14  17
ATOM     17  C   UNL     1       7.649  -4.067  23.912  0.00  0.00    +0.036 A 
ATOM     18  C   UNL     1       7.353  -4.460  22.600  0.00  0.00    +0.043 A 
ATOM     19  C   UNL     1       6.392  -5.451  22.355  0.00  0.00    +0.044 A 
ATOM     20 CL   UNL     1       6.068  -5.945  20.737  0.00  0.00    -0.083 Cl
ATOM     21  C   UNL     1       5.694  -6.045  23.400  0.00  0.00    +0.040 A 
ATOM     22  C   UNL     1       5.956  -5.628  24.699  0.00  0.00    +0.044 A 
ATOM     23 CL   UNL     1       5.068  -6.316  26.005  0.00  0.00    -0.083 Cl
ATOM     24  C   UNL     1       6.922  -4.649  24.957  0.00  0.00    +0.043 A 
ENDBRANCH  14  17
ENDBRANCH   1  13
TORSDOF 3
ENDMDL
MODEL 9
REMARK VINA RESULT:      -6.6      2.128      2.889
REMARK  Name = 
REMARK  3 active torsions:
REMARK  status: ('A' for Active; 'I' for Inactive)
REMARK    1  A    between atoms: C_2  and  C_14
REMARK    2  A    between atoms: N_4  and  C_5
REMARK    3  A    between atoms: N_16  and  C_17
REMARK                            x       y       z     vdW  Elec       q    Type
REMARK                         _______ _______ _______ _____ _____    ______ ____
ROOT
ATOM      1  C   UNL     1       7.976  -0.089  25.670  0.00  0.00    +0.101 C 
ATOM      2  C   UNL     1       9.438  -0.517  25.672  0.00  0.00    +0.110 C 
ATOM      3  C   UNL     1      10.161   0.613  24.981  0.00  0.00    +0.217 C 
ATOM      4  O   UNL     1      11.373   0.701  24.896  0.00  0.00    -0.276 OA
ATOM      5  N   UNL     1       9.195   1.422  24.391  0.00  0.00    -0.298 N 
ATOM      6  C   UNL     1       7.988   1.350  25.181  0.00  0.00    +0.121 C 
ENDROOT
BRANCH   5   7
ATOM      7  C   UNL     1       9.467   2.474  23.388  0.00  0.00    +0.076 C 
ATOM      8  C   UNL     1       8.167   3.079  22.821  0.00  0.00    +0.022 C 
ATOM      9  C   UNL     1       7.292   2.007  22.169  0.00  0.00    +0.002 C 
ATOM     10  C   UNL     1       8.033   1.149  21.141  0.00  0.00    +0.000 C 
ATOM     11  C   UNL     1       9.452   0.750  21.538  0.00  0.00    +0.002 C 
ATOM     12  C   UNL     1      10.226   1.909  22.170  0.00  0.00    +0.022 C 
ENDBRANCH   5   7
BRANCH   1  13
ATOM     13  C   UNL     1       6.966  -0.912  24.871  0.00  0.00    +0.222 C 
ATOM     14  N   UNL     1       6.810  -2.256  25.178  0.00  0.00    -0.285 N 
ATOM     15  H   UNL     1       7.150  -2.581  26.076  0.00  0.00    +0.155 HD
ATOM     16  O   UNL     1       6.394  -0.364  23.929  0.00  0.00    -0.275 OA
BRANCH  14  17
ATOM     17  C   UNL     1       6.132  -3.224  24.378  0.00  0.00    +0.036 A 
ATOM     18  C   UNL     1       6.864  -3.920  23.407  0.00  0.00    +0.043 A 
ATOM     19  C   UNL     1       6.240  -4.881  22.600  0.00  0.00    +0.044 A 
ATOM     20 CL   UNL     1       7.166  -5.750  21.436  0.00  0.00    -0.083 Cl
ATOM     21  C   UNL     1       4.881  -5.146  22.724  0.00  0.00    +0.040 A 
ATOM     22  C   UNL     1       4.144  -4.429  23.657  0.00  0.00    +0.044 A 
ATOM     23 CL   UNL     1       2.449  -4.707  23.794  0.00  0.00    -0.083 Cl
ATOM     24  C   UNL     1       4.758  -3.476  24.478  0.00  0.00    +0.043 A 
ENDBRANCH  14  17
ENDBRANCH   1  13
TORSDOF 3
ENDMDL
