MODEL 1
REMARK VINA RESULT:      -5.5      0.000      0.000
REMARK  Name = 
REMARK  8 active torsions:
REMARK  status: ('A' for Active; 'I' for Inactive)
REMARK    1  A    between atoms: O_1  and  C_2
REMARK    2  A    between atoms: C_5  and  C_17
REMARK    3  A    between atoms: C_7  and  O_9
REMARK    4  A    between atoms: O_9  and  P_10
REMARK    5  A    between atoms: P_10  and  O_11
REMARK    6  A    between atoms: P_10  and  O_12
REMARK    7  A    between atoms: C_14  and  O_16
REMARK    8  A    between atoms: C_17  and  O_18
REMARK                            x       y       z     vdW  Elec       q    Type
REMARK                         _______ _______ _______ _____ _____    ______ ____
ROOT
ATOM      1  C   UNL     1       5.801  -5.410  22.826  0.00  0.00    +0.150 C 
ATOM      2  C   UNL     1       5.076  -5.904  24.096  0.00  0.00    +0.176 C 
ATOM      3  C   UNL     1       5.770  -5.631  25.461  0.00  0.00    +0.185 C 
ATOM      4  C   UNL     1       7.212  -5.238  25.391  0.00  0.00    +0.018 C 
ATOM      5  C   UNL     1       7.907  -4.992  24.271  0.00  0.00    +0.038 C 
ATOM      6  C   UNL     1       7.310  -5.121  22.906  0.00  0.00    +0.076 C 
ENDROOT
BRANCH   1   7
ATOM      7  O   UNL     1       5.129  -4.251  22.317  0.00  0.00    -0.389 OA
ATOM      8  H   UNL     1       5.184  -4.286  21.344  0.00  0.00    +0.210 HD
ENDBRANCH   1   7
BRANCH   2   9
ATOM      9  O   UNL     1       4.796  -7.303  23.911  0.00  0.00    -0.386 OA
ATOM     10  H   UNL     1       3.972  -7.347  23.393  0.00  0.00    +0.210 HD
ENDBRANCH   2   9
BRANCH   5  11
ATOM     11  C   UNL     1       9.289  -4.464  24.462  0.00  0.00    +0.333 C 
ATOM     12  O   UNL     1       9.628  -3.342  24.111  0.00  0.00    -0.245 OA
BRANCH  11  13
ATOM     13  O   UNL     1      10.138  -5.311  25.066  0.00  0.00    -0.477 OA
ATOM     14  H   UNL     1      10.500  -5.027  25.921  0.00  0.00    +0.295 HD
ENDBRANCH  11  13
ENDBRANCH   5  11
BRANCH   3  15
ATOM     15  O   UNL     1       5.603  -6.747  26.354  0.00  0.00    -0.277 OA
BRANCH  15  16
ATOM     16  P   UNL     1       4.459  -6.399  27.604  0.00  0.00    +0.473 P 
ATOM     17  O   UNL     1       3.435  -6.087  28.724  0.00  0.00    -0.228 OA
BRANCH  16  18
ATOM     18  O   UNL     1       5.218  -7.562  28.474  0.00  0.00    -0.303 OA
ATOM     19  H   UNL     1       5.958  -7.934  27.961  0.00  0.00    +0.222 HD
ENDBRANCH  16  18
BRANCH  16  20
ATOM     20  O   UNL     1       3.496  -7.470  26.825  0.00  0.00    -0.303 OA
ATOM     21  H   UNL     1       3.137  -6.982  26.059  0.00  0.00    +0.222 HD
ENDBRANCH  16  20
ENDBRANCH  15  16
ENDBRANCH   3  15
TORSDOF 8
ENDMDL
MODEL 2
REMARK VINA RESULT:      -5.5      2.533      4.759
REMARK  Name = 
REMARK  8 active torsions:
REMARK  status: ('A' for Active; 'I' for Inactive)
REMARK    1  A    between atoms: O_1  and  C_2
REMARK    2  A    between atoms: C_5  and  C_17
REMARK    3  A    between atoms: C_7  and  O_9
REMARK    4  A    between atoms: O_9  and  P_10
REMARK    5  A    between atoms: P_10  and  O_11
REMARK    6  A    between atoms: P_10  and  O_12
REMARK    7  A    between atoms: C_14  and  O_16
REMARK    8  A    between atoms: C_17  and  O_18
REMARK                            x       y       z     vdW  Elec       q    Type
REMARK                         _______ _______ _______ _____ _____    ______ ____
ROOT
ATOM      1  C   UNL     1       4.855  -6.039  24.260  0.00  0.00    +0.150 C 
ATOM      2  C   UNL     1       5.446  -5.452  22.960  0.00  0.00    +0.176 C 
ATOM      3  C   UNL     1       6.941  -5.024  22.991  0.00  0.00    +0.185 C 
ATOM      4  C   UNL     1       7.555  -4.897  24.350  0.00  0.00    +0.018 C 
ATOM      5  C   UNL     1       6.971  -5.228  25.510  0.00  0.00    +0.038 C 
ATOM      6  C   UNL     1       5.572  -5.750  25.590  0.00  0.00    +0.076 C 
ENDROOT
BRANCH   1   7
ATOM      7  O   UNL     1       4.698  -7.456  24.111  0.00  0.00    -0.389 OA
ATOM      8  H   UNL     1       5.179  -7.719  23.304  0.00  0.00    +0.210 HD
ENDBRANCH   1   7
BRANCH   2   9
ATOM      9  O   UNL     1       4.591  -4.369  22.553  0.00  0.00    -0.386 OA
ATOM     10  H   UNL     1       3.724  -4.542  22.963  0.00  0.00    +0.210 HD
ENDBRANCH   2   9
BRANCH   5  11
ATOM     11  C   UNL     1       7.838  -5.158  26.721  0.00  0.00    +0.333 C 
ATOM     12  O   UNL     1       8.729  -4.330  26.856  0.00  0.00    -0.245 OA
BRANCH  11  13
ATOM     13  O   UNL     1       7.560  -6.069  27.668  0.00  0.00    -0.477 OA
ATOM     14  H   UNL     1       6.638  -6.366  27.727  0.00  0.00    +0.295 HD
ENDBRANCH  11  13
ENDBRANCH   5  11
BRANCH   3  15
ATOM     15  O   UNL     1       7.144  -3.813  22.239  0.00  0.00    -0.277 OA
BRANCH  15  16
ATOM     16  P   UNL     1       7.544  -2.482  23.269  0.00  0.00    +0.473 P 
ATOM     17  O   UNL     1       7.902  -1.290  24.191  0.00  0.00    -0.228 OA
BRANCH  16  18
ATOM     18  O   UNL     1       6.147  -1.800  22.750  0.00  0.00    -0.303 OA
ATOM     19  H   UNL     1       5.835  -2.250  21.944  0.00  0.00    +0.222 HD
ENDBRANCH  16  18
BRANCH  16  20
ATOM     20  O   UNL     1       8.404  -1.934  21.987  0.00  0.00    -0.303 OA
ATOM     21  H   UNL     1       9.191  -1.503  22.372  0.00  0.00    +0.222 HD
ENDBRANCH  16  20
ENDBRANCH  15  16
ENDBRANCH   3  15
TORSDOF 8
ENDMDL
MODEL 3
REMARK VINA RESULT:      -5.4      3.058      5.372
REMARK  Name = 
REMARK  8 active torsions:
REMARK  status: ('A' for Active; 'I' for Inactive)
REMARK    1  A    between atoms: O_1  and  C_2
REMARK    2  A    between atoms: C_5  and  C_17
REMARK    3  A    between atoms: C_7  and  O_9
REMARK    4  A    between atoms: O_9  and  P_10
REMARK    5  A    between atoms: P_10  and  O_11
REMARK    6  A    between atoms: P_10  and  O_12
REMARK    7  A    between atoms: C_14  and  O_16
REMARK    8  A    between atoms: C_17  and  O_18
REMARK                            x       y       z     vdW  Elec       q    Type
REMARK                         _______ _______ _______ _____ _____    ______ ____
ROOT
ATOM      1  C   UNL     1       5.494  -5.378  23.366  0.00  0.00    +0.150 C 
ATOM      2  C   UNL     1       6.087  -4.439  22.292  0.00  0.00    +0.176 C 
ATOM      3  C   UNL     1       7.574  -4.017  22.461  0.00  0.00    +0.185 C 
ATOM      4  C   UNL     1       8.174  -4.270  23.809  0.00  0.00    +0.018 C 
ATOM      5  C   UNL     1       7.586  -4.924  24.820  0.00  0.00    +0.038 C 
ATOM      6  C   UNL     1       6.196  -5.466  24.732  0.00  0.00    +0.076 C 
ENDROOT
BRANCH   1   7
ATOM      7  O   UNL     1       5.363  -6.697  22.820  0.00  0.00    -0.389 OA
ATOM      8  H   UNL     1       4.746  -6.641  22.068  0.00  0.00    +0.210 HD
ENDBRANCH   1   7
BRANCH   2   9
ATOM      9  O   UNL     1       5.217  -3.297  22.197  0.00  0.00    -0.386 OA
ATOM     10  H   UNL     1       5.594  -2.728  21.501  0.00  0.00    +0.210 HD
ENDBRANCH   2   9
BRANCH   5  11
ATOM     11  C   UNL     1       8.443  -5.188  26.013  0.00  0.00    +0.333 C 
ATOM     12  O   UNL     1       8.085  -4.944  27.157  0.00  0.00    -0.245 OA
BRANCH  11  13
ATOM     13  O   UNL     1       9.640  -5.731  25.739  0.00  0.00    -0.477 OA
ATOM     14  H   UNL     1      10.381  -5.454  26.300  0.00  0.00    +0.295 HD
ENDBRANCH  11  13
ENDBRANCH   5  11
BRANCH   3  15
ATOM     15  O   UNL     1       7.763  -2.640  22.085  0.00  0.00    -0.277 OA
BRANCH  15  16
ATOM     16  P   UNL     1       9.035  -1.899  22.992  0.00  0.00    +0.473 P 
ATOM     17  O   UNL     1      10.174  -1.234  23.805  0.00  0.00    -0.228 OA
BRANCH  16  18
ATOM     18  O   UNL     1       8.208  -0.496  22.802  0.00  0.00    -0.303 OA
ATOM     19  H   UNL     1       7.519  -0.605  22.122  0.00  0.00    +0.222 HD
ENDBRANCH  16  18
BRANCH  16  20
ATOM     20  O   UNL     1       9.794  -1.763  21.547  0.00  0.00    -0.303 OA
ATOM     21  H   UNL     1       9.711  -0.822  21.302  0.00  0.00    +0.222 HD
ENDBRANCH  16  20
ENDBRANCH  15  16
ENDBRANCH   3  15
TORSDOF 8
ENDMDL
MODEL 4
REMARK VINA RESULT:      -5.4      2.331      4.520
REMARK  Name = 
REMARK  8 active torsions:
REMARK  status: ('A' for Active; 'I' for Inactive)
REMARK    1  A    between atoms: O_1  and  C_2
REMARK    2  A    between atoms: C_5  and  C_17
REMARK    3  A    between atoms: C_7  and  O_9
REMARK    4  A    between atoms: O_9  and  P_10
REMARK    5  A    between atoms: P_10  and  O_11
REMARK    6  A    between atoms: P_10  and  O_12
REMARK    7  A    between atoms: C_14  and  O_16
REMARK    8  A    between atoms: C_17  and  O_18
REMARK                            x       y       z     vdW  Elec       q    Type
REMARK                         _______ _______ _______ _____ _____    ______ ____
ROOT
ATOM      1  C   UNL     1       9.024  -1.924  22.841  0.00  0.00    +0.150 C 
ATOM      2  C   UNL     1       9.508  -2.521  24.181  0.00  0.00    +0.176 C 
ATOM      3  C   UNL     1       9.082  -3.982  24.501  0.00  0.00    +0.185 C 
ATOM      4  C   UNL     1       7.976  -4.538  23.661  0.00  0.00    +0.018 C 
ATOM      5  C   UNL     1       7.415  -3.937  22.603  0.00  0.00    +0.038 C 
ATOM      6  C   UNL     1       7.819  -2.574  22.140  0.00  0.00    +0.076 C 
ENDROOT
BRANCH   1   7
ATOM      7  O   UNL     1      10.125  -1.868  21.925  0.00  0.00    -0.389 OA
ATOM      8  H   UNL     1      10.930  -2.104  22.420  0.00  0.00    +0.210 HD
ENDBRANCH   1   7
BRANCH   2   9
ATOM      9  O   UNL     1       9.110  -1.610  25.221  0.00  0.00    -0.386 OA
ATOM     10  H   UNL     1       9.761  -0.885  25.209  0.00  0.00    +0.210 HD
ENDBRANCH   2   9
BRANCH   5  11
ATOM     11  C   UNL     1       6.436  -4.756  21.830  0.00  0.00    +0.333 C 
ATOM     12  O   UNL     1       6.757  -5.748  21.190  0.00  0.00    -0.245 OA
BRANCH  11  13
ATOM     13  O   UNL     1       5.165  -4.330  21.899  0.00  0.00    -0.477 OA
ATOM     14  H   UNL     1       5.024  -3.371  21.860  0.00  0.00    +0.295 HD
ENDBRANCH  11  13
ENDBRANCH   5  11
BRANCH   3  15
ATOM     15  O   UNL     1       8.767  -4.131  25.898  0.00  0.00    -0.277 OA
BRANCH  15  16
ATOM     16  P   UNL     1       7.412  -5.177  26.140  0.00  0.00    +0.473 P 
ATOM     17  O   UNL     1       6.197  -6.113  26.356  0.00  0.00    -0.228 OA
BRANCH  16  18
ATOM     18  O   UNL     1       6.769  -3.961  27.032  0.00  0.00    -0.303 OA
ATOM     19  H   UNL     1       5.797  -4.019  27.023  0.00  0.00    +0.222 HD
ENDBRANCH  16  18
BRANCH  16  20
ATOM     20  O   UNL     1       8.277  -5.774  27.395  0.00  0.00    -0.303 OA
ATOM     21  H   UNL     1       8.363  -6.730  27.215  0.00  0.00    +0.222 HD
ENDBRANCH  16  20
ENDBRANCH  15  16
ENDBRANCH   3  15
TORSDOF 8
ENDMDL
MODEL 5
REMARK VINA RESULT:      -5.3      1.943      2.591
REMARK  Name = 
REMARK  8 active torsions:
REMARK  status: ('A' for Active; 'I' for Inactive)
REMARK    1  A    between atoms: O_1  and  C_2
REMARK    2  A    between atoms: C_5  and  C_17
REMARK    3  A    between atoms: C_7  and  O_9
REMARK    4  A    between atoms: O_9  and  P_10
REMARK    5  A    between atoms: P_10  and  O_11
REMARK    6  A    between atoms: P_10  and  O_12
REMARK    7  A    between atoms: C_14  and  O_16
REMARK    8  A    between atoms: C_17  and  O_18
REMARK                            x       y       z     vdW  Elec       q    Type
REMARK                         _______ _______ _______ _____ _____    ______ ____
ROOT
ATOM      1  C   UNL     1       7.268  -4.901  22.856  0.00  0.00    +0.150 C 
ATOM      2  C   UNL     1       5.899  -5.614  22.869  0.00  0.00    +0.176 C 
ATOM      3  C   UNL     1       5.249  -5.875  24.259  0.00  0.00    +0.185 C 
ATOM      4  C   UNL     1       6.156  -5.730  25.440  0.00  0.00    +0.018 C 
ATOM      5  C   UNL     1       7.421  -5.289  25.410  0.00  0.00    +0.038 C 
ATOM      6  C   UNL     1       8.114  -4.908  24.141  0.00  0.00    +0.076 C 
ENDROOT
BRANCH   1   7
ATOM      7  O   UNL     1       7.092  -3.547  22.420  0.00  0.00    -0.389 OA
ATOM      8  H   UNL     1       6.732  -3.577  21.514  0.00  0.00    +0.210 HD
ENDBRANCH   1   7
BRANCH   2   9
ATOM      9  O   UNL     1       6.044  -6.829  22.113  0.00  0.00    -0.386 OA
ATOM     10  H   UNL     1       5.183  -7.284  22.167  0.00  0.00    +0.210 HD
ENDBRANCH   2   9
BRANCH   5  11
ATOM     11  C   UNL     1       8.073  -5.083  26.736  0.00  0.00    +0.333 C 
ATOM     12  O   UNL     1       8.884  -4.191  26.948  0.00  0.00    -0.245 OA
BRANCH  11  13
ATOM     13  O   UNL     1       7.690  -5.944  27.693  0.00  0.00    -0.477 OA
ATOM     14  H   UNL     1       6.906  -6.483  27.504  0.00  0.00    +0.295 HD
ENDBRANCH  11  13
ENDBRANCH   5  11
BRANCH   3  15
ATOM     15  O   UNL     1       4.598  -7.159  24.287  0.00  0.00    -0.277 OA
BRANCH  15  16
ATOM     16  P   UNL     1       2.917  -7.014  24.664  0.00  0.00    +0.473 P 
ATOM     17  O   UNL     1       1.411  -6.885  25.002  0.00  0.00    -0.228 OA
BRANCH  16  18
ATOM     18  O   UNL     1       3.246  -7.920  25.990  0.00  0.00    -0.303 OA
ATOM     19  H   UNL     1       2.418  -8.253  26.380  0.00  0.00    +0.222 HD
ENDBRANCH  16  18
BRANCH  16  20
ATOM     20  O   UNL     1       2.733  -8.321  23.694  0.00  0.00    -0.303 OA
ATOM     21  H   UNL     1       3.429  -8.237  23.015  0.00  0.00    +0.222 HD
ENDBRANCH  16  20
ENDBRANCH  15  16
ENDBRANCH   3  15
TORSDOF 8
ENDMDL
MODEL 6
REMARK VINA RESULT:      -5.3      3.939      5.516
REMARK  Name = 
REMARK  8 active torsions:
REMARK  status: ('A' for Active; 'I' for Inactive)
REMARK    1  A    between atoms: O_1  and  C_2
REMARK    2  A    between atoms: C_5  and  C_17
REMARK    3  A    between atoms: C_7  and  O_9
REMARK    4  A    between atoms: O_9  and  P_10
REMARK    5  A    between atoms: P_10  and  O_11
REMARK    6  A    between atoms: P_10  and  O_12
REMARK    7  A    between atoms: C_14  and  O_16
REMARK    8  A    between atoms: C_17  and  O_18
REMARK                            x       y       z     vdW  Elec       q    Type
REMARK                         _______ _______ _______ _____ _____    ______ ____
ROOT
ATOM      1  C   UNL     1       7.332  -0.656  22.811  0.00  0.00    +0.150 C 
ATOM      2  C   UNL     1       7.623  -2.062  23.376  0.00  0.00    +0.176 C 
ATOM      3  C   UNL     1       8.800  -2.192  24.386  0.00  0.00    +0.185 C 
ATOM      4  C   UNL     1       9.741  -1.030  24.442  0.00  0.00    +0.018 C 
ATOM      5  C   UNL     1       9.591   0.135  23.796  0.00  0.00    +0.038 C 
ATOM      6  C   UNL     1       8.440   0.409  22.881  0.00  0.00    +0.076 C 
ENDROOT
BRANCH   1   7
ATOM      7  O   UNL     1       6.145  -0.136  23.424  0.00  0.00    -0.389 OA
ATOM      8  H   UNL     1       6.401   0.657  23.929  0.00  0.00    +0.210 HD
ENDBRANCH   1   7
BRANCH   2   9
ATOM      9  O   UNL     1       7.785  -2.948  22.254  0.00  0.00    -0.386 OA
ATOM     10  H   UNL     1       8.280  -3.719  22.588  0.00  0.00    +0.210 HD
ENDBRANCH   2   9
BRANCH   5  11
ATOM     11  C   UNL     1      10.579   1.200  24.132  0.00  0.00    +0.333 C 
ATOM     12  O   UNL     1      10.371   2.390  23.933  0.00  0.00    -0.245 OA
BRANCH  11  13
ATOM     13  O   UNL     1      11.719   0.758  24.688  0.00  0.00    -0.477 OA
ATOM     14  H   UNL     1      12.270   0.174  24.144  0.00  0.00    +0.295 HD
ENDBRANCH  11  13
ENDBRANCH   5  11
BRANCH   3  15
ATOM     15  O   UNL     1       9.531  -3.412  24.168  0.00  0.00    -0.277 OA
BRANCH  15  16
ATOM     16  P   UNL     1       8.942  -4.696  25.165  0.00  0.00    +0.473 P 
ATOM     17  O   UNL     1       8.415  -5.847  26.058  0.00  0.00    -0.228 OA
BRANCH  16  18
ATOM     18  O   UNL     1      10.467  -5.295  25.110  0.00  0.00    -0.303 OA
ATOM     19  H   UNL     1      11.067  -4.642  24.706  0.00  0.00    +0.222 HD
ENDBRANCH  16  18
BRANCH  16  20
ATOM     20  O   UNL     1       8.507  -5.403  23.752  0.00  0.00    -0.303 OA
ATOM     21  H   UNL     1       8.105  -4.689  23.222  0.00  0.00    +0.222 HD
ENDBRANCH  16  20
ENDBRANCH  15  16
ENDBRANCH   3  15
TORSDOF 8
ENDMDL
MODEL 7
REMARK VINA RESULT:      -5.3      4.901      6.710
REMARK  Name = 
REMARK  8 active torsions:
REMARK  status: ('A' for Active; 'I' for Inactive)
REMARK    1  A    between atoms: O_1  and  C_2
REMARK    2  A    between atoms: C_5  and  C_17
REMARK    3  A    between atoms: C_7  and  O_9
REMARK    4  A    between atoms: O_9  and  P_10
REMARK    5  A    between atoms: P_10  and  O_11
REMARK    6  A    between atoms: P_10  and  O_12
REMARK    7  A    between atoms: C_14  and  O_16
REMARK    8  A    between atoms: C_17  and  O_18
REMARK                            x       y       z     vdW  Elec       q    Type
REMARK                         _______ _______ _______ _____ _____    ______ ____
ROOT
ATOM      1  C   UNL     1      10.010   0.782  22.203  0.00  0.00    +0.150 C 
ATOM      2  C   UNL     1       9.454  -0.564  21.691  0.00  0.00    +0.176 C 
ATOM      3  C   UNL     1       8.280  -1.196  22.491  0.00  0.00    +0.185 C 
ATOM      4  C   UNL     1       8.039  -0.629  23.854  0.00  0.00    +0.018 C 
ATOM      5  C   UNL     1       8.661   0.434  24.384  0.00  0.00    +0.038 C 
ATOM      6  C   UNL     1       9.733   1.185  23.662  0.00  0.00    +0.076 C 
ENDROOT
BRANCH   1   7
ATOM      7  O   UNL     1       9.571   1.836  21.335  0.00  0.00    -0.389 OA
ATOM      8  H   UNL     1       8.599   1.787  21.286  0.00  0.00    +0.210 HD
ENDBRANCH   1   7
BRANCH   2   9
ATOM      9  O   UNL     1      10.567  -1.468  21.575  0.00  0.00    -0.386 OA
ATOM     10  H   UNL     1      10.234  -2.244  21.088  0.00  0.00    +0.210 HD
ENDBRANCH   2   9
BRANCH   5  11
ATOM     11  C   UNL     1       8.140   0.907  25.699  0.00  0.00    +0.333 C 
ATOM     12  O   UNL     1       7.791   0.145  26.591  0.00  0.00    -0.245 OA
BRANCH  11  13
ATOM     13  O   UNL     1       8.095   2.242  25.842  0.00  0.00    -0.477 OA
ATOM     14  H   UNL     1       8.928   2.682  26.075  0.00  0.00    +0.295 HD
ENDBRANCH  11  13
ENDBRANCH   5  11
BRANCH   3  15
ATOM     15  O   UNL     1       8.422  -2.627  22.568  0.00  0.00    -0.277 OA
BRANCH  15  16
ATOM     16  P   UNL     1       8.600  -3.165  24.201  0.00  0.00    +0.473 P 
ATOM     17  O   UNL     1       8.759  -3.646  25.665  0.00  0.00    -0.228 OA
BRANCH  16  18
ATOM     18  O   UNL     1      10.213  -3.166  23.913  0.00  0.00    -0.303 OA
ATOM     19  H   UNL     1      10.451  -2.412  23.343  0.00  0.00    +0.222 HD
ENDBRANCH  16  18
BRANCH  16  20
ATOM     20  O   UNL     1       8.387  -4.665  23.581  0.00  0.00    -0.303 OA
ATOM     21  H   UNL     1       7.435  -4.854  23.687  0.00  0.00    +0.222 HD
ENDBRANCH  16  20
ENDBRANCH  15  16
ENDBRANCH   3  15
TORSDOF 8
ENDMDL
MODEL 8
REMARK VINA RESULT:      -5.2      3.251      6.326
REMARK  Name = 
REMARK  8 active torsions:
REMARK  status: ('A' for Active; 'I' for Inactive)
REMARK    1  A    between atoms: O_1  and  C_2
REMARK    2  A    between atoms: C_5  and  C_17
REMARK    3  A    between atoms: C_7  and  O_9
REMARK    4  A    between atoms: O_9  and  P_10
REMARK    5  A    between atoms: P_10  and  O_11
REMARK    6  A    between atoms: P_10  and  O_12
REMARK    7  A    between atoms: C_14  and  O_16
REMARK    8  A    between atoms: C_17  and  O_18
REMARK                            x       y       z     vdW  Elec       q    Type
REMARK                         _______ _______ _______ _____ _____    ______ ____
ROOT
ATOM      1  C   UNL     1       7.964  -5.366  25.952  0.00  0.00    +0.150 C 
ATOM      2  C   UNL     1       9.161  -4.485  25.534  0.00  0.00    +0.176 C 
ATOM      3  C   UNL     1       8.840  -3.167  24.774  0.00  0.00    +0.185 C 
ATOM      4  C   UNL     1       7.454  -3.053  24.221  0.00  0.00    +0.018 C 
ATOM      5  C   UNL     1       6.454  -3.922  24.424  0.00  0.00    +0.038 C 
ATOM      6  C   UNL     1       6.620  -5.172  25.227  0.00  0.00    +0.076 C 
ENDROOT
BRANCH   1   7
ATOM      7  O   UNL     1       7.756  -5.243  27.365  0.00  0.00    -0.389 OA
ATOM      8  H   UNL     1       6.798  -5.140  27.510  0.00  0.00    +0.210 HD
ENDBRANCH   1   7
BRANCH   2   9
ATOM      9  O   UNL     1      10.066  -5.321  24.792  0.00  0.00    -0.386 OA
ATOM     10  H   UNL     1      10.065  -4.976  23.880  0.00  0.00    +0.210 HD
ENDBRANCH   2   9
BRANCH   5  11
ATOM     11  C   UNL     1       5.119  -3.514  23.899  0.00  0.00    +0.333 C 
ATOM     12  O   UNL     1       4.339  -2.816  24.532  0.00  0.00    -0.245 OA
BRANCH  11  13
ATOM     13  O   UNL     1       4.838  -3.960  22.664  0.00  0.00    -0.477 OA
ATOM     14  H   UNL     1       5.567  -3.958  22.024  0.00  0.00    +0.295 HD
ENDBRANCH  11  13
ENDBRANCH   5  11
BRANCH   3  15
ATOM     15  O   UNL     1       9.809  -2.923  23.738  0.00  0.00    -0.277 OA
BRANCH  15  16
ATOM     16  P   UNL     1       9.386  -1.549  22.777  0.00  0.00    +0.473 P 
ATOM     17  O   UNL     1       9.007  -0.318  21.916  0.00  0.00    -0.228 OA
BRANCH  16  18
ATOM     18  O   UNL     1      10.797  -1.804  21.982  0.00  0.00    -0.303 OA
ATOM     19  H   UNL     1      11.342  -2.448  22.469  0.00  0.00    +0.222 HD
ENDBRANCH  16  18
BRANCH  16  20
ATOM     20  O   UNL     1      10.098  -0.676  23.966  0.00  0.00    -0.303 OA
ATOM     21  H   UNL     1      10.264   0.202  23.575  0.00  0.00    +0.222 HD
ENDBRANCH  16  20
ENDBRANCH  15  16
ENDBRANCH   3  15
TORSDOF 8
ENDMDL
MODEL 9
REMARK VINA RESULT:      -5.2      5.420      8.039
REMARK  Name = 
REMARK  8 active torsions:
REMARK  status: ('A' for Active; 'I' for Inactive)
REMARK    1  A    between atoms: O_1  and  C_2
REMARK    2  A    between atoms: C_5  and  C_17
REMARK    3  A    between atoms: C_7  and  O_9
REMARK    4  A    between atoms: O_9  and  P_10
REMARK    5  A    between atoms: P_10  and  O_11
REMARK    6  A    between atoms: P_10  and  O_12
REMARK    7  A    between atoms: C_14  and  O_16
REMARK    8  A    between atoms: C_17  and  O_18
REMARK                            x       y       z     vdW  Elec       q    Type
REMARK                         _______ _______ _______ _____ _____    ______ ____
ROOT
ATOM      1  C   UNL     1       9.155  -2.770  23.743  0.00  0.00    +0.150 C 
ATOM      2  C   UNL     1      10.122  -1.915  22.897  0.00  0.00    +0.176 C 
ATOM      3  C   UNL     1      10.454  -0.489  23.423  0.00  0.00    +0.185 C 
ATOM      4  C   UNL     1       9.548   0.039  24.491  0.00  0.00    +0.018 C 
ATOM      5  C   UNL     1       8.571  -0.646  25.102  0.00  0.00    +0.038 C 
ATOM      6  C   UNL     1       8.234  -2.059  24.750  0.00  0.00    +0.076 C 
ENDROOT
BRANCH   1   7
ATOM      7  O   UNL     1       9.899  -3.787  24.427  0.00  0.00    -0.389 OA
ATOM      8  H   UNL     1       9.497  -3.899  25.308  0.00  0.00    +0.210 HD
ENDBRANCH   1   7
BRANCH   2   9
ATOM      9  O   UNL     1       9.599  -1.880  21.557  0.00  0.00    -0.386 OA
ATOM     10  H   UNL     1       9.394  -0.945  21.372  0.00  0.00    +0.210 HD
ENDBRANCH   2   9
BRANCH   5  11
ATOM     11  C   UNL     1       7.906   0.044  26.245  0.00  0.00    +0.333 C 
ATOM     12  O   UNL     1       7.274  -0.552  27.106  0.00  0.00    -0.245 OA
BRANCH  11  13
ATOM     13  O   UNL     1       8.066   1.377  26.270  0.00  0.00    -0.477 OA
ATOM     14  H   UNL     1       7.836   1.858  25.459  0.00  0.00    +0.295 HD
ENDBRANCH  11  13
ENDBRANCH   5  11
BRANCH   3  15
ATOM     15  O   UNL     1      10.539   0.452  22.336  0.00  0.00    -0.277 OA
BRANCH  15  16
ATOM     16  P   UNL     1       9.317   1.669  22.447  0.00  0.00    +0.473 P 
ATOM     17  O   UNL     1       8.221   2.760  22.547  0.00  0.00    -0.228 OA
BRANCH  16  18
ATOM     18  O   UNL     1       8.819   1.153  20.973  0.00  0.00    -0.303 OA
ATOM     19  H   UNL     1       7.866   1.322  20.865  0.00  0.00    +0.222 HD
ENDBRANCH  16  18
BRANCH  16  20
ATOM     20  O   UNL     1      10.455   2.668  21.823  0.00  0.00    -0.303 OA
ATOM     21  H   UNL     1      11.158   2.708  22.498  0.00  0.00    +0.222 HD
ENDBRANCH  16  20
ENDBRANCH  15  16
ENDBRANCH   3  15
TORSDOF 8
ENDMDL
