MODEL 1
REMARK VINA RESULT:      -4.8      0.000      0.000
REMARK  Name = 
REMARK  3 active torsions:
REMARK  status: ('A' for Active; 'I' for Inactive)
REMARK    1  A    between atoms: O_1  and  C_2
REMARK    2  A    between atoms: C_9  and  O_11
REMARK    3  A    between atoms: C_14  and  O_16
REMARK                            x       y       z     vdW  Elec       q    Type
REMARK                         _______ _______ _______ _____ _____    ______ ____
ROOT
ATOM      1  C   UNL     1       4.558  -6.129  24.579  0.00  0.00    +0.158 C 
ATOM      2  C   UNL     1       5.163  -6.013  25.990  0.00  0.00    +0.164 C 
ATOM      3  C   UNL     1       6.605  -5.669  25.643  0.00  0.00    +0.116 C 
ATOM      4  N   UNL     1       6.429  -4.613  24.636  0.00  0.00    -0.292 NA
ATOM      5  C   UNL     1       7.691  -4.286  23.985  0.00  0.00    +0.085 C 
ATOM      6  C   UNL     1       8.734  -3.845  25.029  0.00  0.00    +0.018 C 
ATOM      7  C   UNL     1       8.845  -4.794  26.233  0.00  0.00    +0.034 C 
ATOM      8  C   UNL     1       7.465  -5.155  26.798  0.00  0.00    +0.134 C 
ATOM      9  C   UNL     1       5.354  -5.088  23.751  0.00  0.00    +0.118 C 
ENDROOT
BRANCH   1  10
ATOM     10  O   UNL     1       4.790  -7.432  24.025  0.00  0.00    -0.388 OA
ATOM     11  H   UNL     1       5.453  -7.332  23.321  0.00  0.00    +0.210 HD
ENDBRANCH   1  10
BRANCH   2  12
ATOM     12  O   UNL     1       5.027  -7.188  26.777  0.00  0.00    -0.388 OA
ATOM     13  H   UNL     1       5.916  -7.376  27.138  0.00  0.00    +0.210 HD
ENDBRANCH   2  12
BRANCH   8  14
ATOM     14  O   UNL     1       7.575  -6.136  27.826  0.00  0.00    -0.390 OA
ATOM     15  H   UNL     1       7.624  -5.667  28.678  0.00  0.00    +0.210 HD
ENDBRANCH   8  14
TORSDOF 3
ENDMDL
MODEL 2
REMARK VINA RESULT:      -4.8      6.240      7.541
REMARK  Name = 
REMARK  3 active torsions:
REMARK  status: ('A' for Active; 'I' for Inactive)
REMARK    1  A    between atoms: O_1  and  C_2
REMARK    2  A    between atoms: C_9  and  O_11
REMARK    3  A    between atoms: C_14  and  O_16
REMARK                            x       y       z     vdW  Elec       q    Type
REMARK                         _______ _______ _______ _____ _____    ______ ____
ROOT
ATOM      1  C   UNL     1       9.609  -1.842  23.577  0.00  0.00    +0.158 C 
ATOM      2  C   UNL     1      10.158  -0.703  22.698  0.00  0.00    +0.164 C 
ATOM      3  C   UNL     1       9.278   0.450  23.161  0.00  0.00    +0.116 C 
ATOM      4  N   UNL     1       9.344   0.312  24.622  0.00  0.00    -0.292 NA
ATOM      5  C   UNL     1       8.379   1.183  25.281  0.00  0.00    +0.085 C 
ATOM      6  C   UNL     1       8.622   2.650  24.882  0.00  0.00    +0.018 C 
ATOM      7  C   UNL     1       8.770   2.864  23.367  0.00  0.00    +0.034 C 
ATOM      8  C   UNL     1       9.736   1.847  22.744  0.00  0.00    +0.134 C 
ATOM      9  C   UNL     1       9.198  -1.128  24.890  0.00  0.00    +0.118 C 
ENDROOT
BRANCH   1  10
ATOM     10  O   UNL     1       8.440  -2.429  22.987  0.00  0.00    -0.388 OA
ATOM     11  H   UNL     1       8.080  -1.783  22.358  0.00  0.00    +0.210 HD
ENDBRANCH   1  10
BRANCH   2  12
ATOM     12  O   UNL     1      10.082  -0.960  21.303  0.00  0.00    -0.388 OA
ATOM     13  H   UNL     1      10.995  -1.158  21.014  0.00  0.00    +0.210 HD
ENDBRANCH   2  12
BRANCH   8  14
ATOM     14  O   UNL     1       9.761   1.972  21.324  0.00  0.00    -0.390 OA
ATOM     15  H   UNL     1       9.506   1.111  20.947  0.00  0.00    +0.210 HD
ENDBRANCH   8  14
TORSDOF 3
ENDMDL
MODEL 3
REMARK VINA RESULT:      -4.8      2.998      4.753
REMARK  Name = 
REMARK  3 active torsions:
REMARK  status: ('A' for Active; 'I' for Inactive)
REMARK    1  A    between atoms: O_1  and  C_2
REMARK    2  A    between atoms: C_9  and  O_11
REMARK    3  A    between atoms: C_14  and  O_16
REMARK                            x       y       z     vdW  Elec       q    Type
REMARK                         _______ _______ _______ _____ _____    ______ ____
ROOT
ATOM      1  C   UNL     1       9.171  -4.640  25.473  0.00  0.00    +0.158 C 
ATOM      2  C   UNL     1       9.057  -3.385  24.588  0.00  0.00    +0.164 C 
ATOM      3  C   UNL     1       7.907  -3.795  23.677  0.00  0.00    +0.116 C 
ATOM      4  N   UNL     1       6.933  -4.323  24.641  0.00  0.00    -0.292 NA
ATOM      5  C   UNL     1       5.829  -4.993  23.966  0.00  0.00    +0.085 C 
ATOM      6  C   UNL     1       5.131  -4.025  22.992  0.00  0.00    +0.018 C 
ATOM      7  C   UNL     1       6.099  -3.268  22.071  0.00  0.00    +0.034 C 
ATOM      8  C   UNL     1       7.276  -2.672  22.854  0.00  0.00    +0.134 C 
ATOM      9  C   UNL     1       7.712  -5.151  25.576  0.00  0.00    +0.118 C 
ENDROOT
BRANCH   1  10
ATOM     10  O   UNL     1       9.967  -5.649  24.835  0.00  0.00    -0.388 OA
ATOM     11  H   UNL     1      10.130  -6.345  25.493  0.00  0.00    +0.210 HD
ENDBRANCH   1  10
BRANCH   2  12
ATOM     12  O   UNL     1      10.252  -3.057  23.892  0.00  0.00    -0.388 OA
ATOM     13  H   UNL     1      10.955  -3.611  24.286  0.00  0.00    +0.210 HD
ENDBRANCH   2  12
BRANCH   8  14
ATOM     14  O   UNL     1       8.232  -2.089  21.972  0.00  0.00    -0.390 OA
ATOM     15  H   UNL     1       9.010  -1.840  22.503  0.00  0.00    +0.210 HD
ENDBRANCH   8  14
TORSDOF 3
ENDMDL
MODEL 4
REMARK VINA RESULT:      -4.8      2.008      3.981
REMARK  Name = 
REMARK  3 active torsions:
REMARK  status: ('A' for Active; 'I' for Inactive)
REMARK    1  A    between atoms: O_1  and  C_2
REMARK    2  A    between atoms: C_9  and  O_11
REMARK    3  A    between atoms: C_14  and  O_16
REMARK                            x       y       z     vdW  Elec       q    Type
REMARK                         _______ _______ _______ _____ _____    ______ ____
ROOT
ATOM      1  C   UNL     1       8.411  -4.599  26.668  0.00  0.00    +0.158 C 
ATOM      2  C   UNL     1       8.806  -4.888  25.208  0.00  0.00    +0.164 C 
ATOM      3  C   UNL     1       7.428  -5.000  24.568  0.00  0.00    +0.116 C 
ATOM      4  N   UNL     1       6.747  -3.817  25.112  0.00  0.00    -0.292 NA
ATOM      5  C   UNL     1       5.321  -3.842  24.813  0.00  0.00    +0.085 C 
ATOM      6  C   UNL     1       5.095  -3.923  23.291  0.00  0.00    +0.018 C 
ATOM      7  C   UNL     1       5.929  -5.012  22.598  0.00  0.00    +0.034 C 
ATOM      8  C   UNL     1       7.398  -4.967  23.041  0.00  0.00    +0.134 C 
ATOM      9  C   UNL     1       7.103  -3.778  26.540  0.00  0.00    +0.118 C 
ENDROOT
BRANCH   1  10
ATOM     10  O   UNL     1       8.125  -5.814  27.375  0.00  0.00    -0.388 OA
ATOM     11  H   UNL     1       7.252  -5.707  27.789  0.00  0.00    +0.210 HD
ENDBRANCH   1  10
BRANCH   2  12
ATOM     12  O   UNL     1       9.610  -6.048  25.045  0.00  0.00    -0.388 OA
ATOM     13  H   UNL     1       9.545  -6.542  25.886  0.00  0.00    +0.210 HD
ENDBRANCH   2  12
BRANCH   8  14
ATOM     14  O   UNL     1       8.129  -6.062  22.494  0.00  0.00    -0.390 OA
ATOM     15  H   UNL     1       7.611  -6.421  21.751  0.00  0.00    +0.210 HD
ENDBRANCH   8  14
TORSDOF 3
ENDMDL
MODEL 5
REMARK VINA RESULT:      -4.7      6.512      7.970
REMARK  Name = 
REMARK  3 active torsions:
REMARK  status: ('A' for Active; 'I' for Inactive)
REMARK    1  A    between atoms: O_1  and  C_2
REMARK    2  A    between atoms: C_9  and  O_11
REMARK    3  A    between atoms: C_14  and  O_16
REMARK                            x       y       z     vdW  Elec       q    Type
REMARK                         _______ _______ _______ _____ _____    ______ ____
ROOT
ATOM      1  C   UNL     1       8.902   2.698  23.617  0.00  0.00    +0.158 C 
ATOM      2  C   UNL     1       8.855   1.672  22.469  0.00  0.00    +0.164 C 
ATOM      3  C   UNL     1       9.418   0.446  23.175  0.00  0.00    +0.116 C 
ATOM      4  N   UNL     1       8.657   0.444  24.431  0.00  0.00    -0.292 NA
ATOM      5  C   UNL     1       9.197  -0.524  25.377  0.00  0.00    +0.085 C 
ATOM      6  C   UNL     1       9.192  -1.935  24.760  0.00  0.00    +0.018 C 
ATOM      7  C   UNL     1       9.792  -1.995  23.346  0.00  0.00    +0.034 C 
ATOM      8  C   UNL     1       9.233  -0.885  22.447  0.00  0.00    +0.134 C 
ATOM      9  C   UNL     1       8.640   1.844  24.884  0.00  0.00    +0.118 C 
ENDROOT
BRANCH   1  10
ATOM     10  O   UNL     1      10.203   3.293  23.723  0.00  0.00    -0.388 OA
ATOM     11  H   UNL     1      10.097   4.245  23.563  0.00  0.00    +0.210 HD
ENDBRANCH   1  10
BRANCH   2  12
ATOM     12  O   UNL     1       9.589   2.060  21.316  0.00  0.00    -0.388 OA
ATOM     13  H   UNL     1       9.447   1.354  20.655  0.00  0.00    +0.210 HD
ENDBRANCH   2  12
BRANCH   8  14
ATOM     14  O   UNL     1       9.895  -0.871  21.184  0.00  0.00    -0.390 OA
ATOM     15  H   UNL     1       9.889   0.047  20.858  0.00  0.00    +0.210 HD
ENDBRANCH   8  14
TORSDOF 3
ENDMDL
MODEL 6
REMARK VINA RESULT:      -4.6      5.251      6.654
REMARK  Name = 
REMARK  3 active torsions:
REMARK  status: ('A' for Active; 'I' for Inactive)
REMARK    1  A    between atoms: O_1  and  C_2
REMARK    2  A    between atoms: C_9  and  O_11
REMARK    3  A    between atoms: C_14  and  O_16
REMARK                            x       y       z     vdW  Elec       q    Type
REMARK                         _______ _______ _______ _____ _____    ______ ____
ROOT
ATOM      1  C   UNL     1       8.707  -1.849  25.390  0.00  0.00    +0.158 C 
ATOM      2  C   UNL     1       9.333  -1.999  23.991  0.00  0.00    +0.164 C 
ATOM      3  C   UNL     1       9.244  -0.562  23.495  0.00  0.00    +0.116 C 
ATOM      4  N   UNL     1       9.759   0.187  24.649  0.00  0.00    -0.292 NA
ATOM      5  C   UNL     1       9.550   1.620  24.487  0.00  0.00    +0.085 C 
ATOM      6  C   UNL     1      10.228   2.117  23.196  0.00  0.00    +0.018 C 
ATOM      7  C   UNL     1       9.906   1.263  21.960  0.00  0.00    +0.034 C 
ATOM      8  C   UNL     1      10.066  -0.235  22.249  0.00  0.00    +0.134 C 
ATOM      9  C   UNL     1       9.127  -0.424  25.830  0.00  0.00    +0.118 C 
ENDROOT
BRANCH   1  10
ATOM     10  O   UNL     1       7.275  -1.906  25.322  0.00  0.00    -0.388 OA
ATOM     11  H   UNL     1       6.943  -1.008  25.486  0.00  0.00    +0.210 HD
ENDBRANCH   1  10
BRANCH   2  12
ATOM     12  O   UNL     1       8.667  -2.937  23.157  0.00  0.00    -0.388 OA
ATOM     13  H   UNL     1       9.109  -3.796  23.310  0.00  0.00    +0.210 HD
ENDBRANCH   2  12
BRANCH   8  14
ATOM     14  O   UNL     1       9.637  -1.017  21.137  0.00  0.00    -0.390 OA
ATOM     15  H   UNL     1       9.043  -1.711  21.476  0.00  0.00    +0.210 HD
ENDBRANCH   8  14
TORSDOF 3
ENDMDL
MODEL 7
REMARK VINA RESULT:      -4.6      4.419      5.583
REMARK  Name = 
REMARK  3 active torsions:
REMARK  status: ('A' for Active; 'I' for Inactive)
REMARK    1  A    between atoms: O_1  and  C_2
REMARK    2  A    between atoms: C_9  and  O_11
REMARK    3  A    between atoms: C_14  and  O_16
REMARK                            x       y       z     vdW  Elec       q    Type
REMARK                         _______ _______ _______ _____ _____    ______ ____
ROOT
ATOM      1  C   UNL     1       8.034  -3.149  23.874  0.00  0.00    +0.158 C 
ATOM      2  C   UNL     1       8.239  -1.941  24.806  0.00  0.00    +0.164 C 
ATOM      3  C   UNL     1       9.214  -1.116  23.975  0.00  0.00    +0.116 C 
ATOM      4  N   UNL     1       8.582  -1.148  22.650  0.00  0.00    -0.292 NA
ATOM      5  C   UNL     1       9.469  -0.608  21.627  0.00  0.00    +0.085 C 
ATOM      6  C   UNL     1       9.873   0.836  21.979  0.00  0.00    +0.018 C 
ATOM      7  C   UNL     1      10.361   1.007  23.426  0.00  0.00    +0.034 C 
ATOM      8  C   UNL     1       9.415   0.331  24.426  0.00  0.00    +0.134 C 
ATOM      9  C   UNL     1       8.149  -2.541  22.453  0.00  0.00    +0.118 C 
ENDROOT
BRANCH   1  10
ATOM     10  O   UNL     1       9.080  -4.116  24.046  0.00  0.00    -0.388 OA
ATOM     11  H   UNL     1       9.349  -4.410  23.161  0.00  0.00    +0.210 HD
ENDBRANCH   1  10
BRANCH   2  12
ATOM     12  O   UNL     1       8.729  -2.281  26.096  0.00  0.00    -0.388 OA
ATOM     13  H   UNL     1       8.109  -2.948  26.452  0.00  0.00    +0.210 HD
ENDBRANCH   2  12
BRANCH   8  14
ATOM     14  O   UNL     1       9.947   0.383  25.747  0.00  0.00    -0.390 OA
ATOM     15  H   UNL     1      10.662   1.045  25.752  0.00  0.00    +0.210 HD
ENDBRANCH   8  14
TORSDOF 3
ENDMDL
MODEL 8
REMARK VINA RESULT:      -4.6      5.902      7.270
REMARK  Name = 
REMARK  3 active torsions:
REMARK  status: ('A' for Active; 'I' for Inactive)
REMARK    1  A    between atoms: O_1  and  C_2
REMARK    2  A    between atoms: C_9  and  O_11
REMARK    3  A    between atoms: C_14  and  O_16
REMARK                            x       y       z     vdW  Elec       q    Type
REMARK                         _______ _______ _______ _____ _____    ______ ____
ROOT
ATOM      1  C   UNL     1       9.941   1.378  21.835  0.00  0.00    +0.158 C 
ATOM      2  C   UNL     1      10.276   1.121  23.316  0.00  0.00    +0.164 C 
ATOM      3  C   UNL     1       9.222   0.076  23.657  0.00  0.00    +0.116 C 
ATOM      4  N   UNL     1       9.337  -0.850  22.522  0.00  0.00    -0.292 NA
ATOM      5  C   UNL     1       8.250  -1.822  22.519  0.00  0.00    +0.085 C 
ATOM      6  C   UNL     1       8.236  -2.613  23.840  0.00  0.00    +0.018 C 
ATOM      7  C   UNL     1       8.320  -1.727  25.093  0.00  0.00    +0.034 C 
ATOM      8  C   UNL     1       9.431  -0.677  24.971  0.00  0.00    +0.134 C 
ATOM      9  C   UNL     1       9.439   0.002  21.327  0.00  0.00    +0.118 C 
ENDROOT
BRANCH   1  10
ATOM     10  O   UNL     1       8.878   2.332  21.705  0.00  0.00    -0.388 OA
ATOM     11  H   UNL     1       8.881   2.643  20.785  0.00  0.00    +0.210 HD
ENDBRANCH   1  10
BRANCH   2  12
ATOM     12  O   UNL     1      10.219   2.282  24.132  0.00  0.00    -0.388 OA
ATOM     13  H   UNL     1      11.114   2.390  24.511  0.00  0.00    +0.210 HD
ENDBRANCH   2  12
BRANCH   8  14
ATOM     14  O   UNL     1       9.410   0.220  26.080  0.00  0.00    -0.390 OA
ATOM     15  H   UNL     1       8.537   0.141  26.506  0.00  0.00    +0.210 HD
ENDBRANCH   8  14
TORSDOF 3
ENDMDL
MODEL 9
REMARK VINA RESULT:      -4.5      1.879      3.550
REMARK  Name = 
REMARK  3 active torsions:
REMARK  status: ('A' for Active; 'I' for Inactive)
REMARK    1  A    between atoms: O_1  and  C_2
REMARK    2  A    between atoms: C_9  and  O_11
REMARK    3  A    between atoms: C_14  and  O_16
REMARK                            x       y       z     vdW  Elec       q    Type
REMARK                         _______ _______ _______ _____ _____    ______ ____
ROOT
ATOM      1  C   UNL     1       6.677  -5.134  27.562  0.00  0.00    +0.158 C 
ATOM      2  C   UNL     1       7.555  -4.347  26.571  0.00  0.00    +0.164 C 
ATOM      3  C   UNL     1       7.288  -5.127  25.290  0.00  0.00    +0.116 C 
ATOM      4  N   UNL     1       5.824  -5.251  25.313  0.00  0.00    -0.292 NA
ATOM      5  C   UNL     1       5.355  -6.172  24.285  0.00  0.00    +0.085 C 
ATOM      6  C   UNL     1       5.819  -5.703  22.894  0.00  0.00    +0.018 C 
ATOM      7  C   UNL     1       7.313  -5.352  22.825  0.00  0.00    +0.034 C 
ATOM      8  C   UNL     1       7.737  -4.453  23.994  0.00  0.00    +0.134 C 
ATOM      9  C   UNL     1       5.479  -5.605  26.699  0.00  0.00    +0.118 C 
ENDROOT
BRANCH   1  10
ATOM     10  O   UNL     1       7.369  -6.288  28.059  0.00  0.00    -0.388 OA
ATOM     11  H   UNL     1       8.153  -6.416  27.501  0.00  0.00    +0.210 HD
ENDBRANCH   1  10
BRANCH   2  12
ATOM     12  O   UNL     1       8.927  -4.290  26.933  0.00  0.00    -0.388 OA
ATOM     13  H   UNL     1       9.428  -4.557  26.137  0.00  0.00    +0.210 HD
ENDBRANCH   2  12
BRANCH   8  14
ATOM     14  O   UNL     1       9.148  -4.245  23.992  0.00  0.00    -0.390 OA
ATOM     15  H   UNL     1       9.375  -3.751  24.800  0.00  0.00    +0.210 HD
ENDBRANCH   8  14
TORSDOF 3
ENDMDL
