MODEL 1
REMARK VINA RESULT:      -7.0      0.000      0.000
REMARK  Name = 
REMARK  8 active torsions:
REMARK  status: ('A' for Active; 'I' for Inactive)
REMARK    1  A    between atoms: C_1  and  C_2
REMARK    2  A    between atoms: C_2  and  C_3
REMARK    3  A    between atoms: C_2  and  C_4
REMARK    4  A    between atoms: C_2  and  C_5
REMARK    5  A    between atoms: N_7  and  C_24
REMARK    6  A    between atoms: C_8  and  N_9
REMARK    7  A    between atoms: N_12  and  C_13
REMARK    8  A    between atoms: C_28  and  N_29
REMARK                            x       y       z     vdW  Elec       q    Type
REMARK                         _______ _______ _______ _____ _____    ______ ____
ROOT
ATOM      1  C   UNL     1       7.118   1.388  27.774  0.00  0.00    +0.071 A 
ATOM      2  C   UNL     1       7.253   0.002  27.568  0.00  0.00    +0.069 A 
ATOM      3  C   UNL     1       7.733  -0.144  26.286  0.00  0.00    +0.130 A 
ATOM      4  N   UNL     1       7.694   1.126  25.710  0.00  0.00    -0.218 N 
ATOM      5  N   UNL     1       7.447   2.070  26.670  0.00  0.00    -0.169 NA
ENDROOT
BRANCH   3   6
ATOM      6  N   UNL     1       8.147  -1.328  25.698  0.00  0.00    -0.254 N 
ATOM      7  H   UNL     1       9.086  -1.383  25.331  0.00  0.00    +0.158 HD
ATOM      8  C   UNL     1       7.201  -2.048  24.975  0.00  0.00    +0.309 C 
ATOM      9  N   UNL     1       7.752  -3.234  24.520  0.00  0.00    -0.269 N 
ATOM     10  H   UNL     1       8.397  -3.634  25.183  0.00  0.00    +0.156 HD
ATOM     11  O   UNL     1       6.049  -1.684  24.768  0.00  0.00    -0.252 OA
BRANCH   9  12
ATOM     12  C   UNL     1       6.998  -4.144  23.740  0.00  0.00    +0.042 A 
ATOM     13  C   UNL     1       7.124  -4.105  22.345  0.00  0.00    +0.024 A 
ATOM     14  C   UNL     1       6.447  -5.025  21.552  0.00  0.00    +0.002 A 
ATOM     15  C   UNL     1       5.628  -5.981  22.148  0.00  0.00    +0.008 A 
ATOM     16  C   UNL     1       5.461  -6.021  23.542  0.00  0.00    -0.016 A 
ATOM     17  C   UNL     1       4.585  -6.955  24.120  0.00  0.00    +0.008 A 
ATOM     18  C   UNL     1       4.360  -6.973  25.495  0.00  0.00    +0.001 A 
ATOM     19  C   UNL     1       5.017  -6.065  26.315  0.00  0.00    +0.001 A 
ATOM     20  C   UNL     1       5.906  -5.146  25.759  0.00  0.00    +0.010 A 
ATOM     21  C   UNL     1       6.154  -5.098  24.366  0.00  0.00    +0.003 A 
ENDBRANCH   9  12
ENDBRANCH   3   6
BRANCH   4  22
ATOM     22  C   UNL     1       7.771   1.528  24.336  0.00  0.00    +0.069 A 
ATOM     23  C   UNL     1       8.988   1.664  23.648  0.00  0.00    +0.050 A 
ATOM     24  C   UNL     1       9.026   1.983  22.284  0.00  0.00    +0.027 A 
ATOM     25  C   UNL     1       7.832   2.242  21.616  0.00  0.00    +0.023 A 
ATOM     26  C   UNL     1       6.611   2.089  22.272  0.00  0.00    +0.004 A 
ATOM     27  C   UNL     1       6.580   1.737  23.622  0.00  0.00    +0.028 A 
BRANCH  24  28
ATOM     28  N   UNL     1      10.257   2.257  21.667  0.00  0.00    -0.358 N 
ATOM     29  H   UNL     1      10.959   2.643  22.291  0.00  0.00    +0.142 HD
ATOM     30  H   UNL     1      10.620   1.475  21.129  0.00  0.00    +0.142 HD
ENDBRANCH  24  28
ENDBRANCH   4  22
BRANCH   1  32
ATOM     31  C   UNL     1       5.248   1.719  29.470  0.00  0.00    +0.017 C 
ATOM     32  C   UNL     1       6.690   2.082  29.058  0.00  0.00    +0.006 C 
ATOM     33  C   UNL     1       7.633   1.678  30.212  0.00  0.00    +0.017 C 
ATOM     34  C   UNL     1       6.761   3.615  28.880  0.00  0.00    +0.017 C 
ENDBRANCH   1  32
TORSDOF 5
ENDMDL
MODEL 2
REMARK VINA RESULT:      -6.9      2.690      7.246
REMARK  Name = 
REMARK  8 active torsions:
REMARK  status: ('A' for Active; 'I' for Inactive)
REMARK    1  A    between atoms: C_1  and  C_2
REMARK    2  A    between atoms: C_2  and  C_3
REMARK    3  A    between atoms: C_2  and  C_4
REMARK    4  A    between atoms: C_2  and  C_5
REMARK    5  A    between atoms: N_7  and  C_24
REMARK    6  A    between atoms: C_8  and  N_9
REMARK    7  A    between atoms: N_12  and  C_13
REMARK    8  A    between atoms: C_28  and  N_29
REMARK                            x       y       z     vdW  Elec       q    Type
REMARK                         _______ _______ _______ _____ _____    ______ ____
ROOT
ATOM      1  C   UNL     1       4.514  -3.600  27.485  0.00  0.00    +0.071 A 
ATOM      2  C   UNL     1       4.693  -2.312  26.944  0.00  0.00    +0.069 A 
ATOM      3  C   UNL     1       5.102  -2.502  25.644  0.00  0.00    +0.130 A 
ATOM      4  N   UNL     1       5.331  -3.871  25.505  0.00  0.00    -0.218 N 
ATOM      5  N   UNL     1       4.839  -4.543  26.591  0.00  0.00    -0.169 NA
ENDROOT
BRANCH   3   6
ATOM      6  N   UNL     1       5.266  -1.515  24.686  0.00  0.00    -0.254 N 
ATOM      7  H   UNL     1       4.697  -1.551  23.852  0.00  0.00    +0.158 HD
ATOM      8  C   UNL     1       6.554  -1.026  24.486  0.00  0.00    +0.309 C 
ATOM      9  N   UNL     1       6.533  -0.000  23.556  0.00  0.00    -0.269 N 
ATOM     10  H   UNL     1       5.706   0.571  23.636  0.00  0.00    +0.156 HD
ATOM     11  O   UNL     1       7.559  -1.445  25.046  0.00  0.00    -0.252 OA
BRANCH   9  12
ATOM     12  C   UNL     1       7.723   0.659  23.161  0.00  0.00    +0.042 A 
ATOM     13  C   UNL     1       8.539   0.057  22.194  0.00  0.00    +0.024 A 
ATOM     14  C   UNL     1       9.682   0.706  21.738  0.00  0.00    +0.002 A 
ATOM     15  C   UNL     1      10.023   1.954  22.256  0.00  0.00    +0.008 A 
ATOM     16  C   UNL     1       9.237   2.562  23.248  0.00  0.00    -0.016 A 
ATOM     17  C   UNL     1       9.630   3.793  23.799  0.00  0.00    +0.008 A 
ATOM     18  C   UNL     1       8.897   4.386  24.827  0.00  0.00    +0.001 A 
ATOM     19  C   UNL     1       7.754   3.762  25.309  0.00  0.00    +0.001 A 
ATOM     20  C   UNL     1       7.339   2.551  24.756  0.00  0.00    +0.010 A 
ATOM     21  C   UNL     1       8.063   1.920  23.715  0.00  0.00    +0.003 A 
ENDBRANCH   9  12
ENDBRANCH   3   6
BRANCH   4  22
ATOM     22  C   UNL     1       6.050  -4.598  24.499  0.00  0.00    +0.069 A 
ATOM     23  C   UNL     1       5.444  -5.086  23.331  0.00  0.00    +0.050 A 
ATOM     24  C   UNL     1       6.190  -5.724  22.331  0.00  0.00    +0.027 A 
ATOM     25  C   UNL     1       7.549  -5.943  22.536  0.00  0.00    +0.023 A 
ATOM     26  C   UNL     1       8.177  -5.446  23.678  0.00  0.00    +0.004 A 
ATOM     27  C   UNL     1       7.434  -4.780  24.653  0.00  0.00    +0.028 A 
BRANCH  24  28
ATOM     28  N   UNL     1       5.530  -6.329  21.249  0.00  0.00    -0.358 N 
ATOM     29  H   UNL     1       5.314  -7.311  21.389  0.00  0.00    +0.142 HD
ATOM     30  H   UNL     1       4.719  -5.807  20.929  0.00  0.00    +0.142 HD
ENDBRANCH  24  28
ENDBRANCH   4  22
BRANCH   1  32
ATOM     31  C   UNL     1       4.948  -4.893  29.634  0.00  0.00    +0.017 C 
ATOM     32  C   UNL     1       3.999  -3.943  28.874  0.00  0.00    +0.006 C 
ATOM     33  C   UNL     1       3.844  -2.654  29.708  0.00  0.00    +0.017 C 
ATOM     34  C   UNL     1       2.620  -4.631  28.772  0.00  0.00    +0.017 C 
ENDBRANCH   1  32
TORSDOF 5
ENDMDL
MODEL 3
REMARK VINA RESULT:      -6.9      2.809      8.338
REMARK  Name = 
REMARK  8 active torsions:
REMARK  status: ('A' for Active; 'I' for Inactive)
REMARK    1  A    between atoms: C_1  and  C_2
REMARK    2  A    between atoms: C_2  and  C_3
REMARK    3  A    between atoms: C_2  and  C_4
REMARK    4  A    between atoms: C_2  and  C_5
REMARK    5  A    between atoms: N_7  and  C_24
REMARK    6  A    between atoms: C_8  and  N_9
REMARK    7  A    between atoms: N_12  and  C_13
REMARK    8  A    between atoms: C_28  and  N_29
REMARK                            x       y       z     vdW  Elec       q    Type
REMARK                         _______ _______ _______ _____ _____    ______ ____
ROOT
ATOM      1  C   UNL     1       8.019  -3.086  25.011  0.00  0.00    +0.071 A 
ATOM      2  C   UNL     1       8.044  -2.207  23.911  0.00  0.00    +0.069 A 
ATOM      3  C   UNL     1       7.823  -0.950  24.427  0.00  0.00    +0.130 A 
ATOM      4  N   UNL     1       7.491  -1.135  25.770  0.00  0.00    -0.218 N 
ATOM      5  N   UNL     1       7.747  -2.426  26.144  0.00  0.00    -0.169 NA
ENDROOT
BRANCH   3   6
ATOM      6  N   UNL     1       7.899   0.245  23.731  0.00  0.00    -0.254 N 
ATOM      7  H   UNL     1       7.699   0.241  22.741  0.00  0.00    +0.158 HD
ATOM      8  C   UNL     1       8.884   1.149  24.118  0.00  0.00    +0.309 C 
ATOM      9  N   UNL     1       8.777   2.314  23.378  0.00  0.00    -0.269 N 
ATOM     10  H   UNL     1       7.818   2.556  23.183  0.00  0.00    +0.156 HD
ATOM     11  O   UNL     1       9.725   0.943  24.984  0.00  0.00    -0.252 OA
BRANCH   9  12
ATOM     12  C   UNL     1       9.676   3.392  23.568  0.00  0.00    +0.042 A 
ATOM     13  C   UNL     1      11.008   3.241  23.159  0.00  0.00    +0.024 A 
ATOM     14  C   UNL     1      11.902   4.300  23.273  0.00  0.00    +0.002 A 
ATOM     15  C   UNL     1      11.474   5.512  23.809  0.00  0.00    +0.008 A 
ATOM     16  C   UNL     1      10.152   5.678  24.255  0.00  0.00    -0.016 A 
ATOM     17  C   UNL     1       9.756   6.888  24.846  0.00  0.00    +0.008 A 
ATOM     18  C   UNL     1       8.466   7.053  25.349  0.00  0.00    +0.001 A 
ATOM     19  C   UNL     1       7.550   6.014  25.256  0.00  0.00    +0.001 A 
ATOM     20  C   UNL     1       7.922   4.814  24.651  0.00  0.00    +0.010 A 
ATOM     21  C   UNL     1       9.225   4.612  24.134  0.00  0.00    +0.003 A 
ENDBRANCH   9  12
ENDBRANCH   3   6
BRANCH   4  22
ATOM     22  C   UNL     1       6.870  -0.244  26.707  0.00  0.00    +0.069 A 
ATOM     23  C   UNL     1       7.580   0.400  27.732  0.00  0.00    +0.050 A 
ATOM     24  C   UNL     1       6.959   1.325  28.583  0.00  0.00    +0.027 A 
ATOM     25  C   UNL     1       5.592   1.552  28.453  0.00  0.00    +0.023 A 
ATOM     26  C   UNL     1       4.872   0.941  27.426  0.00  0.00    +0.004 A 
ATOM     27  C   UNL     1       5.504   0.048  26.561  0.00  0.00    +0.028 A 
BRANCH  24  28
ATOM     28  N   UNL     1       7.660   1.836  29.687  0.00  0.00    -0.358 N 
ATOM     29  H   UNL     1       8.562   1.398  29.846  0.00  0.00    +0.142 HD
ATOM     30  H   UNL     1       7.729   2.849  29.686  0.00  0.00    +0.142 HD
ENDBRANCH  24  28
ENDBRANCH   4  22
BRANCH   1  32
ATOM     31  C   UNL     1       9.768  -4.923  25.226  0.00  0.00    +0.017 C 
ATOM     32  C   UNL     1       8.282  -4.584  24.987  0.00  0.00    +0.006 C 
ATOM     33  C   UNL     1       7.451  -5.279  26.087  0.00  0.00    +0.017 C 
ATOM     34  C   UNL     1       7.875  -5.171  23.618  0.00  0.00    +0.017 C 
ENDBRANCH   1  32
TORSDOF 5
ENDMDL
MODEL 4
REMARK VINA RESULT:      -6.8      1.248      2.510
REMARK  Name = 
REMARK  8 active torsions:
REMARK  status: ('A' for Active; 'I' for Inactive)
REMARK    1  A    between atoms: C_1  and  C_2
REMARK    2  A    between atoms: C_2  and  C_3
REMARK    3  A    between atoms: C_2  and  C_4
REMARK    4  A    between atoms: C_2  and  C_5
REMARK    5  A    between atoms: N_7  and  C_24
REMARK    6  A    between atoms: C_8  and  N_9
REMARK    7  A    between atoms: N_12  and  C_13
REMARK    8  A    between atoms: C_28  and  N_29
REMARK                            x       y       z     vdW  Elec       q    Type
REMARK                         _______ _______ _______ _____ _____    ______ ____
ROOT
ATOM      1  C   UNL     1       7.038   1.985  27.152  0.00  0.00    +0.071 A 
ATOM      2  C   UNL     1       6.954   0.607  27.430  0.00  0.00    +0.069 A 
ATOM      3  C   UNL     1       7.636  -0.025  26.414  0.00  0.00    +0.130 A 
ATOM      4  N   UNL     1       7.939   0.963  25.477  0.00  0.00    -0.218 N 
ATOM      5  N   UNL     1       7.690   2.202  26.003  0.00  0.00    -0.169 NA
ENDROOT
BRANCH   3   6
ATOM      6  N   UNL     1       7.932  -1.376  26.345  0.00  0.00    -0.254 N 
ATOM      7  H   UNL     1       8.871  -1.654  26.099  0.00  0.00    +0.158 HD
ATOM      8  C   UNL     1       6.936  -2.226  25.871  0.00  0.00    +0.309 C 
ATOM      9  N   UNL     1       7.364  -3.541  25.937  0.00  0.00    -0.269 N 
ATOM     10  H   UNL     1       7.932  -3.718  26.750  0.00  0.00    +0.156 HD
ATOM     11  O   UNL     1       5.843  -1.863  25.454  0.00  0.00    -0.252 OA
BRANCH   9  12
ATOM     12  C   UNL     1       6.538  -4.605  25.496  0.00  0.00    +0.042 A 
ATOM     13  C   UNL     1       5.801  -5.326  26.446  0.00  0.00    +0.024 A 
ATOM     14  C   UNL     1       4.934  -6.335  26.042  0.00  0.00    +0.002 A 
ATOM     15  C   UNL     1       4.809  -6.640  24.688  0.00  0.00    +0.008 A 
ATOM     16  C   UNL     1       5.560  -5.953  23.721  0.00  0.00    -0.016 A 
ATOM     17  C   UNL     1       5.463  -6.314  22.368  0.00  0.00    +0.008 A 
ATOM     18  C   UNL     1       6.244  -5.685  21.399  0.00  0.00    +0.001 A 
ATOM     19  C   UNL     1       7.124  -4.677  21.768  0.00  0.00    +0.001 A 
ATOM     20  C   UNL     1       7.215  -4.291  23.105  0.00  0.00    +0.010 A 
ATOM     21  C   UNL     1       6.440  -4.913  24.114  0.00  0.00    +0.003 A 
ENDBRANCH   9  12
ENDBRANCH   3   6
BRANCH   4  22
ATOM     22  C   UNL     1       8.350   0.854  24.107  0.00  0.00    +0.069 A 
ATOM     23  C   UNL     1       9.033  -0.264  23.603  0.00  0.00    +0.050 A 
ATOM     24  C   UNL     1       9.351  -0.374  22.243  0.00  0.00    +0.027 A 
ATOM     25  C   UNL     1       9.046   0.681  21.389  0.00  0.00    +0.023 A 
ATOM     26  C   UNL     1       8.347   1.790  21.862  0.00  0.00    +0.004 A 
ATOM     27  C   UNL     1       8.002   1.878  23.212  0.00  0.00    +0.028 A 
BRANCH  24  28
ATOM     28  N   UNL     1      10.162  -1.432  21.801  0.00  0.00    -0.358 N 
ATOM     29  H   UNL     1      11.139  -1.184  21.679  0.00  0.00    +0.142 HD
ATOM     30  H   UNL     1      10.055  -2.279  22.351  0.00  0.00    +0.142 HD
ENDBRANCH  24  28
ENDBRANCH   4  22
BRANCH   1  32
ATOM     31  C   UNL     1       6.929   4.507  27.478  0.00  0.00    +0.017 C 
ATOM     32  C   UNL     1       6.506   3.122  28.011  0.00  0.00    +0.006 C 
ATOM     33  C   UNL     1       4.964   3.075  28.048  0.00  0.00    +0.017 C 
ATOM     34  C   UNL     1       7.037   2.987  29.455  0.00  0.00    +0.017 C 
ENDBRANCH   1  32
TORSDOF 5
ENDMDL
MODEL 5
REMARK VINA RESULT:      -6.6      2.215      7.642
REMARK  Name = 
REMARK  8 active torsions:
REMARK  status: ('A' for Active; 'I' for Inactive)
REMARK    1  A    between atoms: C_1  and  C_2
REMARK    2  A    between atoms: C_2  and  C_3
REMARK    3  A    between atoms: C_2  and  C_4
REMARK    4  A    between atoms: C_2  and  C_5
REMARK    5  A    between atoms: N_7  and  C_24
REMARK    6  A    between atoms: C_8  and  N_9
REMARK    7  A    between atoms: N_12  and  C_13
REMARK    8  A    between atoms: C_28  and  N_29
REMARK                            x       y       z     vdW  Elec       q    Type
REMARK                         _______ _______ _______ _____ _____    ______ ____
ROOT
ATOM      1  C   UNL     1       8.297  -3.259  25.165  0.00  0.00    +0.071 A 
ATOM      2  C   UNL     1       8.385  -2.527  26.364  0.00  0.00    +0.069 A 
ATOM      3  C   UNL     1       8.472  -1.204  25.994  0.00  0.00    +0.130 A 
ATOM      4  N   UNL     1       8.619  -1.199  24.606  0.00  0.00    -0.218 N 
ATOM      5  N   UNL     1       8.374  -2.448  24.102  0.00  0.00    -0.169 NA
ENDROOT
BRANCH   3   6
ATOM      6  N   UNL     1       8.438  -0.113  26.846  0.00  0.00    -0.254 N 
ATOM      7  H   UNL     1       8.760  -0.230  27.795  0.00  0.00    +0.158 HD
ATOM      8  C   UNL     1       7.379   0.779  26.701  0.00  0.00    +0.309 C 
ATOM      9  N   UNL     1       7.534   1.845  27.571  0.00  0.00    -0.269 N 
ATOM     10  H   UNL     1       8.500   2.112  27.680  0.00  0.00    +0.156 HD
ATOM     11  O   UNL     1       6.445   0.639  25.921  0.00  0.00    -0.252 OA
BRANCH   9  12
ATOM     12  C   UNL     1       6.578   2.889  27.633  0.00  0.00    +0.042 A 
ATOM     13  C   UNL     1       5.500   2.765  28.519  0.00  0.00    +0.024 A 
ATOM     14  C   UNL     1       4.577   3.798  28.651  0.00  0.00    +0.002 A 
ATOM     15  C   UNL     1       4.720   4.955  27.888  0.00  0.00    +0.008 A 
ATOM     16  C   UNL     1       5.775   5.089  26.970  0.00  0.00    -0.016 A 
ATOM     17  C   UNL     1       5.868   6.238  26.168  0.00  0.00    +0.008 A 
ATOM     18  C   UNL     1       6.872   6.366  25.210  0.00  0.00    +0.001 A 
ATOM     19  C   UNL     1       7.806   5.351  25.049  0.00  0.00    +0.001 A 
ATOM     20  C   UNL     1       7.740   4.214  25.853  0.00  0.00    +0.010 A 
ATOM     21  C   UNL     1       6.731   4.051  26.832  0.00  0.00    +0.003 A 
ENDBRANCH   9  12
ENDBRANCH   3   6
BRANCH   4  22
ATOM     22  C   UNL     1       9.060  -0.160  23.721  0.00  0.00    +0.069 A 
ATOM     23  C   UNL     1       9.847   0.922  24.145  0.00  0.00    +0.050 A 
ATOM     24  C   UNL     1      10.326   1.878  23.240  0.00  0.00    +0.027 A 
ATOM     25  C   UNL     1       9.951   1.791  21.903  0.00  0.00    +0.023 A 
ATOM     26  C   UNL     1       9.191   0.712  21.454  0.00  0.00    +0.004 A 
ATOM     27  C   UNL     1       8.746  -0.256  22.355  0.00  0.00    +0.028 A 
BRANCH  24  28
ATOM     28  N   UNL     1      10.982   3.024  23.719  0.00  0.00    -0.358 N 
ATOM     29  H   UNL     1      11.414   2.906  24.630  0.00  0.00    +0.142 HD
ATOM     30  H   UNL     1      11.626   3.430  23.047  0.00  0.00    +0.142 HD
ENDBRANCH  24  28
ENDBRANCH   4  22
BRANCH   1  32
ATOM     31  C   UNL     1       9.415  -5.543  25.290  0.00  0.00    +0.017 C 
ATOM     32  C   UNL     1       8.110  -4.762  25.024  0.00  0.00    +0.006 C 
ATOM     33  C   UNL     1       7.046  -5.254  26.028  0.00  0.00    +0.017 C 
ATOM     34  C   UNL     1       7.635  -5.105  23.596  0.00  0.00    +0.017 C 
ENDBRANCH   1  32
TORSDOF 5
ENDMDL
MODEL 6
REMARK VINA RESULT:      -6.6      2.811      7.123
REMARK  Name = 
REMARK  8 active torsions:
REMARK  status: ('A' for Active; 'I' for Inactive)
REMARK    1  A    between atoms: C_1  and  C_2
REMARK    2  A    between atoms: C_2  and  C_3
REMARK    3  A    between atoms: C_2  and  C_4
REMARK    4  A    between atoms: C_2  and  C_5
REMARK    5  A    between atoms: N_7  and  C_24
REMARK    6  A    between atoms: C_8  and  N_9
REMARK    7  A    between atoms: N_12  and  C_13
REMARK    8  A    between atoms: C_28  and  N_29
REMARK                            x       y       z     vdW  Elec       q    Type
REMARK                         _______ _______ _______ _____ _____    ______ ____
ROOT
ATOM      1  C   UNL     1       3.881  -4.682  27.846  0.00  0.00    +0.071 A 
ATOM      2  C   UNL     1       4.313  -3.375  28.144  0.00  0.00    +0.069 A 
ATOM      3  C   UNL     1       5.275  -3.073  27.208  0.00  0.00    +0.130 A 
ATOM      4  N   UNL     1       5.519  -4.254  26.507  0.00  0.00    -0.218 N 
ATOM      5  N   UNL     1       4.567  -5.189  26.814  0.00  0.00    -0.169 NA
ENDROOT
BRANCH   3   6
ATOM      6  N   UNL     1       5.882  -1.841  27.028  0.00  0.00    -0.254 N 
ATOM      7  H   UNL     1       5.971  -1.225  27.823  0.00  0.00    +0.158 HD
ATOM      8  C   UNL     1       5.664  -1.192  25.816  0.00  0.00    +0.309 C 
ATOM      9  N   UNL     1       6.397  -0.018  25.768  0.00  0.00    -0.269 N 
ATOM     10  H   UNL     1       7.294  -0.109  26.220  0.00  0.00    +0.156 HD
ATOM     11  O   UNL     1       4.929  -1.597  24.924  0.00  0.00    -0.252 OA
BRANCH   9  12
ATOM     12  C   UNL     1       6.338   0.841  24.642  0.00  0.00    +0.042 A 
ATOM     13  C   UNL     1       5.299   1.777  24.561  0.00  0.00    +0.024 A 
ATOM     14  C   UNL     1       5.247   2.677  23.502  0.00  0.00    +0.002 A 
ATOM     15  C   UNL     1       6.225   2.637  22.511  0.00  0.00    +0.008 A 
ATOM     16  C   UNL     1       7.258   1.687  22.554  0.00  0.00    -0.016 A 
ATOM     17  C   UNL     1       8.200   1.624  21.515  0.00  0.00    +0.008 A 
ATOM     18  C   UNL     1       9.199   0.651  21.508  0.00  0.00    +0.001 A 
ATOM     19  C   UNL     1       9.277  -0.265  22.548  0.00  0.00    +0.001 A 
ATOM     20  C   UNL     1       8.362  -0.202  23.599  0.00  0.00    +0.010 A 
ATOM     21  C   UNL     1       7.333   0.770  23.633  0.00  0.00    +0.003 A 
ENDBRANCH   9  12
ENDBRANCH   3   6
BRANCH   4  22
ATOM     22  C   UNL     1       6.610  -4.621  25.651  0.00  0.00    +0.069 A 
ATOM     23  C   UNL     1       7.901  -4.888  26.132  0.00  0.00    +0.050 A 
ATOM     24  C   UNL     1       8.925  -5.320  25.280  0.00  0.00    +0.027 A 
ATOM     25  C   UNL     1       8.674  -5.415  23.914  0.00  0.00    +0.023 A 
ATOM     26  C   UNL     1       7.393  -5.179  23.416  0.00  0.00    +0.004 A 
ATOM     27  C   UNL     1       6.368  -4.783  24.276  0.00  0.00    +0.028 A 
BRANCH  24  28
ATOM     28  N   UNL     1      10.237  -5.433  25.768  0.00  0.00    -0.358 N 
ATOM     29  H   UNL     1      10.435  -6.316  26.229  0.00  0.00    +0.142 HD
ATOM     30  H   UNL     1      10.945  -5.201  25.078  0.00  0.00    +0.142 HD
ENDBRANCH  24  28
ENDBRANCH   4  22
BRANCH   1  32
ATOM     31  C   UNL     1       2.025  -6.405  27.581  0.00  0.00    +0.017 C 
ATOM     32  C   UNL     1       2.774  -5.458  28.543  0.00  0.00    +0.006 C 
ATOM     33  C   UNL     1       3.369  -6.310  29.684  0.00  0.00    +0.017 C 
ATOM     34  C   UNL     1       1.741  -4.481  29.146  0.00  0.00    +0.017 C 
ENDBRANCH   1  32
TORSDOF 5
ENDMDL
MODEL 7
REMARK VINA RESULT:      -6.6      3.310      8.632
REMARK  Name = 
REMARK  8 active torsions:
REMARK  status: ('A' for Active; 'I' for Inactive)
REMARK    1  A    between atoms: C_1  and  C_2
REMARK    2  A    between atoms: C_2  and  C_3
REMARK    3  A    between atoms: C_2  and  C_4
REMARK    4  A    between atoms: C_2  and  C_5
REMARK    5  A    between atoms: N_7  and  C_24
REMARK    6  A    between atoms: C_8  and  N_9
REMARK    7  A    between atoms: N_12  and  C_13
REMARK    8  A    between atoms: C_28  and  N_29
REMARK                            x       y       z     vdW  Elec       q    Type
REMARK                         _______ _______ _______ _____ _____    ______ ____
ROOT
ATOM      1  C   UNL     1       2.650  -6.223  24.346  0.00  0.00    +0.071 A 
ATOM      2  C   UNL     1       3.784  -5.625  23.762  0.00  0.00    +0.069 A 
ATOM      3  C   UNL     1       4.739  -5.581  24.752  0.00  0.00    +0.130 A 
ATOM      4  N   UNL     1       4.099  -5.974  25.927  0.00  0.00    -0.218 N 
ATOM      5  N   UNL     1       2.865  -6.492  25.640  0.00  0.00    -0.169 NA
ENDROOT
BRANCH   3   6
ATOM      6  N   UNL     1       6.062  -5.200  24.595  0.00  0.00    -0.254 N 
ATOM      7  H   UNL     1       6.786  -5.877  24.785  0.00  0.00    +0.158 HD
ATOM      8  C   UNL     1       6.393  -3.890  24.929  0.00  0.00    +0.309 C 
ATOM      9  N   UNL     1       7.727  -3.651  24.645  0.00  0.00    -0.269 N 
ATOM     10  H   UNL     1       8.031  -4.126  23.810  0.00  0.00    +0.156 HD
ATOM     11  O   UNL     1       5.620  -3.070  25.409  0.00  0.00    -0.252 OA
BRANCH   9  12
ATOM     12  C   UNL     1       8.321  -2.392  24.911  0.00  0.00    +0.042 A 
ATOM     13  C   UNL     1       8.411  -1.954  26.238  0.00  0.00    +0.024 A 
ATOM     14  C   UNL     1       9.045  -0.753  26.540  0.00  0.00    +0.002 A 
ATOM     15  C   UNL     1       9.579   0.024  25.515  0.00  0.00    +0.008 A 
ATOM     16  C   UNL     1       9.474  -0.379  24.173  0.00  0.00    -0.016 A 
ATOM     17  C   UNL     1       9.968   0.446  23.150  0.00  0.00    +0.008 A 
ATOM     18  C   UNL     1       9.821   0.093  21.809  0.00  0.00    +0.001 A 
ATOM     19  C   UNL     1       9.190  -1.097  21.473  0.00  0.00    +0.001 A 
ATOM     20  C   UNL     1       8.714  -1.938  22.479  0.00  0.00    +0.010 A 
ATOM     21  C   UNL     1       8.843  -1.607  23.850  0.00  0.00    +0.003 A 
ENDBRANCH   9  12
ENDBRANCH   3   6
BRANCH   4  22
ATOM     22  C   UNL     1       4.493  -5.824  27.298  0.00  0.00    +0.069 A 
ATOM     23  C   UNL     1       5.460  -6.639  27.907  0.00  0.00    +0.050 A 
ATOM     24  C   UNL     1       5.880  -6.416  29.225  0.00  0.00    +0.027 A 
ATOM     25  C   UNL     1       5.270  -5.410  29.968  0.00  0.00    +0.023 A 
ATOM     26  C   UNL     1       4.325  -4.573  29.377  0.00  0.00    +0.004 A 
ATOM     27  C   UNL     1       3.937  -4.778  28.053  0.00  0.00    +0.028 A 
BRANCH  24  28
ATOM     28  N   UNL     1       6.736  -7.339  29.849  0.00  0.00    -0.358 N 
ATOM     29  H   UNL     1       7.515  -6.916  30.343  0.00  0.00    +0.142 HD
ATOM     30  H   UNL     1       6.245  -8.015  30.428  0.00  0.00    +0.142 HD
ENDBRANCH  24  28
ENDBRANCH   4  22
BRANCH   1  32
ATOM     31  C   UNL     1       0.553  -5.311  23.228  0.00  0.00    +0.017 C 
ATOM     32  C   UNL     1       1.341  -6.568  23.652  0.00  0.00    +0.006 C 
ATOM     33  C   UNL     1       1.624  -7.405  22.387  0.00  0.00    +0.017 C 
ATOM     34  C   UNL     1       0.444  -7.394  24.598  0.00  0.00    +0.017 C 
ENDBRANCH   1  32
TORSDOF 5
ENDMDL
MODEL 8
REMARK VINA RESULT:      -6.5      2.850      5.310
REMARK  Name = 
REMARK  8 active torsions:
REMARK  status: ('A' for Active; 'I' for Inactive)
REMARK    1  A    between atoms: C_1  and  C_2
REMARK    2  A    between atoms: C_2  and  C_3
REMARK    3  A    between atoms: C_2  and  C_4
REMARK    4  A    between atoms: C_2  and  C_5
REMARK    5  A    between atoms: N_7  and  C_24
REMARK    6  A    between atoms: C_8  and  N_9
REMARK    7  A    between atoms: N_12  and  C_13
REMARK    8  A    between atoms: C_28  and  N_29
REMARK                            x       y       z     vdW  Elec       q    Type
REMARK                         _______ _______ _______ _____ _____    ______ ____
ROOT
ATOM      1  C   UNL     1       9.196  -0.287  24.240  0.00  0.00    +0.071 A 
ATOM      2  C   UNL     1       8.826  -0.807  25.495  0.00  0.00    +0.069 A 
ATOM      3  C   UNL     1       8.337  -2.071  25.250  0.00  0.00    +0.130 A 
ATOM      4  N   UNL     1       8.257  -2.194  23.863  0.00  0.00    -0.218 N 
ATOM      5  N   UNL     1       8.910  -1.153  23.260  0.00  0.00    -0.169 NA
ENDROOT
BRANCH   3   6
ATOM      6  N   UNL     1       7.982  -3.009  26.205  0.00  0.00    -0.254 N 
ATOM      7  H   UNL     1       8.566  -3.824  26.323  0.00  0.00    +0.158 HD
ATOM      8  C   UNL     1       6.624  -3.238  26.403  0.00  0.00    +0.309 C 
ATOM      9  N   UNL     1       6.440  -4.141  27.436  0.00  0.00    -0.269 N 
ATOM     10  H   UNL     1       7.117  -4.021  28.174  0.00  0.00    +0.156 HD
ATOM     11  O   UNL     1       5.723  -2.720  25.755  0.00  0.00    -0.252 OA
BRANCH   9  12
ATOM     12  C   UNL     1       5.144  -4.558  27.827  0.00  0.00    +0.042 A 
ATOM     13  C   UNL     1       4.573  -3.999  28.978  0.00  0.00    +0.024 A 
ATOM     14  C   UNL     1       3.278  -4.338  29.356  0.00  0.00    +0.002 A 
ATOM     15  C   UNL     1       2.551  -5.249  28.592  0.00  0.00    +0.008 A 
ATOM     16  C   UNL     1       3.113  -5.846  27.452  0.00  0.00    -0.016 A 
ATOM     17  C   UNL     1       2.385  -6.805  26.730  0.00  0.00    +0.008 A 
ATOM     18  C   UNL     1       2.946  -7.454  25.630  0.00  0.00    +0.001 A 
ATOM     19  C   UNL     1       4.238  -7.142  25.229  0.00  0.00    +0.001 A 
ATOM     20  C   UNL     1       4.965  -6.175  25.923  0.00  0.00    +0.010 A 
ATOM     21  C   UNL     1       4.427  -5.502  27.046  0.00  0.00    +0.003 A 
ENDBRANCH   9  12
ENDBRANCH   3   6
BRANCH   4  22
ATOM     22  C   UNL     1       7.547  -3.140  23.051  0.00  0.00    +0.069 A 
ATOM     23  C   UNL     1       7.827  -4.516  23.063  0.00  0.00    +0.050 A 
ATOM     24  C   UNL     1       7.063  -5.423  22.316  0.00  0.00    +0.027 A 
ATOM     25  C   UNL     1       6.054  -4.939  21.490  0.00  0.00    +0.023 A 
ATOM     26  C   UNL     1       5.743  -3.580  21.481  0.00  0.00    +0.004 A 
ATOM     27  C   UNL     1       6.484  -2.686  22.254  0.00  0.00    +0.028 A 
BRANCH  24  28
ATOM     28  N   UNL     1       7.463  -6.767  22.235  0.00  0.00    -0.358 N 
ATOM     29  H   UNL     1       8.462  -6.898  22.115  0.00  0.00    +0.142 HD
ATOM     30  H   UNL     1       7.095  -7.343  22.987  0.00  0.00    +0.142 HD
ENDBRANCH  24  28
ENDBRANCH   4  22
BRANCH   1  32
ATOM     31  C   UNL     1      11.312   1.107  24.485  0.00  0.00    +0.017 C 
ATOM     32  C   UNL     1       9.859   1.055  23.968  0.00  0.00    +0.006 C 
ATOM     33  C   UNL     1       9.881   1.330  22.450  0.00  0.00    +0.017 C 
ATOM     34  C   UNL     1       9.068   2.185  24.661  0.00  0.00    +0.017 C 
ENDBRANCH   1  32
TORSDOF 5
ENDMDL
MODEL 9
REMARK VINA RESULT:      -6.5      1.548      4.176
REMARK  Name = 
REMARK  8 active torsions:
REMARK  status: ('A' for Active; 'I' for Inactive)
REMARK    1  A    between atoms: C_1  and  C_2
REMARK    2  A    between atoms: C_2  and  C_3
REMARK    3  A    between atoms: C_2  and  C_4
REMARK    4  A    between atoms: C_2  and  C_5
REMARK    5  A    between atoms: N_7  and  C_24
REMARK    6  A    between atoms: C_8  and  N_9
REMARK    7  A    between atoms: N_12  and  C_13
REMARK    8  A    between atoms: C_28  and  N_29
REMARK                            x       y       z     vdW  Elec       q    Type
REMARK                         _______ _______ _______ _____ _____    ______ ____
ROOT
ATOM      1  C   UNL     1       8.662   2.339  24.585  0.00  0.00    +0.071 A 
ATOM      2  C   UNL     1       9.275   1.077  24.466  0.00  0.00    +0.069 A 
ATOM      3  C   UNL     1       8.462   0.196  25.142  0.00  0.00    +0.130 A 
ATOM      4  N   UNL     1       7.502   0.974  25.791  0.00  0.00    -0.218 N 
ATOM      5  N   UNL     1       7.554   2.263  25.334  0.00  0.00    -0.169 NA
ENDROOT
BRANCH   3   6
ATOM      6  N   UNL     1       8.598  -1.182  25.174  0.00  0.00    -0.254 N 
ATOM      7  H   UNL     1       9.521  -1.574  25.291  0.00  0.00    +0.158 HD
ATOM      8  C   UNL     1       7.753  -1.927  24.357  0.00  0.00    +0.309 C 
ATOM      9  N   UNL     1       7.965  -3.280  24.563  0.00  0.00    -0.269 N 
ATOM     10  H   UNL     1       8.167  -3.492  25.527  0.00  0.00    +0.156 HD
ATOM     11  O   UNL     1       6.944  -1.456  23.567  0.00  0.00    -0.252 OA
BRANCH   9  12
ATOM     12  C   UNL     1       7.239  -4.257  23.837  0.00  0.00    +0.042 A 
ATOM     13  C   UNL     1       7.531  -4.445  22.480  0.00  0.00    +0.024 A 
ATOM     14  C   UNL     1       6.882  -5.438  21.753  0.00  0.00    +0.002 A 
ATOM     15  C   UNL     1       5.928  -6.239  22.376  0.00  0.00    +0.008 A 
ATOM     16  C   UNL     1       5.596  -6.049  23.727  0.00  0.00    -0.016 A 
ATOM     17  C   UNL     1       4.590  -6.828  24.321  0.00  0.00    +0.008 A 
ATOM     18  C   UNL     1       4.204  -6.616  25.644  0.00  0.00    +0.001 A 
ATOM     19  C   UNL     1       4.828  -5.629  26.396  0.00  0.00    +0.001 A 
ATOM     20  C   UNL     1       5.844  -4.863  25.827  0.00  0.00    +0.010 A 
ATOM     21  C   UNL     1       6.257  -5.050  24.486  0.00  0.00    +0.003 A 
ENDBRANCH   9  12
ENDBRANCH   3   6
BRANCH   4  22
ATOM     22  C   UNL     1       6.608   0.647  26.864  0.00  0.00    +0.069 A 
ATOM     23  C   UNL     1       6.749   1.168  28.160  0.00  0.00    +0.050 A 
ATOM     24  C   UNL     1       5.814   0.890  29.165  0.00  0.00    +0.027 A 
ATOM     25  C   UNL     1       4.764   0.019  28.891  0.00  0.00    +0.023 A 
ATOM     26  C   UNL     1       4.591  -0.492  27.605  0.00  0.00    +0.004 A 
ATOM     27  C   UNL     1       5.506  -0.183  26.599  0.00  0.00    +0.028 A 
BRANCH  24  28
ATOM     28  N   UNL     1       6.064   1.305  30.483  0.00  0.00    -0.358 N 
ATOM     29  H   UNL     1       6.269   2.295  30.576  0.00  0.00    +0.142 HD
ATOM     30  H   UNL     1       5.352   1.005  31.143  0.00  0.00    +0.142 HD
ENDBRANCH  24  28
ENDBRANCH   4  22
BRANCH   1  32
ATOM     31  C   UNL     1       9.017   4.837  24.925  0.00  0.00    +0.017 C 
ATOM     32  C   UNL     1       9.125   3.642  23.954  0.00  0.00    +0.006 C 
ATOM     33  C   UNL     1      10.599   3.516  23.514  0.00  0.00    +0.017 C 
ATOM     34  C   UNL     1       8.267   3.962  22.710  0.00  0.00    +0.017 C 
ENDBRANCH   1  32
TORSDOF 5
ENDMDL
