MODEL 1
REMARK VINA RESULT:      -7.3      0.000      0.000
REMARK  Name = 
REMARK  5 active torsions:
REMARK  status: ('A' for Active; 'I' for Inactive)
REMARK    1  A    between atoms: C_1  and  O_2
REMARK    2  A    between atoms: O_2  and  C_3
REMARK    3  A    between atoms: C_6  and  O_7
REMARK    4  A    between atoms: C_9  and  N_10
REMARK    5  A    between atoms: C_14  and  C_16
REMARK                            x       y       z     vdW  Elec       q    Type
REMARK                         _______ _______ _______ _____ _____    ______ ____
ROOT
ATOM      1  N   UNL     1       6.857  -3.916  24.323  0.00  0.00    -0.266 N 
ATOM      2  H   UNL     1       6.381  -3.030  24.157  0.00  0.00    +0.156 HD
ATOM      3  C   UNL     1       8.220  -3.922  24.167  0.00  0.00    +0.310 C 
ATOM      4  N   UNL     1       8.812  -2.691  23.990  0.00  0.00    -0.236 N 
ATOM      5  H   UNL     1       9.800  -2.766  23.796  0.00  0.00    +0.159 HD
ATOM      6  C   UNL     1       8.218  -1.445  24.019  0.00  0.00    +0.253 C 
ATOM      7  O   UNL     1       7.037  -1.268  24.317  0.00  0.00    -0.270 OA
ATOM      8  O   UNL     1       8.954  -4.908  24.151  0.00  0.00    -0.252 OA
ENDROOT
BRANCH   6   9
ATOM      9  C   UNL     1       9.046  -0.252  23.702  0.00  0.00    +0.056 A 
ATOM     10  C   UNL     1       9.515   0.091  22.425  0.00  0.00    +0.056 A 
ATOM     11 CL   UNL     1       9.340  -0.929  21.041  0.00  0.00    -0.083 Cl
ATOM     12  C   UNL     1      10.124   1.333  22.214  0.00  0.00    +0.059 A 
ATOM     13  C   UNL     1      10.274   2.221  23.274  0.00  0.00    +0.125 A 
ATOM     14  F   UNL     1      10.814   3.426  23.052  0.00  0.00    -0.205 F 
ATOM     15  C   UNL     1       9.858   1.883  24.553  0.00  0.00    +0.039 A 
ATOM     16  C   UNL     1       9.245   0.650  24.768  0.00  0.00    +0.017 A 
ENDBRANCH   6   9
BRANCH   1  18
ATOM     17  C   UNL     1       5.183  -5.506  23.557  0.00  0.00    +0.141 A 
ATOM     18  C   UNL     1       6.011  -5.013  24.597  0.00  0.00    +0.080 A 
ATOM     19  C   UNL     1       5.939  -5.605  25.859  0.00  0.00    +0.072 A 
ATOM     20  C   UNL     1       5.074  -6.669  26.089  0.00  0.00    +0.119 A 
ATOM     21  C   UNL     1       4.283  -7.178  25.069  0.00  0.00    +0.049 A 
ATOM     22  C   UNL     1       4.345  -6.599  23.800  0.00  0.00    +0.051 A 
BRANCH  17  24
ATOM     23  C   UNL     1       6.045  -5.522  21.332  0.00  0.00    +0.277 C 
ATOM     24  O   UNL     1       5.284  -4.865  22.343  0.00  0.00    -0.493 OA
ENDBRANCH  17  24
BRANCH  20  25
ATOM     25  O   UNL     1       5.030  -7.188  27.349  0.00  0.00    -0.507 OA
ATOM     26  H   UNL     1       5.917  -7.501  27.592  0.00  0.00    +0.292 HD
ENDBRANCH  20  25
ENDBRANCH   1  18
TORSDOF 4
ENDMDL
MODEL 2
REMARK VINA RESULT:      -7.0      2.800      3.796
REMARK  Name = 
REMARK  5 active torsions:
REMARK  status: ('A' for Active; 'I' for Inactive)
REMARK    1  A    between atoms: C_1  and  O_2
REMARK    2  A    between atoms: O_2  and  C_3
REMARK    3  A    between atoms: C_6  and  O_7
REMARK    4  A    between atoms: C_9  and  N_10
REMARK    5  A    between atoms: C_14  and  C_16
REMARK                            x       y       z     vdW  Elec       q    Type
REMARK                         _______ _______ _______ _____ _____    ______ ____
ROOT
ATOM      1  N   UNL     1       9.060  -1.521  23.855  0.00  0.00    -0.266 N 
ATOM      2  H   UNL     1       8.610  -0.880  24.509  0.00  0.00    +0.156 HD
ATOM      3  C   UNL     1       9.810  -0.953  22.856  0.00  0.00    +0.310 C 
ATOM      4  N   UNL     1      10.026   0.403  22.960  0.00  0.00    -0.236 N 
ATOM      5  H   UNL     1      10.509   0.775  22.155  0.00  0.00    +0.159 HD
ATOM      6  C   UNL     1       9.644   1.253  23.977  0.00  0.00    +0.253 C 
ATOM      7  O   UNL     1       9.116   0.865  25.019  0.00  0.00    -0.270 OA
ATOM      8  O   UNL     1      10.286  -1.527  21.879  0.00  0.00    -0.252 OA
ENDROOT
BRANCH   6   9
ATOM      9  C   UNL     1       9.904   2.709  23.826  0.00  0.00    +0.056 A 
ATOM     10  C   UNL     1       8.996   3.730  24.145  0.00  0.00    +0.056 A 
ATOM     11 CL   UNL     1       7.357   3.437  24.607  0.00  0.00    -0.083 Cl
ATOM     12  C   UNL     1       9.416   5.065  24.140  0.00  0.00    +0.059 A 
ATOM     13  C   UNL     1      10.729   5.379  23.808  0.00  0.00    +0.125 A 
ATOM     14  F   UNL     1      11.134   6.654  23.853  0.00  0.00    -0.205 F 
ATOM     15  C   UNL     1      11.630   4.388  23.446  0.00  0.00    +0.039 A 
ATOM     16  C   UNL     1      11.219   3.056  23.455  0.00  0.00    +0.017 A 
ENDBRANCH   6   9
BRANCH   1  18
ATOM     17  C   UNL     1       7.555  -3.393  23.479  0.00  0.00    +0.141 A 
ATOM     18  C   UNL     1       8.753  -2.886  24.041  0.00  0.00    +0.080 A 
ATOM     19  C   UNL     1       9.570  -3.742  24.783  0.00  0.00    +0.072 A 
ATOM     20  C   UNL     1       9.216  -5.075  24.958  0.00  0.00    +0.119 A 
ATOM     21  C   UNL     1       8.061  -5.588  24.386  0.00  0.00    +0.049 A 
ATOM     22  C   UNL     1       7.235  -4.746  23.638  0.00  0.00    +0.051 A 
BRANCH  17  24
ATOM     23  C   UNL     1       5.648  -3.021  22.095  0.00  0.00    +0.277 C 
ATOM     24  O   UNL     1       6.782  -2.495  22.778  0.00  0.00    -0.493 OA
ENDBRANCH  17  24
BRANCH  20  25
ATOM     25  O   UNL     1      10.041  -5.854  25.715  0.00  0.00    -0.507 OA
ATOM     26  H   UNL     1      10.890  -5.394  25.830  0.00  0.00    +0.292 HD
ENDBRANCH  20  25
ENDBRANCH   1  18
TORSDOF 4
ENDMDL
MODEL 3
REMARK VINA RESULT:      -6.9      2.859      4.051
REMARK  Name = 
REMARK  5 active torsions:
REMARK  status: ('A' for Active; 'I' for Inactive)
REMARK    1  A    between atoms: C_1  and  O_2
REMARK    2  A    between atoms: O_2  and  C_3
REMARK    3  A    between atoms: C_6  and  O_7
REMARK    4  A    between atoms: C_9  and  N_10
REMARK    5  A    between atoms: C_14  and  C_16
REMARK                            x       y       z     vdW  Elec       q    Type
REMARK                         _______ _______ _______ _____ _____    ______ ____
ROOT
ATOM      1  N   UNL     1       8.802  -1.292  24.554  0.00  0.00    -0.266 N 
ATOM      2  H   UNL     1       8.962  -0.921  23.618  0.00  0.00    +0.156 HD
ATOM      3  C   UNL     1       9.073  -0.450  25.604  0.00  0.00    +0.310 C 
ATOM      4  N   UNL     1       9.347   0.858  25.273  0.00  0.00    -0.236 N 
ATOM      5  H   UNL     1       9.621   1.406  26.076  0.00  0.00    +0.159 HD
ATOM      6  C   UNL     1       9.316   1.448  24.026  0.00  0.00    +0.253 C 
ATOM      7  O   UNL     1       8.926   0.866  23.013  0.00  0.00    -0.270 OA
ATOM      8  O   UNL     1       9.113  -0.751  26.795  0.00  0.00    -0.252 OA
ENDROOT
BRANCH   6   9
ATOM      9  C   UNL     1       9.748   2.864  23.895  0.00  0.00    +0.056 A 
ATOM     10  C   UNL     1       9.032   3.975  24.366  0.00  0.00    +0.056 A 
ATOM     11 CL   UNL     1       7.438   3.871  25.025  0.00  0.00    -0.083 Cl
ATOM     12  C   UNL     1       9.623   5.243  24.355  0.00  0.00    +0.059 A 
ATOM     13  C   UNL     1      10.916   5.403  23.868  0.00  0.00    +0.125 A 
ATOM     14  F   UNL     1      11.490   6.611  23.906  0.00  0.00    -0.205 F 
ATOM     15  C   UNL     1      11.624   4.325  23.356  0.00  0.00    +0.039 A 
ATOM     16  C   UNL     1      11.042   3.059  23.369  0.00  0.00    +0.017 A 
ENDBRANCH   6   9
BRANCH   1  18
ATOM     17  C   UNL     1       7.042  -2.968  24.464  0.00  0.00    +0.141 A 
ATOM     18  C   UNL     1       8.416  -2.648  24.607  0.00  0.00    +0.080 A 
ATOM     19  C   UNL     1       9.333  -3.679  24.826  0.00  0.00    +0.072 A 
ATOM     20  C   UNL     1       8.903  -4.999  24.894  0.00  0.00    +0.119 A 
ATOM     21  C   UNL     1       7.566  -5.324  24.723  0.00  0.00    +0.049 A 
ATOM     22  C   UNL     1       6.636  -4.307  24.500  0.00  0.00    +0.051 A 
BRANCH  17  24
ATOM     23  C   UNL     1       5.350  -1.552  25.371  0.00  0.00    +0.277 C 
ATOM     24  O   UNL     1       6.187  -1.907  24.273  0.00  0.00    -0.493 OA
ENDBRANCH  17  24
BRANCH  20  25
ATOM     25  O   UNL     1       9.843  -5.958  25.137  0.00  0.00    -0.507 OA
ATOM     26  H   UNL     1       9.485  -6.823  24.873  0.00  0.00    +0.292 HD
ENDBRANCH  20  25
ENDBRANCH   1  18
TORSDOF 4
ENDMDL
MODEL 4
REMARK VINA RESULT:      -6.7      4.213      8.997
REMARK  Name = 
REMARK  5 active torsions:
REMARK  status: ('A' for Active; 'I' for Inactive)
REMARK    1  A    between atoms: C_1  and  O_2
REMARK    2  A    between atoms: O_2  and  C_3
REMARK    3  A    between atoms: C_6  and  O_7
REMARK    4  A    between atoms: C_9  and  N_10
REMARK    5  A    between atoms: C_14  and  C_16
REMARK                            x       y       z     vdW  Elec       q    Type
REMARK                         _______ _______ _______ _____ _____    ______ ____
ROOT
ATOM      1  N   UNL     1      10.148   2.168  23.738  0.00  0.00    -0.266 N 
ATOM      2  H   UNL     1      10.201   1.714  24.650  0.00  0.00    +0.156 HD
ATOM      3  C   UNL     1       9.617   1.427  22.712  0.00  0.00    +0.310 C 
ATOM      4  N   UNL     1       9.043   0.227  23.069  0.00  0.00    -0.236 N 
ATOM      5  H   UNL     1       8.748  -0.309  22.265  0.00  0.00    +0.159 HD
ATOM      6  C   UNL     1       8.870  -0.294  24.334  0.00  0.00    +0.253 C 
ATOM      7  O   UNL     1       9.138   0.327  25.363  0.00  0.00    -0.270 OA
ATOM      8  O   UNL     1       9.622   1.717  21.518  0.00  0.00    -0.252 OA
ENDROOT
BRANCH   6   9
ATOM      9  C   UNL     1       8.307  -1.663  24.472  0.00  0.00    +0.056 A 
ATOM     10  C   UNL     1       6.941  -1.970  24.568  0.00  0.00    +0.056 A 
ATOM     11 CL   UNL     1       5.704  -0.773  24.715  0.00  0.00    -0.083 Cl
ATOM     12  C   UNL     1       6.518  -3.303  24.504  0.00  0.00    +0.059 A 
ATOM     13  C   UNL     1       7.453  -4.322  24.355  0.00  0.00    +0.125 A 
ATOM     14  F   UNL     1       7.036  -5.589  24.247  0.00  0.00    -0.205 F 
ATOM     15  C   UNL     1       8.811  -4.043  24.304  0.00  0.00    +0.039 A 
ATOM     16  C   UNL     1       9.238  -2.717  24.362  0.00  0.00    +0.017 A 
ENDBRANCH   6   9
BRANCH   1  18
ATOM     17  C   UNL     1       9.871   4.583  23.801  0.00  0.00    +0.141 A 
ATOM     18  C   UNL     1      10.721   3.456  23.672  0.00  0.00    +0.080 A 
ATOM     19  C   UNL     1      12.085   3.657  23.454  0.00  0.00    +0.072 A 
ATOM     20  C   UNL     1      12.602   4.945  23.374  0.00  0.00    +0.119 A 
ATOM     21  C   UNL     1      11.783   6.053  23.530  0.00  0.00    +0.049 A 
ATOM     22  C   UNL     1      10.417   5.870  23.752  0.00  0.00    +0.051 A 
BRANCH  17  24
ATOM     23  C   UNL     1       7.643   4.746  22.965  0.00  0.00    +0.277 C 
ATOM     24  O   UNL     1       8.534   4.319  23.992  0.00  0.00    -0.493 OA
ENDBRANCH  17  24
BRANCH  20  25
ATOM     25  O   UNL     1      13.939   5.076  23.133  0.00  0.00    -0.507 OA
ATOM     26  H   UNL     1      14.134   4.725  22.248  0.00  0.00    +0.292 HD
ENDBRANCH  20  25
ENDBRANCH   1  18
TORSDOF 4
ENDMDL
MODEL 5
REMARK VINA RESULT:      -6.7      4.035      8.448
REMARK  Name = 
REMARK  5 active torsions:
REMARK  status: ('A' for Active; 'I' for Inactive)
REMARK    1  A    between atoms: C_1  and  O_2
REMARK    2  A    between atoms: O_2  and  C_3
REMARK    3  A    between atoms: C_6  and  O_7
REMARK    4  A    between atoms: C_9  and  N_10
REMARK    5  A    between atoms: C_14  and  C_16
REMARK                            x       y       z     vdW  Elec       q    Type
REMARK                         _______ _______ _______ _____ _____    ______ ____
ROOT
ATOM      1  N   UNL     1       7.525   1.492  22.928  0.00  0.00    -0.266 N 
ATOM      2  H   UNL     1       8.133   0.966  22.301  0.00  0.00    +0.156 HD
ATOM      3  C   UNL     1       6.527   0.787  23.552  0.00  0.00    +0.310 C 
ATOM      4  N   UNL     1       6.575  -0.582  23.409  0.00  0.00    -0.236 N 
ATOM      5  H   UNL     1       5.771  -1.037  23.817  0.00  0.00    +0.159 HD
ATOM      6  C   UNL     1       7.539  -1.341  22.778  0.00  0.00    +0.253 C 
ATOM      7  O   UNL     1       8.579  -0.868  22.321  0.00  0.00    -0.270 OA
ATOM      8  O   UNL     1       5.594   1.254  24.201  0.00  0.00    -0.252 OA
ENDROOT
BRANCH   6   9
ATOM      9  C   UNL     1       7.330  -2.809  22.665  0.00  0.00    +0.056 A 
ATOM     10  C   UNL     1       8.040  -3.785  23.381  0.00  0.00    +0.056 A 
ATOM     11 CL   UNL     1       9.397  -3.428  24.389  0.00  0.00    -0.083 Cl
ATOM     12  C   UNL     1       7.631  -5.122  23.333  0.00  0.00    +0.059 A 
ATOM     13  C   UNL     1       6.527  -5.483  22.567  0.00  0.00    +0.125 A 
ATOM     14  F   UNL     1       6.115  -6.757  22.566  0.00  0.00    -0.205 F 
ATOM     15  C   UNL     1       5.840  -4.541  21.816  0.00  0.00    +0.039 A 
ATOM     16  C   UNL     1       6.240  -3.207  21.864  0.00  0.00    +0.017 A 
ENDBRANCH   6   9
BRANCH   1  18
ATOM     17  C   UNL     1       8.790   3.369  23.818  0.00  0.00    +0.141 A 
ATOM     18  C   UNL     1       7.762   2.883  22.972  0.00  0.00    +0.080 A 
ATOM     19  C   UNL     1       7.002   3.794  22.236  0.00  0.00    +0.072 A 
ATOM     20  C   UNL     1       7.257   5.158  22.327  0.00  0.00    +0.119 A 
ATOM     21  C   UNL     1       8.281   5.640  23.129  0.00  0.00    +0.049 A 
ATOM     22  C   UNL     1       9.053   4.742  23.869  0.00  0.00    +0.051 A 
BRANCH  17  24
ATOM     23  C   UNL     1      10.686   1.926  23.942  0.00  0.00    +0.277 C 
ATOM     24  O   UNL     1       9.488   2.422  24.534  0.00  0.00    -0.493 OA
ENDBRANCH  17  24
BRANCH  20  25
ATOM     25  O   UNL     1       6.463   6.000  21.605  0.00  0.00    -0.507 OA
ATOM     26  H   UNL     1       6.456   6.871  22.035  0.00  0.00    +0.292 HD
ENDBRANCH  20  25
ENDBRANCH   1  18
TORSDOF 4
ENDMDL
MODEL 6
REMARK VINA RESULT:      -6.6      1.538      2.476
REMARK  Name = 
REMARK  5 active torsions:
REMARK  status: ('A' for Active; 'I' for Inactive)
REMARK    1  A    between atoms: C_1  and  O_2
REMARK    2  A    between atoms: O_2  and  C_3
REMARK    3  A    between atoms: C_6  and  O_7
REMARK    4  A    between atoms: C_9  and  N_10
REMARK    5  A    between atoms: C_14  and  C_16
REMARK                            x       y       z     vdW  Elec       q    Type
REMARK                         _______ _______ _______ _____ _____    ______ ____
ROOT
ATOM      1  N   UNL     1       6.333  -3.814  23.998  0.00  0.00    -0.266 N 
ATOM      2  H   UNL     1       6.117  -2.965  24.519  0.00  0.00    +0.156 HD
ATOM      3  C   UNL     1       7.355  -3.733  23.086  0.00  0.00    +0.310 C 
ATOM      4  N   UNL     1       8.096  -2.573  23.113  0.00  0.00    -0.236 N 
ATOM      5  H   UNL     1       8.776  -2.537  22.366  0.00  0.00    +0.159 HD
ATOM      6  C   UNL     1       7.989  -1.510  23.986  0.00  0.00    +0.253 C 
ATOM      7  O   UNL     1       7.236  -1.510  24.960  0.00  0.00    -0.270 OA
ATOM      8  O   UNL     1       7.657  -4.577  22.245  0.00  0.00    -0.252 OA
ENDROOT
BRANCH   6   9
ATOM      9  C   UNL     1       8.839  -0.312  23.760  0.00  0.00    +0.056 A 
ATOM     10  C   UNL     1       8.408   0.886  23.171  0.00  0.00    +0.056 A 
ATOM     11 CL   UNL     1       6.850   1.089  22.454  0.00  0.00    -0.083 Cl
ATOM     12  C   UNL     1       9.243   2.009  23.181  0.00  0.00    +0.059 A 
ATOM     13  C   UNL     1      10.502   1.934  23.767  0.00  0.00    +0.125 A 
ATOM     14  F   UNL     1      11.274   3.027  23.815  0.00  0.00    -0.205 F 
ATOM     15  C   UNL     1      10.964   0.746  24.315  0.00  0.00    +0.039 A 
ATOM     16  C   UNL     1      10.136  -0.374  24.312  0.00  0.00    +0.017 A 
ENDBRANCH   6   9
BRANCH   1  18
ATOM     17  C   UNL     1       5.664  -5.668  25.422  0.00  0.00    +0.141 A 
ATOM     18  C   UNL     1       5.473  -4.907  24.243  0.00  0.00    +0.080 A 
ATOM     19  C   UNL     1       4.466  -5.279  23.351  0.00  0.00    +0.072 A 
ATOM     20  C   UNL     1       3.657  -6.377  23.622  0.00  0.00    +0.119 A 
ATOM     21  C   UNL     1       3.816  -7.109  24.789  0.00  0.00    +0.049 A 
ATOM     22  C   UNL     1       4.817  -6.748  25.693  0.00  0.00    +0.051 A 
BRANCH  17  24
ATOM     23  C   UNL     1       6.314  -4.692  27.500  0.00  0.00    +0.277 C 
ATOM     24  O   UNL     1       6.688  -5.264  26.249  0.00  0.00    -0.493 OA
ENDBRANCH  17  24
BRANCH  20  25
ATOM     25  O   UNL     1       2.707  -6.706  22.700  0.00  0.00    -0.507 OA
ATOM     26  H   UNL     1       2.250  -7.512  22.993  0.00  0.00    +0.292 HD
ENDBRANCH  20  25
ENDBRANCH   1  18
TORSDOF 4
ENDMDL
MODEL 7
REMARK VINA RESULT:      -6.6      2.836      4.107
REMARK  Name = 
REMARK  5 active torsions:
REMARK  status: ('A' for Active; 'I' for Inactive)
REMARK    1  A    between atoms: C_1  and  O_2
REMARK    2  A    between atoms: O_2  and  C_3
REMARK    3  A    between atoms: C_6  and  O_7
REMARK    4  A    between atoms: C_9  and  N_10
REMARK    5  A    between atoms: C_14  and  C_16
REMARK                            x       y       z     vdW  Elec       q    Type
REMARK                         _______ _______ _______ _____ _____    ______ ____
ROOT
ATOM      1  N   UNL     1       8.058  -1.504  22.794  0.00  0.00    -0.266 N 
ATOM      2  H   UNL     1       7.311  -0.880  23.097  0.00  0.00    +0.156 HD
ATOM      3  C   UNL     1       9.209  -0.912  22.341  0.00  0.00    +0.310 C 
ATOM      4  N   UNL     1       9.299   0.450  22.525  0.00  0.00    -0.236 N 
ATOM      5  H   UNL     1      10.127   0.840  22.097  0.00  0.00    +0.159 HD
ATOM      6  C   UNL     1       8.410   1.286  23.169  0.00  0.00    +0.253 C 
ATOM      7  O   UNL     1       7.418   0.878  23.774  0.00  0.00    -0.270 OA
ATOM      8  O   UNL     1      10.149  -1.468  21.777  0.00  0.00    -0.252 OA
ENDROOT
BRANCH   6   9
ATOM      9  C   UNL     1       8.670   2.749  23.160  0.00  0.00    +0.056 A 
ATOM     10  C   UNL     1       7.735   3.735  22.811  0.00  0.00    +0.056 A 
ATOM     11 CL   UNL     1       6.172   3.379  22.167  0.00  0.00    -0.083 Cl
ATOM     12  C   UNL     1       8.033   5.086  23.019  0.00  0.00    +0.059 A 
ATOM     13  C   UNL     1       9.260   5.451  23.562  0.00  0.00    +0.125 A 
ATOM     14  F   UNL     1       9.517   6.742  23.802  0.00  0.00    -0.205 F 
ATOM     15  C   UNL     1      10.216   4.495  23.872  0.00  0.00    +0.039 A 
ATOM     16  C   UNL     1       9.923   3.147  23.672  0.00  0.00    +0.017 A 
ENDBRANCH   6   9
BRANCH   1  18
ATOM     17  C   UNL     1       8.259  -3.688  23.846  0.00  0.00    +0.141 A 
ATOM     18  C   UNL     1       7.737  -2.879  22.806  0.00  0.00    +0.080 A 
ATOM     19  C   UNL     1       6.950  -3.471  21.816  0.00  0.00    +0.072 A 
ATOM     20  C   UNL     1       6.678  -4.834  21.856  0.00  0.00    +0.119 A 
ATOM     21  C   UNL     1       7.159  -5.628  22.887  0.00  0.00    +0.049 A 
ATOM     22  C   UNL     1       7.945  -5.051  23.887  0.00  0.00    +0.051 A 
BRANCH  17  24
ATOM     23  C   UNL     1       8.538  -2.985  26.109  0.00  0.00    +0.277 C 
ATOM     24  O   UNL     1       9.045  -3.049  24.778  0.00  0.00    -0.493 OA
ENDBRANCH  17  24
BRANCH  20  25
ATOM     25  O   UNL     1       5.927  -5.359  20.846  0.00  0.00    -0.507 OA
ATOM     26  H   UNL     1       6.343  -6.182  20.539  0.00  0.00    +0.292 HD
ENDBRANCH  20  25
ENDBRANCH   1  18
TORSDOF 4
ENDMDL
MODEL 8
REMARK VINA RESULT:      -6.6      4.021      8.743
REMARK  Name = 
REMARK  5 active torsions:
REMARK  status: ('A' for Active; 'I' for Inactive)
REMARK    1  A    between atoms: C_1  and  O_2
REMARK    2  A    between atoms: O_2  and  C_3
REMARK    3  A    between atoms: C_6  and  O_7
REMARK    4  A    between atoms: C_9  and  N_10
REMARK    5  A    between atoms: C_14  and  C_16
REMARK                            x       y       z     vdW  Elec       q    Type
REMARK                         _______ _______ _______ _____ _____    ______ ____
ROOT
ATOM      1  N   UNL     1       9.696   1.705  23.882  0.00  0.00    -0.266 N 
ATOM      2  H   UNL     1       8.736   1.522  23.591  0.00  0.00    +0.156 HD
ATOM      3  C   UNL     1      10.411   0.633  24.354  0.00  0.00    +0.310 C 
ATOM      4  N   UNL     1       9.817  -0.601  24.206  0.00  0.00    -0.236 N 
ATOM      5  H   UNL     1      10.350  -1.337  24.648  0.00  0.00    +0.159 HD
ATOM      6  C   UNL     1       8.626  -0.905  23.580  0.00  0.00    +0.253 C 
ATOM      7  O   UNL     1       7.957  -0.077  22.961  0.00  0.00    -0.270 OA
ATOM      8  O   UNL     1      11.508   0.668  24.908  0.00  0.00    -0.252 OA
ENDROOT
BRANCH   6   9
ATOM      9  C   UNL     1       8.132  -2.307  23.628  0.00  0.00    +0.056 A 
ATOM     10  C   UNL     1       7.835  -3.019  24.799  0.00  0.00    +0.056 A 
ATOM     11 CL   UNL     1       8.165  -2.423  26.387  0.00  0.00    -0.083 Cl
ATOM     12  C   UNL     1       7.199  -4.263  24.718  0.00  0.00    +0.059 A 
ATOM     13  C   UNL     1       6.873  -4.797  23.476  0.00  0.00    +0.125 A 
ATOM     14  F   UNL     1       6.222  -5.965  23.410  0.00  0.00    -0.205 F 
ATOM     15  C   UNL     1       7.199  -4.129  22.304  0.00  0.00    +0.039 A 
ATOM     16  C   UNL     1       7.826  -2.887  22.379  0.00  0.00    +0.017 A 
ENDBRANCH   6   9
BRANCH   1  18
ATOM     17  C   UNL     1       9.166   4.051  24.237  0.00  0.00    +0.141 A 
ATOM     18  C   UNL     1      10.093   3.058  23.833  0.00  0.00    +0.080 A 
ATOM     19  C   UNL     1      11.352   3.452  23.373  0.00  0.00    +0.072 A 
ATOM     20  C   UNL     1      11.691   4.799  23.321  0.00  0.00    +0.119 A 
ATOM     21  C   UNL     1      10.802   5.776  23.743  0.00  0.00    +0.049 A 
ATOM     22  C   UNL     1       9.541   5.399  24.209  0.00  0.00    +0.051 A 
BRANCH  17  24
ATOM     23  C   UNL     1       7.596   3.844  26.021  0.00  0.00    +0.277 C 
ATOM     24  O   UNL     1       7.936   3.601  24.658  0.00  0.00    -0.493 OA
ENDBRANCH  17  24
BRANCH  20  25
ATOM     25  O   UNL     1      12.925   5.122  22.837  0.00  0.00    -0.507 OA
ATOM     26  H   UNL     1      13.172   4.480  22.150  0.00  0.00    +0.292 HD
ENDBRANCH  20  25
ENDBRANCH   1  18
TORSDOF 4
ENDMDL
MODEL 9
REMARK VINA RESULT:      -6.5      3.947      8.677
REMARK  Name = 
REMARK  5 active torsions:
REMARK  status: ('A' for Active; 'I' for Inactive)
REMARK    1  A    between atoms: C_1  and  O_2
REMARK    2  A    between atoms: O_2  and  C_3
REMARK    3  A    between atoms: C_6  and  O_7
REMARK    4  A    between atoms: C_9  and  N_10
REMARK    5  A    between atoms: C_14  and  C_16
REMARK                            x       y       z     vdW  Elec       q    Type
REMARK                         _______ _______ _______ _____ _____    ______ ____
ROOT
ATOM      1  N   UNL     1       9.219   1.758  23.397  0.00  0.00    -0.266 N 
ATOM      2  H   UNL     1       9.319   1.153  24.211  0.00  0.00    +0.156 HD
ATOM      3  C   UNL     1       8.649   1.199  22.281  0.00  0.00    +0.310 C 
ATOM      4  N   UNL     1       8.105  -0.056  22.447  0.00  0.00    -0.236 N 
ATOM      5  H   UNL     1       7.778  -0.448  21.575  0.00  0.00    +0.159 HD
ATOM      6  C   UNL     1       7.996  -0.793  23.608  0.00  0.00    +0.253 C 
ATOM      7  O   UNL     1       8.306  -0.356  24.716  0.00  0.00    -0.270 OA
ATOM      8  O   UNL     1       8.595   1.693  21.157  0.00  0.00    -0.252 OA
ENDROOT
BRANCH   6   9
ATOM      9  C   UNL     1       7.454  -2.175  23.527  0.00  0.00    +0.056 A 
ATOM     10  C   UNL     1       8.145  -3.338  23.900  0.00  0.00    +0.056 A 
ATOM     11 CL   UNL     1       9.812  -3.350  24.354  0.00  0.00    -0.083 Cl
ATOM     12  C   UNL     1       7.471  -4.563  23.959  0.00  0.00    +0.059 A 
ATOM     13  C   UNL     1       6.120  -4.628  23.638  0.00  0.00    +0.125 A 
ATOM     14  F   UNL     1       5.473  -5.795  23.743  0.00  0.00    -0.205 F 
ATOM     15  C   UNL     1       5.429  -3.498  23.223  0.00  0.00    +0.039 A 
ATOM     16  C   UNL     1       6.094  -2.275  23.168  0.00  0.00    +0.017 A 
ENDBRANCH   6   9
BRANCH   1  18
ATOM     17  C   UNL     1       8.914   4.127  23.853  0.00  0.00    +0.141 A 
ATOM     18  C   UNL     1       9.775   3.049  23.532  0.00  0.00    +0.080 A 
ATOM     19  C   UNL     1      11.134   3.302  23.332  0.00  0.00    +0.072 A 
ATOM     20  C   UNL     1      11.634   4.593  23.454  0.00  0.00    +0.119 A 
ATOM     21  C   UNL     1      10.804   5.650  23.798  0.00  0.00    +0.049 A 
ATOM     22  C   UNL     1       9.443   5.413  24.005  0.00  0.00    +0.051 A 
BRANCH  17  24
ATOM     23  C   UNL     1       6.675   4.367  23.065  0.00  0.00    +0.277 C 
ATOM     24  O   UNL     1       7.583   3.816  24.016  0.00  0.00    -0.493 OA
ENDBRANCH  17  24
BRANCH  20  25
ATOM     25  O   UNL     1      12.964   4.782  23.220  0.00  0.00    -0.507 OA
ATOM     26  H   UNL     1      13.406   4.983  24.062  0.00  0.00    +0.292 HD
ENDBRANCH  20  25
ENDBRANCH   1  18
TORSDOF 4
ENDMDL
