MODEL 1
REMARK VINA RESULT:      -8.9      0.000      0.000
REMARK  Name = 
REMARK  5 active torsions:
REMARK  status: ('A' for Active; 'I' for Inactive)
REMARK    1  A    between atoms: C_2  and  C_4
REMARK    2  A    between atoms: C_6  and  C_22
REMARK    3  A    between atoms: C_8  and  C_10
REMARK    4  A    between atoms: C_13  and  C_16
REMARK    5  A    between atoms: C_22  and  O_23
REMARK                            x       y       z     vdW  Elec       q    Type
REMARK                         _______ _______ _______ _____ _____    ______ ____
ROOT
ATOM      1  C   UNL     1       7.293  -4.125  22.491  0.00  0.00    +0.038 A 
ATOM      2  C   UNL     1       7.851  -2.835  22.401  0.00  0.00    +0.021 A 
ATOM      3  C   UNL     1       8.756  -2.355  23.364  0.00  0.00    -0.016 A 
ATOM      4  C   UNL     1       9.098  -3.242  24.406  0.00  0.00    +0.023 A 
ATOM      5  C   UNL     1       8.586  -4.548  24.479  0.00  0.00    +0.060 A 
ATOM      6  C   UNL     1       7.667  -4.988  23.527  0.00  0.00    +0.028 A 
ENDROOT
BRANCH   3   7
ATOM      7  C   UNL     1       9.301  -0.972  23.333  0.00  0.00    -0.018 A 
ATOM      8  C   UNL     1       9.210  -0.151  22.199  0.00  0.00    +0.009 A 
ATOM      9  C   UNL     1       9.618   1.197  22.227  0.00  0.00    +0.009 A 
ATOM     10  C   UNL     1      10.114   1.797  23.395  0.00  0.00    -0.018 A 
ATOM     11  C   UNL     1      10.267   0.955  24.507  0.00  0.00    +0.009 A 
ATOM     12  C   UNL     1       9.885  -0.394  24.472  0.00  0.00    +0.009 A 
BRANCH  10  13
ATOM     13  C   UNL     1      10.393   3.256  23.488  0.00  0.00    -0.018 A 
ATOM     14  C   UNL     1       9.397   4.167  23.889  0.00  0.00    +0.008 A 
ATOM     15  C   UNL     1       9.674   5.527  24.076  0.00  0.00    +0.001 A 
ATOM     16  C   UNL     1      10.961   6.011  23.871  0.00  0.00    +0.000 A 
ATOM     17  C   UNL     1      11.962   5.141  23.455  0.00  0.00    +0.001 A 
ATOM     18  C   UNL     1      11.677   3.785  23.256  0.00  0.00    +0.008 A 
ENDBRANCH  10  13
ENDBRANCH   3   7
BRANCH   1  22
ATOM     19  N   UNL     1       6.186  -5.885  21.216  0.00  0.00    -0.325 N 
ATOM     20  H   UNL     1       6.495  -6.587  21.874  0.00  0.00    +0.145 HD
ATOM     21  H   UNL     1       5.427  -6.144  20.596  0.00  0.00    +0.145 HD
ATOM     22  C   UNL     1       6.314  -4.546  21.457  0.00  0.00    +0.242 C 
ATOM     23  O   UNL     1       5.619  -3.730  20.864  0.00  0.00    -0.270 OA
ENDBRANCH   1  22
BRANCH   5  24
ATOM     24  C   UNL     1       9.005  -5.391  25.629  0.00  0.00    +0.337 C 
ATOM     25  O   UNL     1       8.221  -5.779  26.478  0.00  0.00    -0.245 OA
BRANCH  24  26
ATOM     26  O   UNL     1      10.324  -5.671  25.664  0.00  0.00    -0.477 OA
ATOM     27  H   UNL     1      10.605  -6.464  25.174  0.00  0.00    +0.295 HD
ENDBRANCH  24  26
ENDBRANCH   5  24
TORSDOF 5
ENDMDL
MODEL 2
REMARK VINA RESULT:      -8.4      0.574      1.386
REMARK  Name = 
REMARK  5 active torsions:
REMARK  status: ('A' for Active; 'I' for Inactive)
REMARK    1  A    between atoms: C_2  and  C_4
REMARK    2  A    between atoms: C_6  and  C_22
REMARK    3  A    between atoms: C_8  and  C_10
REMARK    4  A    between atoms: C_13  and  C_16
REMARK    5  A    between atoms: C_22  and  O_23
REMARK                            x       y       z     vdW  Elec       q    Type
REMARK                         _______ _______ _______ _____ _____    ______ ____
ROOT
ATOM      1  C   UNL     1       7.147  -4.264  22.486  0.00  0.00    +0.038 A 
ATOM      2  C   UNL     1       7.512  -2.905  22.424  0.00  0.00    +0.021 A 
ATOM      3  C   UNL     1       8.309  -2.310  23.417  0.00  0.00    -0.016 A 
ATOM      4  C   UNL     1       8.749  -3.151  24.461  0.00  0.00    +0.023 A 
ATOM      5  C   UNL     1       8.432  -4.517  24.508  0.00  0.00    +0.060 A 
ATOM      6  C   UNL     1       7.614  -5.076  23.526  0.00  0.00    +0.028 A 
ENDROOT
BRANCH   3   7
ATOM      7  C   UNL     1       8.646  -0.862  23.414  0.00  0.00    -0.018 A 
ATOM      8  C   UNL     1       8.293  -0.003  24.466  0.00  0.00    +0.009 A 
ATOM      9  C   UNL     1       8.728   1.336  24.505  0.00  0.00    +0.009 A 
ATOM     10  C   UNL     1       9.557   1.876  23.510  0.00  0.00    -0.018 A 
ATOM     11  C   UNL     1       9.852   1.034  22.426  0.00  0.00    +0.009 A 
ATOM     12  C   UNL     1       9.397  -0.292  22.374  0.00  0.00    +0.009 A 
BRANCH  10  13
ATOM     13  C   UNL     1      10.160   3.231  23.620  0.00  0.00    -0.018 A 
ATOM     14  C   UNL     1      11.520   3.455  23.327  0.00  0.00    +0.008 A 
ATOM     15  C   UNL     1      12.074   4.741  23.331  0.00  0.00    +0.001 A 
ATOM     16  C   UNL     1      11.278   5.842  23.624  0.00  0.00    +0.000 A 
ATOM     17  C   UNL     1       9.937   5.654  23.937  0.00  0.00    +0.001 A 
ATOM     18  C   UNL     1       9.390   4.365  23.946  0.00  0.00    +0.008 A 
ENDBRANCH  10  13
ENDBRANCH   3   7
BRANCH   1  22
ATOM     19  N   UNL     1       6.078  -6.163  21.392  0.00  0.00    -0.325 N 
ATOM     20  H   UNL     1       6.258  -6.754  22.192  0.00  0.00    +0.145 HD
ATOM     21  H   UNL     1       5.381  -6.490  20.732  0.00  0.00    +0.145 HD
ATOM     22  C   UNL     1       6.270  -4.811  21.420  0.00  0.00    +0.242 C 
ATOM     23  O   UNL     1       5.708  -4.078  20.616  0.00  0.00    -0.270 OA
ENDBRANCH   1  22
BRANCH   5  24
ATOM     24  C   UNL     1       8.937  -5.305  25.663  0.00  0.00    +0.337 C 
ATOM     25  O   UNL     1       8.201  -5.746  26.529  0.00  0.00    -0.245 OA
BRANCH  24  26
ATOM     26  O   UNL     1      10.276  -5.470  25.682  0.00  0.00    -0.477 OA
ATOM     27  H   UNL     1      10.797  -4.771  25.249  0.00  0.00    +0.295 HD
ENDBRANCH  24  26
ENDBRANCH   5  24
TORSDOF 5
ENDMDL
MODEL 3
REMARK VINA RESULT:      -8.2      5.020      8.964
REMARK  Name = 
REMARK  5 active torsions:
REMARK  status: ('A' for Active; 'I' for Inactive)
REMARK    1  A    between atoms: C_2  and  C_4
REMARK    2  A    between atoms: C_6  and  C_22
REMARK    3  A    between atoms: C_8  and  C_10
REMARK    4  A    between atoms: C_13  and  C_16
REMARK    5  A    between atoms: C_22  and  O_23
REMARK                            x       y       z     vdW  Elec       q    Type
REMARK                         _______ _______ _______ _____ _____    ______ ____
ROOT
ATOM      1  C   UNL     1       9.751   5.314  24.141  0.00  0.00    +0.038 A 
ATOM      2  C   UNL     1       9.508   3.927  24.155  0.00  0.00    +0.021 A 
ATOM      3  C   UNL     1      10.452   3.009  23.664  0.00  0.00    -0.016 A 
ATOM      4  C   UNL     1      11.666   3.546  23.185  0.00  0.00    +0.023 A 
ATOM      5  C   UNL     1      11.939   4.923  23.211  0.00  0.00    +0.060 A 
ATOM      6  C   UNL     1      10.972   5.814  23.676  0.00  0.00    +0.028 A 
ENDROOT
BRANCH   3   7
ATOM      7  C   UNL     1      10.190   1.547  23.599  0.00  0.00    -0.018 A 
ATOM      8  C   UNL     1      10.177   0.731  24.741  0.00  0.00    +0.009 A 
ATOM      9  C   UNL     1       9.804  -0.625  24.677  0.00  0.00    +0.009 A 
ATOM     10  C   UNL     1       9.402  -1.228  23.475  0.00  0.00    -0.018 A 
ATOM     11  C   UNL     1       9.482  -0.428  22.325  0.00  0.00    +0.009 A 
ATOM     12  C   UNL     1       9.878   0.916  22.384  0.00  0.00    +0.009 A 
BRANCH  10  13
ATOM     13  C   UNL     1       8.848  -2.608  23.418  0.00  0.00    -0.018 A 
ATOM     14  C   UNL     1       9.186  -3.573  24.386  0.00  0.00    +0.008 A 
ATOM     15  C   UNL     1       8.594  -4.842  24.400  0.00  0.00    +0.001 A 
ATOM     16  C   UNL     1       7.641  -5.178  23.446  0.00  0.00    +0.000 A 
ATOM     17  C   UNL     1       7.299  -4.254  22.465  0.00  0.00    +0.001 A 
ATOM     18  C   UNL     1       7.904  -2.991  22.446  0.00  0.00    +0.008 A 
ENDBRANCH  10  13
ENDBRANCH   3   7
BRANCH   1  22
ATOM     19  N   UNL     1       8.279   6.065  25.934  0.00  0.00    -0.325 N 
ATOM     20  H   UNL     1       8.834   5.578  26.625  0.00  0.00    +0.145 HD
ATOM     21  H   UNL     1       7.645   6.777  26.280  0.00  0.00    +0.145 HD
ATOM     22  C   UNL     1       8.689   6.223  24.641  0.00  0.00    +0.242 C 
ATOM     23  O   UNL     1       8.221   7.108  23.935  0.00  0.00    -0.270 OA
ENDBRANCH   1  22
BRANCH   5  24
ATOM     24  C   UNL     1      13.245   5.379  22.667  0.00  0.00    +0.337 C 
ATOM     25  O   UNL     1      13.334   6.066  21.665  0.00  0.00    -0.245 OA
BRANCH  24  26
ATOM     26  O   UNL     1      14.318   4.950  23.363  0.00  0.00    -0.477 OA
ATOM     27  H   UNL     1      14.999   4.479  22.849  0.00  0.00    +0.295 HD
ENDBRANCH  24  26
ENDBRANCH   5  24
TORSDOF 5
ENDMDL
MODEL 4
REMARK VINA RESULT:      -7.8      4.913      8.817
REMARK  Name = 
REMARK  5 active torsions:
REMARK  status: ('A' for Active; 'I' for Inactive)
REMARK    1  A    between atoms: C_2  and  C_4
REMARK    2  A    between atoms: C_6  and  C_22
REMARK    3  A    between atoms: C_8  and  C_10
REMARK    4  A    between atoms: C_13  and  C_16
REMARK    5  A    between atoms: C_22  and  O_23
REMARK                            x       y       z     vdW  Elec       q    Type
REMARK                         _______ _______ _______ _____ _____    ______ ____
ROOT
ATOM      1  C   UNL     1       8.946   5.422  23.105  0.00  0.00    +0.038 A 
ATOM      2  C   UNL     1       8.726   4.032  23.168  0.00  0.00    +0.021 A 
ATOM      3  C   UNL     1       9.777   3.131  23.410  0.00  0.00    -0.016 A 
ATOM      4  C   UNL     1      11.055   3.692  23.616  0.00  0.00    +0.023 A 
ATOM      5  C   UNL     1      11.277   5.078  23.604  0.00  0.00    +0.060 A 
ATOM      6  C   UNL     1      10.222   5.949  23.332  0.00  0.00    +0.028 A 
ENDROOT
BRANCH   3   7
ATOM      7  C   UNL     1       9.586   1.657  23.407  0.00  0.00    -0.018 A 
ATOM      8  C   UNL     1       9.617   0.890  24.582  0.00  0.00    +0.009 A 
ATOM      9  C   UNL     1       9.310  -0.484  24.577  0.00  0.00    +0.009 A 
ATOM     10  C   UNL     1       8.932  -1.155  23.403  0.00  0.00    -0.018 A 
ATOM     11  C   UNL     1       8.968  -0.401  22.220  0.00  0.00    +0.009 A 
ATOM     12  C   UNL     1       9.300   0.962  22.221  0.00  0.00    +0.009 A 
BRANCH  10  13
ATOM     13  C   UNL     1       8.445  -2.561  23.407  0.00  0.00    -0.018 A 
ATOM     14  C   UNL     1       7.597  -3.046  22.393  0.00  0.00    +0.008 A 
ATOM     15  C   UNL     1       7.213  -4.391  22.332  0.00  0.00    +0.001 A 
ATOM     16  C   UNL     1       7.674  -5.291  23.285  0.00  0.00    +0.000 A 
ATOM     17  C   UNL     1       8.497  -4.841  24.311  0.00  0.00    +0.001 A 
ATOM     18  C   UNL     1       8.867  -3.492  24.376  0.00  0.00    +0.008 A 
ENDBRANCH  10  13
ENDBRANCH   3   7
BRANCH   1  22
ATOM     19  N   UNL     1       7.368   6.378  21.509  0.00  0.00    -0.325 N 
ATOM     20  H   UNL     1       7.599   5.672  20.823  0.00  0.00    +0.145 HD
ATOM     21  H   UNL     1       6.506   6.892  21.360  0.00  0.00    +0.145 HD
ATOM     22  C   UNL     1       7.792   6.308  22.806  0.00  0.00    +0.242 C 
ATOM     23  O   UNL     1       7.215   6.927  23.692  0.00  0.00    -0.270 OA
ENDBRANCH   1  22
BRANCH   5  24
ATOM     24  C   UNL     1      12.668   5.558  23.819  0.00  0.00    +0.337 C 
ATOM     25  O   UNL     1      13.614   5.135  23.177  0.00  0.00    -0.245 OA
BRANCH  24  26
ATOM     26  O   UNL     1      12.794   6.480  24.795  0.00  0.00    -0.477 OA
ATOM     27  H   UNL     1      12.013   7.039  24.957  0.00  0.00    +0.295 HD
ENDBRANCH  24  26
ENDBRANCH   5  24
TORSDOF 5
ENDMDL
MODEL 5
REMARK VINA RESULT:      -7.8      0.497      1.239
REMARK  Name = 
REMARK  5 active torsions:
REMARK  status: ('A' for Active; 'I' for Inactive)
REMARK    1  A    between atoms: C_2  and  C_4
REMARK    2  A    between atoms: C_6  and  C_22
REMARK    3  A    between atoms: C_8  and  C_10
REMARK    4  A    between atoms: C_13  and  C_16
REMARK    5  A    between atoms: C_22  and  O_23
REMARK                            x       y       z     vdW  Elec       q    Type
REMARK                         _______ _______ _______ _____ _____    ______ ____
ROOT
ATOM      1  C   UNL     1       7.171  -4.152  22.548  0.00  0.00    +0.038 A 
ATOM      2  C   UNL     1       7.512  -2.786  22.598  0.00  0.00    +0.021 A 
ATOM      3  C   UNL     1       8.375  -2.280  23.585  0.00  0.00    -0.016 A 
ATOM      4  C   UNL     1       8.903  -3.213  24.502  0.00  0.00    +0.023 A 
ATOM      5  C   UNL     1       8.609  -4.584  24.432  0.00  0.00    +0.060 A 
ATOM      6  C   UNL     1       7.726  -5.056  23.460  0.00  0.00    +0.028 A 
ENDROOT
BRANCH   3   7
ATOM      7  C   UNL     1       8.692  -0.832  23.706  0.00  0.00    -0.018 A 
ATOM      8  C   UNL     1       9.609  -0.337  24.647  0.00  0.00    +0.009 A 
ATOM      9  C   UNL     1       9.991   1.018  24.664  0.00  0.00    +0.009 A 
ATOM     10  C   UNL     1       9.496   1.941  23.728  0.00  0.00    -0.018 A 
ATOM     11  C   UNL     1       8.530   1.456  22.834  0.00  0.00    +0.009 A 
ATOM     12  C   UNL     1       8.129   0.112  22.833  0.00  0.00    +0.009 A 
BRANCH  10  13
ATOM     13  C   UNL     1      10.013   3.332  23.627  0.00  0.00    -0.018 A 
ATOM     14  C   UNL     1       9.185   4.442  23.884  0.00  0.00    +0.008 A 
ATOM     15  C   UNL     1       9.685   5.750  23.889  0.00  0.00    +0.001 A 
ATOM     16  C   UNL     1      11.033   5.982  23.642  0.00  0.00    +0.000 A 
ATOM     17  C   UNL     1      11.874   4.910  23.366  0.00  0.00    +0.001 A 
ATOM     18  C   UNL     1      11.367   3.605  23.347  0.00  0.00    +0.008 A 
ENDBRANCH  10  13
ENDBRANCH   3   7
BRANCH   1  22
ATOM     19  N   UNL     1       6.019  -5.951  21.370  0.00  0.00    -0.325 N 
ATOM     20  H   UNL     1       6.245  -6.607  22.104  0.00  0.00    +0.145 HD
ATOM     21  H   UNL     1       5.277  -6.219  20.732  0.00  0.00    +0.145 HD
ATOM     22  C   UNL     1       6.222  -4.605  21.499  0.00  0.00    +0.242 C 
ATOM     23  O   UNL     1       5.615  -3.806  20.797  0.00  0.00    -0.270 OA
ENDBRANCH   1  22
BRANCH   5  24
ATOM     24  C   UNL     1       9.210  -5.474  25.459  0.00  0.00    +0.337 C 
ATOM     25  O   UNL     1      10.339  -5.922  25.359  0.00  0.00    -0.245 OA
BRANCH  24  26
ATOM     26  O   UNL     1       8.394  -5.761  26.494  0.00  0.00    -0.477 OA
ATOM     27  H   UNL     1       7.647  -6.353  26.297  0.00  0.00    +0.295 HD
ENDBRANCH  24  26
ENDBRANCH   5  24
TORSDOF 5
ENDMDL
MODEL 6
REMARK VINA RESULT:      -7.6      5.092      9.177
REMARK  Name = 
REMARK  5 active torsions:
REMARK  status: ('A' for Active; 'I' for Inactive)
REMARK    1  A    between atoms: C_2  and  C_4
REMARK    2  A    between atoms: C_6  and  C_22
REMARK    3  A    between atoms: C_8  and  C_10
REMARK    4  A    between atoms: C_13  and  C_16
REMARK    5  A    between atoms: C_22  and  O_23
REMARK                            x       y       z     vdW  Elec       q    Type
REMARK                         _______ _______ _______ _____ _____    ______ ____
ROOT
ATOM      1  C   UNL     1      11.144   5.248  23.662  0.00  0.00    +0.038 A 
ATOM      2  C   UNL     1      11.080   3.842  23.658  0.00  0.00    +0.021 A 
ATOM      3  C   UNL     1       9.877   3.160  23.405  0.00  0.00    -0.016 A 
ATOM      4  C   UNL     1       8.746   3.957  23.127  0.00  0.00    +0.023 A 
ATOM      5  C   UNL     1       8.809   5.359  23.081  0.00  0.00    +0.060 A 
ATOM      6  C   UNL     1      10.009   6.011  23.365  0.00  0.00    +0.028 A 
ENDROOT
BRANCH   3   7
ATOM      7  C   UNL     1       9.766   1.679  23.468  0.00  0.00    -0.018 A 
ATOM      8  C   UNL     1       9.595   0.986  24.677  0.00  0.00    +0.009 A 
ATOM      9  C   UNL     1       9.366  -0.403  24.707  0.00  0.00    +0.009 A 
ATOM     10  C   UNL     1       9.272  -1.165  23.531  0.00  0.00    -0.018 A 
ATOM     11  C   UNL     1       9.511  -0.481  22.330  0.00  0.00    +0.009 A 
ATOM     12  C   UNL     1       9.765   0.899  22.301  0.00  0.00    +0.009 A 
BRANCH  10  13
ATOM     13  C   UNL     1       8.867  -2.596  23.537  0.00  0.00    -0.018 A 
ATOM     14  C   UNL     1       9.336  -3.487  24.522  0.00  0.00    +0.008 A 
ATOM     15  C   UNL     1       8.884  -4.810  24.596  0.00  0.00    +0.001 A 
ATOM     16  C   UNL     1       7.943  -5.277  23.686  0.00  0.00    +0.000 A 
ATOM     17  C   UNL     1       7.474  -4.429  22.689  0.00  0.00    +0.001 A 
ATOM     18  C   UNL     1       7.939  -3.111  22.610  0.00  0.00    +0.008 A 
ENDBRANCH  10  13
ENDBRANCH   3   7
BRANCH   1  22
ATOM     19  N   UNL     1      13.499   5.628  23.151  0.00  0.00    -0.325 N 
ATOM     20  H   UNL     1      13.379   5.261  22.217  0.00  0.00    +0.145 HD
ATOM     21  H   UNL     1      14.333   6.179  23.319  0.00  0.00    +0.145 HD
ATOM     22  C   UNL     1      12.443   5.896  23.976  0.00  0.00    +0.242 C 
ATOM     23  O   UNL     1      12.560   6.671  24.917  0.00  0.00    -0.270 OA
ENDBRANCH   1  22
BRANCH   5  24
ATOM     24  C   UNL     1       7.552   6.099  22.793  0.00  0.00    +0.337 C 
ATOM     25  O   UNL     1       6.767   6.424  23.666  0.00  0.00    -0.245 OA
BRANCH  24  26
ATOM     26  O   UNL     1       7.346   6.357  21.485  0.00  0.00    -0.477 OA
ATOM     27  H   UNL     1       8.130   6.300  20.910  0.00  0.00    +0.295 HD
ENDBRANCH  24  26
ENDBRANCH   5  24
TORSDOF 5
ENDMDL
MODEL 7
REMARK VINA RESULT:      -6.9      5.031      8.944
REMARK  Name = 
REMARK  5 active torsions:
REMARK  status: ('A' for Active; 'I' for Inactive)
REMARK    1  A    between atoms: C_2  and  C_4
REMARK    2  A    between atoms: C_6  and  C_22
REMARK    3  A    between atoms: C_8  and  C_10
REMARK    4  A    between atoms: C_13  and  C_16
REMARK    5  A    between atoms: C_22  and  O_23
REMARK                            x       y       z     vdW  Elec       q    Type
REMARK                         _______ _______ _______ _____ _____    ______ ____
ROOT
ATOM      1  C   UNL     1      11.482   4.716  23.432  0.00  0.00    +0.038 A 
ATOM      2  C   UNL     1      10.948   3.416  23.344  0.00  0.00    +0.021 A 
ATOM      3  C   UNL     1       9.745   3.070  23.984  0.00  0.00    -0.016 A 
ATOM      4  C   UNL     1       9.088   4.098  24.692  0.00  0.00    +0.023 A 
ATOM      5  C   UNL     1       9.586   5.409  24.746  0.00  0.00    +0.060 A 
ATOM      6  C   UNL     1      10.797   5.719  24.127  0.00  0.00    +0.028 A 
ENDROOT
BRANCH   3   7
ATOM      7  C   UNL     1       9.198   1.687  23.969  0.00  0.00    -0.018 A 
ATOM      8  C   UNL     1       8.292   1.245  22.993  0.00  0.00    +0.009 A 
ATOM      9  C   UNL     1       7.882  -0.100  22.920  0.00  0.00    +0.009 A 
ATOM     10  C   UNL     1       8.375  -1.075  23.802  0.00  0.00    -0.018 A 
ATOM     11  C   UNL     1       9.227  -0.616  24.818  0.00  0.00    +0.009 A 
ATOM     12  C   UNL     1       9.616   0.729  24.907  0.00  0.00    +0.009 A 
BRANCH  10  13
ATOM     13  C   UNL     1       8.083  -2.524  23.636  0.00  0.00    -0.018 A 
ATOM     14  C   UNL     1       7.461  -3.018  22.473  0.00  0.00    +0.008 A 
ATOM     15  C   UNL     1       7.272  -4.389  22.263  0.00  0.00    +0.001 A 
ATOM     16  C   UNL     1       7.706  -5.306  23.212  0.00  0.00    +0.000 A 
ATOM     17  C   UNL     1       8.306  -4.851  24.381  0.00  0.00    +0.001 A 
ATOM     18  C   UNL     1       8.481  -3.478  24.593  0.00  0.00    +0.008 A 
ENDBRANCH  10  13
ENDBRANCH   3   7
BRANCH   1  22
ATOM     19  N   UNL     1      12.763   5.162  21.404  0.00  0.00    -0.325 N 
ATOM     20  H   UNL     1      11.920   5.384  20.893  0.00  0.00    +0.145 HD
ATOM     21  H   UNL     1      13.638   5.472  20.996  0.00  0.00    +0.145 HD
ATOM     22  C   UNL     1      12.777   4.995  22.761  0.00  0.00    +0.242 C 
ATOM     23  O   UNL     1      13.816   5.108  23.399  0.00  0.00    -0.270 OA
ENDBRANCH   1  22
BRANCH   5  24
ATOM     24  C   UNL     1       8.818   6.409  25.533  0.00  0.00    +0.337 C 
ATOM     25  O   UNL     1       7.949   7.107  25.038  0.00  0.00    -0.245 OA
BRANCH  24  26
ATOM     26  O   UNL     1       9.179   6.494  26.830  0.00  0.00    -0.477 OA
ATOM     27  H   UNL     1       8.883   5.765  27.403  0.00  0.00    +0.295 HD
ENDBRANCH  24  26
ENDBRANCH   5  24
TORSDOF 5
ENDMDL
MODEL 8
REMARK VINA RESULT:      -6.7      2.285      2.844
REMARK  Name = 
REMARK  5 active torsions:
REMARK  status: ('A' for Active; 'I' for Inactive)
REMARK    1  A    between atoms: C_2  and  C_4
REMARK    2  A    between atoms: C_6  and  C_22
REMARK    3  A    between atoms: C_8  and  C_10
REMARK    4  A    between atoms: C_13  and  C_16
REMARK    5  A    between atoms: C_22  and  O_23
REMARK                            x       y       z     vdW  Elec       q    Type
REMARK                         _______ _______ _______ _____ _____    ______ ____
ROOT
ATOM      1  C   UNL     1       6.055  -3.804  22.680  0.00  0.00    +0.038 A 
ATOM      2  C   UNL     1       6.959  -2.724  22.677  0.00  0.00    +0.021 A 
ATOM      3  C   UNL     1       6.869  -1.686  23.621  0.00  0.00    -0.016 A 
ATOM      4  C   UNL     1       5.848  -1.798  24.588  0.00  0.00    +0.023 A 
ATOM      5  C   UNL     1       4.972  -2.894  24.631  0.00  0.00    +0.060 A 
ATOM      6  C   UNL     1       5.063  -3.896  23.664  0.00  0.00    +0.028 A 
ENDROOT
BRANCH   3   7
ATOM      7  C   UNL     1       7.763  -0.499  23.594  0.00  0.00    -0.018 A 
ATOM      8  C   UNL     1       7.879   0.333  22.469  0.00  0.00    +0.009 A 
ATOM      9  C   UNL     1       8.632   1.522  22.502  0.00  0.00    +0.009 A 
ATOM     10  C   UNL     1       9.287   1.952  23.667  0.00  0.00    -0.018 A 
ATOM     11  C   UNL     1       9.225   1.085  24.768  0.00  0.00    +0.009 A 
ATOM     12  C   UNL     1       8.496  -0.113  24.727  0.00  0.00    +0.009 A 
BRANCH  10  13
ATOM     13  C   UNL     1       9.946   3.282  23.768  0.00  0.00    -0.018 A 
ATOM     14  C   UNL     1      11.274   3.477  23.341  0.00  0.00    +0.008 A 
ATOM     15  C   UNL     1      11.870   4.744  23.339  0.00  0.00    +0.001 A 
ATOM     16  C   UNL     1      11.149   5.854  23.761  0.00  0.00    +0.000 A 
ATOM     17  C   UNL     1       9.842   5.694  24.208  0.00  0.00    +0.001 A 
ATOM     18  C   UNL     1       9.255   4.423  24.221  0.00  0.00    +0.008 A 
ENDBRANCH  10  13
ENDBRANCH   3   7
BRANCH   1  22
ATOM     19  N   UNL     1       6.678  -6.062  22.002  0.00  0.00    -0.325 N 
ATOM     20  H   UNL     1       6.680  -6.375  22.963  0.00  0.00    +0.145 HD
ATOM     21  H   UNL     1       6.641  -6.782  21.288  0.00  0.00    +0.145 HD
ATOM     22  C   UNL     1       6.189  -4.842  21.627  0.00  0.00    +0.242 C 
ATOM     23  O   UNL     1       5.842  -4.630  20.472  0.00  0.00    -0.270 OA
ENDBRANCH   1  22
BRANCH   5  24
ATOM     24  C   UNL     1       3.924  -2.901  25.685  0.00  0.00    +0.337 C 
ATOM     25  O   UNL     1       2.769  -2.580  25.464  0.00  0.00    -0.245 OA
BRANCH  24  26
ATOM     26  O   UNL     1       4.364  -3.270  26.905  0.00  0.00    -0.477 OA
ATOM     27  H   UNL     1       4.632  -2.545  27.499  0.00  0.00    +0.295 HD
ENDBRANCH  24  26
ENDBRANCH   5  24
TORSDOF 5
ENDMDL
MODEL 9
REMARK VINA RESULT:      -6.3      4.781      8.742
REMARK  Name = 
REMARK  5 active torsions:
REMARK  status: ('A' for Active; 'I' for Inactive)
REMARK    1  A    between atoms: C_2  and  C_4
REMARK    2  A    between atoms: C_6  and  C_22
REMARK    3  A    between atoms: C_8  and  C_10
REMARK    4  A    between atoms: C_13  and  C_16
REMARK    5  A    between atoms: C_22  and  O_23
REMARK                            x       y       z     vdW  Elec       q    Type
REMARK                         _______ _______ _______ _____ _____    ______ ____
ROOT
ATOM      1  C   UNL     1       7.897   3.976  25.589  0.00  0.00    +0.038 A 
ATOM      2  C   UNL     1       7.591   2.673  25.153  0.00  0.00    +0.021 A 
ATOM      3  C   UNL     1       8.326   2.047  24.132  0.00  0.00    -0.016 A 
ATOM      4  C   UNL     1       9.403   2.779  23.588  0.00  0.00    +0.023 A 
ATOM      5  C   UNL     1       9.748   4.059  24.049  0.00  0.00    +0.060 A 
ATOM      6  C   UNL     1       8.984   4.670  25.043  0.00  0.00    +0.028 A 
ENDROOT
BRANCH   3   7
ATOM      7  C   UNL     1       7.977   0.702  23.602  0.00  0.00    -0.018 A 
ATOM      8  C   UNL     1       8.867  -0.059  22.828  0.00  0.00    +0.009 A 
ATOM      9  C   UNL     1       8.569  -1.379  22.441  0.00  0.00    +0.009 A 
ATOM     10  C   UNL     1       7.378  -2.014  22.827  0.00  0.00    -0.018 A 
ATOM     11  C   UNL     1       6.461  -1.228  23.542  0.00  0.00    +0.009 A 
ATOM     12  C   UNL     1       6.747   0.097  23.906  0.00  0.00    +0.009 A 
BRANCH  10  13
ATOM     13  C   UNL     1       7.121  -3.456  22.570  0.00  0.00    -0.018 A 
ATOM     14  C   UNL     1       6.229  -3.874  21.563  0.00  0.00    +0.008 A 
ATOM     15  C   UNL     1       6.055  -5.226  21.245  0.00  0.00    +0.001 A 
ATOM     16  C   UNL     1       6.776  -6.200  21.925  0.00  0.00    +0.000 A 
ATOM     17  C   UNL     1       7.650  -5.824  22.938  0.00  0.00    +0.001 A 
ATOM     18  C   UNL     1       7.810  -4.471  23.262  0.00  0.00    +0.008 A 
ENDBRANCH  10  13
ENDBRANCH   3   7
BRANCH   1  22
ATOM     19  N   UNL     1       5.968   5.317  26.245  0.00  0.00    -0.325 N 
ATOM     20  H   UNL     1       5.564   5.229  25.323  0.00  0.00    +0.145 HD
ATOM     21  H   UNL     1       5.345   5.615  26.988  0.00  0.00    +0.145 HD
ATOM     22  C   UNL     1       7.051   4.586  26.646  0.00  0.00    +0.242 C 
ATOM     23  O   UNL     1       7.289   4.414  27.835  0.00  0.00    -0.270 OA
ENDBRANCH   1  22
BRANCH   5  24
ATOM     24  C   UNL     1      10.893   4.744  23.394  0.00  0.00    +0.337 C 
ATOM     25  O   UNL     1      11.995   4.232  23.296  0.00  0.00    -0.245 OA
BRANCH  24  26
ATOM     26  O   UNL     1      10.615   5.984  22.942  0.00  0.00    -0.477 OA
ATOM     27  H   UNL     1      10.389   6.052  21.997  0.00  0.00    +0.295 HD
ENDBRANCH  24  26
ENDBRANCH   5  24
TORSDOF 5
ENDMDL
