MODEL 1
REMARK VINA RESULT:      -6.4      0.000      0.000
REMARK  Name = 
REMARK  14 active torsions:
REMARK  status: ('A' for Active; 'I' for Inactive)
REMARK    1  A    between atoms: N_10  and  C_11
REMARK    2  A    between atoms: C_14  and  C_16
REMARK    3  A    between atoms: C_16  and  O_17
REMARK    4  A    between atoms: O_17  and  P_18
REMARK    5  A    between atoms: P_18  and  O_19
REMARK    6  A    between atoms: P_18  and  C_21
REMARK    7  A    between atoms: C_21  and  P_22
REMARK    8  A    between atoms: P_22  and  O_23
REMARK    9  A    between atoms: P_22  and  O_25
REMARK   10  A    between atoms: O_25  and  P_26
REMARK   11  A    between atoms: P_26  and  O_27
REMARK   12  A    between atoms: P_26  and  O_28
REMARK   13  A    between atoms: C_30  and  O_32
REMARK   14  A    between atoms: C_33  and  O_35
REMARK                            x       y       z     vdW  Elec       q    Type
REMARK                         _______ _______ _______ _____ _____    ______ ____
ROOT
ATOM      1  C   UNL     1       6.487  -2.947  24.617  0.00  0.00    +0.253 C 
ATOM      2  C   UNL     1       7.696  -3.378  25.458  0.00  0.00    +0.195 C 
ATOM      3  C   UNL     1       8.843  -3.521  24.457  0.00  0.00    +0.178 C 
ATOM      4  C   UNL     1       8.273  -2.984  23.142  0.00  0.00    +0.178 C 
ATOM      5  O   UNL     1       7.092  -2.235  23.497  0.00  0.00    -0.346 OA
ENDROOT
BRANCH   1  13
ATOM      6  N   UNL     1       2.816  -7.633  23.428  0.00  0.00    -0.341 N 
ATOM      7  H   UNL     1       2.343  -7.054  22.744  0.00  0.00    +0.144 HD
ATOM      8  H   UNL     1       2.256  -8.273  23.976  0.00  0.00    +0.144 HD
ATOM      9  C   UNL     1       3.721  -6.928  24.212  0.00  0.00    +0.147 A 
ATOM     10  C   UNL     1       4.278  -5.695  23.831  0.00  0.00    +0.147 A 
ATOM     11  N   UNL     1       4.092  -4.898  22.722  0.00  0.00    -0.231 NA
ATOM     12  C   UNL     1       4.877  -3.858  22.924  0.00  0.00    +0.203 A 
ATOM     13  N   UNL     1       5.589  -3.960  24.097  0.00  0.00    -0.286 N 
ATOM     14  C   UNL     1       5.168  -5.107  24.718  0.00  0.00    +0.167 A 
ATOM     15  N   UNL     1       5.531  -5.580  25.920  0.00  0.00    -0.216 NA
ATOM     16  C   UNL     1       4.938  -6.764  26.178  0.00  0.00    +0.225 A 
ATOM     17  N   UNL     1       4.065  -7.450  25.411  0.00  0.00    -0.219 NA
ENDBRANCH   1  13
BRANCH   2  18
ATOM     18  O   UNL     1       8.028  -2.326  26.396  0.00  0.00    -0.385 OA
ATOM     19  H   UNL     1       8.756  -1.797  26.018  0.00  0.00    +0.210 HD
ENDBRANCH   2  18
BRANCH   3  20
ATOM     20  O   UNL     1       9.238  -4.885  24.326  0.00  0.00    -0.386 OA
ATOM     21  H   UNL     1      10.132  -4.892  23.935  0.00  0.00    +0.210 HD
ENDBRANCH   3  20
BRANCH   4  22
ATOM     22  C   UNL     1       9.262  -2.115  22.364  0.00  0.00    +0.204 C 
BRANCH  22  23
ATOM     23  O   UNL     1      10.308  -1.677  23.224  0.00  0.00    -0.305 OA
BRANCH  23  24
ATOM     24  P   UNL     1      10.305   0.017  23.574  0.00  0.00    +0.342 P 
ATOM     25  O   UNL     1       9.988  -0.245  25.052  0.00  0.00    -0.258 OA
BRANCH  24  26
ATOM     26  O   UNL     1       8.852   0.143  22.809  0.00  0.00    -0.324 OA
ATOM     27  H   UNL     1       8.950   0.475  21.892  0.00  0.00    +0.220 HD
ENDBRANCH  24  26
BRANCH  24  28
ATOM     28  C   UNL     1      10.302   1.809  23.944  0.00  0.00    +0.254 C 
BRANCH  28  29
ATOM     29  P   UNL     1       8.713   2.456  23.310  0.00  0.00    +0.350 P 
ATOM     30  O   UNL     1       8.764   3.984  23.355  0.00  0.00    -0.258 OA
BRANCH  29  31
ATOM     31  O   UNL     1       9.387   2.556  21.721  0.00  0.00    -0.323 OA
ATOM     32  H   UNL     1      10.158   3.166  21.810  0.00  0.00    +0.220 HD
ENDBRANCH  29  31
BRANCH  29  33
ATOM     33  O   UNL     1       8.039   2.357  24.901  0.00  0.00    -0.208 OA
BRANCH  33  34
ATOM     34  P   UNL     1       6.398   1.818  24.800  0.00  0.00    +0.479 P 
ATOM     35  O   UNL     1       4.930   1.336  24.708  0.00  0.00    -0.227 OA
BRANCH  34  36
ATOM     36  O   UNL     1       6.996   0.317  25.060  0.00  0.00    -0.302 OA
ATOM     37  H   UNL     1       7.964   0.337  25.173  0.00  0.00    +0.222 HD
ENDBRANCH  34  36
BRANCH  34  38
ATOM     38  O   UNL     1       6.636   1.755  23.188  0.00  0.00    -0.302 OA
ATOM     39  H   UNL     1       7.545   1.421  23.049  0.00  0.00    +0.222 HD
ENDBRANCH  34  38
ENDBRANCH  33  34
ENDBRANCH  29  33
ENDBRANCH  28  29
ENDBRANCH  24  28
ENDBRANCH  23  24
ENDBRANCH  22  23
ENDBRANCH   4  22
TORSDOF 14
ENDMDL
MODEL 2
REMARK VINA RESULT:      -6.3      4.467      7.780
REMARK  Name = 
REMARK  14 active torsions:
REMARK  status: ('A' for Active; 'I' for Inactive)
REMARK    1  A    between atoms: N_10  and  C_11
REMARK    2  A    between atoms: C_14  and  C_16
REMARK    3  A    between atoms: C_16  and  O_17
REMARK    4  A    between atoms: O_17  and  P_18
REMARK    5  A    between atoms: P_18  and  O_19
REMARK    6  A    between atoms: P_18  and  C_21
REMARK    7  A    between atoms: C_21  and  P_22
REMARK    8  A    between atoms: P_22  and  O_23
REMARK    9  A    between atoms: P_22  and  O_25
REMARK   10  A    between atoms: O_25  and  P_26
REMARK   11  A    between atoms: P_26  and  O_27
REMARK   12  A    between atoms: P_26  and  O_28
REMARK   13  A    between atoms: C_30  and  O_32
REMARK   14  A    between atoms: C_33  and  O_35
REMARK                            x       y       z     vdW  Elec       q    Type
REMARK                         _______ _______ _______ _____ _____    ______ ____
ROOT
ATOM      1  C   UNL     1       7.798  -0.596  22.987  0.00  0.00    +0.253 C 
ATOM      2  C   UNL     1       8.294  -1.908  22.363  0.00  0.00    +0.195 C 
ATOM      3  C   UNL     1       9.050  -2.619  23.486  0.00  0.00    +0.178 C 
ATOM      4  C   UNL     1       8.781  -1.766  24.729  0.00  0.00    +0.178 C 
ATOM      5  O   UNL     1       7.653  -0.929  24.401  0.00  0.00    -0.346 OA
ENDROOT
BRANCH   1  13
ATOM      6  N   UNL     1      10.684   4.729  23.391  0.00  0.00    -0.341 N 
ATOM      7  H   UNL     1      11.477   4.305  22.924  0.00  0.00    +0.144 HD
ATOM      8  H   UNL     1      10.869   5.400  24.125  0.00  0.00    +0.144 HD
ATOM      9  C   UNL     1       9.705   3.812  23.756  0.00  0.00    +0.147 A 
ATOM     10  C   UNL     1       9.575   2.545  23.163  0.00  0.00    +0.147 A 
ATOM     11  N   UNL     1      10.304   1.898  22.190  0.00  0.00    -0.231 NA
ATOM     12  C   UNL     1       9.714   0.727  22.054  0.00  0.00    +0.203 A 
ATOM     13  N   UNL     1       8.614   0.597  22.871  0.00  0.00    -0.286 N 
ATOM     14  C   UNL     1       8.550   1.735  23.631  0.00  0.00    +0.167 A 
ATOM     15  N   UNL     1       7.686   2.027  24.616  0.00  0.00    -0.216 NA
ATOM     16  C   UNL     1       7.904   3.264  25.107  0.00  0.00    +0.225 A 
ATOM     17  N   UNL     1       8.850   4.155  24.746  0.00  0.00    -0.219 NA
ENDBRANCH   1  13
BRANCH   2  18
ATOM     18  O   UNL     1       7.156  -2.718  21.983  0.00  0.00    -0.385 OA
ATOM     19  H   UNL     1       6.532  -2.739  22.733  0.00  0.00    +0.210 HD
ENDBRANCH   2  18
BRANCH   3  20
ATOM     20  O   UNL     1      10.445  -2.683  23.200  0.00  0.00    -0.386 OA
ATOM     21  H   UNL     1      10.870  -1.933  23.658  0.00  0.00    +0.210 HD
ENDBRANCH   3  20
BRANCH   4  22
ATOM     22  C   UNL     1       8.503  -2.597  25.983  0.00  0.00    +0.204 C 
BRANCH  22  23
ATOM     23  O   UNL     1       7.159  -2.403  26.409  0.00  0.00    -0.305 OA
BRANCH  23  24
ATOM     24  P   UNL     1       6.135  -3.787  26.249  0.00  0.00    +0.342 P 
ATOM     25  O   UNL     1       7.345  -4.725  26.148  0.00  0.00    -0.258 OA
BRANCH  24  26
ATOM     26  O   UNL     1       5.790  -3.317  24.708  0.00  0.00    -0.324 OA
ATOM     27  H   UNL     1       4.906  -3.628  24.420  0.00  0.00    +0.220 HD
ENDBRANCH  24  26
BRANCH  24  28
ATOM     28  C   UNL     1       5.050  -5.252  26.079  0.00  0.00    +0.254 C 
BRANCH  28  29
ATOM     29  P   UNL     1       4.132  -5.025  24.513  0.00  0.00    +0.350 P 
ATOM     30  O   UNL     1       2.869  -5.885  24.569  0.00  0.00    -0.258 OA
BRANCH  29  31
ATOM     31  O   UNL     1       3.209  -3.755  25.237  0.00  0.00    -0.323 OA
ATOM     32  H   UNL     1       3.859  -3.029  25.400  0.00  0.00    +0.220 HD
ENDBRANCH  29  31
BRANCH  29  33
ATOM     33  O   UNL     1       5.056  -6.297  23.788  0.00  0.00    -0.208 OA
BRANCH  33  34
ATOM     34  P   UNL     1       5.570  -5.809  22.211  0.00  0.00    +0.479 P 
ATOM     35  O   UNL     1       6.029  -5.372  20.799  0.00  0.00    -0.227 OA
BRANCH  34  36
ATOM     36  O   UNL     1       6.926  -5.264  22.946  0.00  0.00    -0.302 OA
ATOM     37  H   UNL     1       7.718  -5.449  22.408  0.00  0.00    +0.222 HD
ENDBRANCH  34  36
BRANCH  34  38
ATOM     38  O   UNL     1       4.734  -4.436  22.485  0.00  0.00    -0.302 OA
ATOM     39  H   UNL     1       5.323  -3.844  22.995  0.00  0.00    +0.222 HD
ENDBRANCH  34  38
ENDBRANCH  33  34
ENDBRANCH  29  33
ENDBRANCH  28  29
ENDBRANCH  24  28
ENDBRANCH  23  24
ENDBRANCH  22  23
ENDBRANCH   4  22
TORSDOF 14
ENDMDL
MODEL 3
REMARK VINA RESULT:      -6.3      4.655      7.644
REMARK  Name = 
REMARK  14 active torsions:
REMARK  status: ('A' for Active; 'I' for Inactive)
REMARK    1  A    between atoms: N_10  and  C_11
REMARK    2  A    between atoms: C_14  and  C_16
REMARK    3  A    between atoms: C_16  and  O_17
REMARK    4  A    between atoms: O_17  and  P_18
REMARK    5  A    between atoms: P_18  and  O_19
REMARK    6  A    between atoms: P_18  and  C_21
REMARK    7  A    between atoms: C_21  and  P_22
REMARK    8  A    between atoms: P_22  and  O_23
REMARK    9  A    between atoms: P_22  and  O_25
REMARK   10  A    between atoms: O_25  and  P_26
REMARK   11  A    between atoms: P_26  and  O_27
REMARK   12  A    between atoms: P_26  and  O_28
REMARK   13  A    between atoms: C_30  and  O_32
REMARK   14  A    between atoms: C_33  and  O_35
REMARK                            x       y       z     vdW  Elec       q    Type
REMARK                         _______ _______ _______ _____ _____    ______ ____
ROOT
ATOM      1  C   UNL     1       7.323  -2.905  23.296  0.00  0.00    +0.253 C 
ATOM      2  C   UNL     1       7.908  -4.323  23.366  0.00  0.00    +0.195 C 
ATOM      3  C   UNL     1       8.521  -4.428  24.762  0.00  0.00    +0.178 C 
ATOM      4  C   UNL     1       8.086  -3.143  25.470  0.00  0.00    +0.178 C 
ATOM      5  O   UNL     1       7.000  -2.605  24.687  0.00  0.00    -0.346 OA
ENDROOT
BRANCH   1  13
ATOM      6  N   UNL     1       9.966   2.254  21.498  0.00  0.00    -0.341 N 
ATOM      7  H   UNL     1      10.858   1.773  21.518  0.00  0.00    +0.144 HD
ATOM      8  H   UNL     1       9.943   3.222  21.792  0.00  0.00    +0.144 HD
ATOM      9  C   UNL     1       8.930   1.514  22.054  0.00  0.00    +0.147 A 
ATOM     10  C   UNL     1       8.971   0.117  22.201  0.00  0.00    +0.147 A 
ATOM     11  N   UNL     1       9.939  -0.818  21.907  0.00  0.00    -0.231 NA
ATOM     12  C   UNL     1       9.413  -1.970  22.274  0.00  0.00    +0.203 A 
ATOM     13  N   UNL     1       8.134  -1.829  22.762  0.00  0.00    -0.286 N 
ATOM     14  C   UNL     1       7.861  -0.487  22.776  0.00  0.00    +0.167 A 
ATOM     15  N   UNL     1       6.762   0.132  23.235  0.00  0.00    -0.216 NA
ATOM     16  C   UNL     1       6.833   1.465  23.041  0.00  0.00    +0.225 A 
ATOM     17  N   UNL     1       7.838   2.179  22.494  0.00  0.00    -0.219 NA
ENDBRANCH   1  13
BRANCH   2  18
ATOM     18  O   UNL     1       6.837  -5.290  23.255  0.00  0.00    -0.385 OA
ATOM     19  H   UNL     1       6.116  -5.020  23.854  0.00  0.00    +0.210 HD
ENDBRANCH   2  18
BRANCH   3  20
ATOM     20  O   UNL     1       9.942  -4.519  24.690  0.00  0.00    -0.386 OA
ATOM     21  H   UNL     1      10.157  -5.135  23.963  0.00  0.00    +0.210 HD
ENDBRANCH   3  20
BRANCH   4  22
ATOM     22  C   UNL     1       7.659  -3.367  26.922  0.00  0.00    +0.204 C 
BRANCH  22  23
ATOM     23  O   UNL     1       7.729  -4.752  27.244  0.00  0.00    -0.305 OA
BRANCH  23  24
ATOM     24  P   UNL     1       6.209  -5.499  27.593  0.00  0.00    +0.342 P 
ATOM     25  O   UNL     1       6.850  -6.406  28.652  0.00  0.00    -0.258 OA
BRANCH  24  26
ATOM     26  O   UNL     1       6.315  -6.315  26.166  0.00  0.00    -0.324 OA
ATOM     27  H   UNL     1       6.499  -5.714  25.414  0.00  0.00    +0.220 HD
ENDBRANCH  24  26
BRANCH  24  28
ATOM     28  C   UNL     1       4.600  -6.289  27.962  0.00  0.00    +0.254 C 
BRANCH  28  29
ATOM     29  P   UNL     1       3.382  -5.507  26.844  0.00  0.00    +0.350 P 
ATOM     30  O   UNL     1       1.979  -5.862  27.340  0.00  0.00    -0.258 OA
BRANCH  29  31
ATOM     31  O   UNL     1       3.316  -4.126  27.883  0.00  0.00    -0.323 OA
ATOM     32  H   UNL     1       4.074  -4.239  28.506  0.00  0.00    +0.220 HD
ENDBRANCH  29  31
BRANCH  29  33
ATOM     33  O   UNL     1       3.447  -6.889  25.806  0.00  0.00    -0.208 OA
BRANCH  33  34
ATOM     34  P   UNL     1       3.331  -6.378  24.158  0.00  0.00    +0.479 P 
ATOM     35  O   UNL     1       3.228  -5.919  22.683  0.00  0.00    -0.227 OA
BRANCH  34  36
ATOM     36  O   UNL     1       4.655  -7.304  23.897  0.00  0.00    -0.302 OA
ATOM     37  H   UNL     1       5.443  -6.921  24.324  0.00  0.00    +0.222 HD
ENDBRANCH  34  36
BRANCH  34  38
ATOM     38  O   UNL     1       4.197  -5.075  24.618  0.00  0.00    -0.302 OA
ATOM     39  H   UNL     1       4.989  -5.044  24.045  0.00  0.00    +0.222 HD
ENDBRANCH  34  38
ENDBRANCH  33  34
ENDBRANCH  29  33
ENDBRANCH  28  29
ENDBRANCH  24  28
ENDBRANCH  23  24
ENDBRANCH  22  23
ENDBRANCH   4  22
TORSDOF 14
ENDMDL
MODEL 4
REMARK VINA RESULT:      -6.2      4.665      7.978
REMARK  Name = 
REMARK  14 active torsions:
REMARK  status: ('A' for Active; 'I' for Inactive)
REMARK    1  A    between atoms: N_10  and  C_11
REMARK    2  A    between atoms: C_14  and  C_16
REMARK    3  A    between atoms: C_16  and  O_17
REMARK    4  A    between atoms: O_17  and  P_18
REMARK    5  A    between atoms: P_18  and  O_19
REMARK    6  A    between atoms: P_18  and  C_21
REMARK    7  A    between atoms: C_21  and  P_22
REMARK    8  A    between atoms: P_22  and  O_23
REMARK    9  A    between atoms: P_22  and  O_25
REMARK   10  A    between atoms: O_25  and  P_26
REMARK   11  A    between atoms: P_26  and  O_27
REMARK   12  A    between atoms: P_26  and  O_28
REMARK   13  A    between atoms: C_30  and  O_32
REMARK   14  A    between atoms: C_33  and  O_35
REMARK                            x       y       z     vdW  Elec       q    Type
REMARK                         _______ _______ _______ _____ _____    ______ ____
ROOT
ATOM      1  C   UNL     1       9.141  -0.405  25.135  0.00  0.00    +0.253 C 
ATOM      2  C   UNL     1       7.689  -0.697  25.538  0.00  0.00    +0.195 C 
ATOM      3  C   UNL     1       7.055  -1.334  24.301  0.00  0.00    +0.178 C 
ATOM      4  C   UNL     1       8.225  -1.541  23.335  0.00  0.00    +0.178 C 
ATOM      5  O   UNL     1       9.423  -1.426  24.130  0.00  0.00    -0.346 OA
ENDROOT
BRANCH   1  13
ATOM      6  N   UNL     1       9.595   5.352  23.266  0.00  0.00    -0.341 N 
ATOM      7  H   UNL     1      10.602   5.255  23.300  0.00  0.00    +0.144 HD
ATOM      8  H   UNL     1       9.193   6.238  23.543  0.00  0.00    +0.144 HD
ATOM      9  C   UNL     1       8.920   4.274  23.828  0.00  0.00    +0.147 A 
ATOM     10  C   UNL     1       9.499   3.005  23.999  0.00  0.00    +0.147 A 
ATOM     11  N   UNL     1      10.757   2.516  23.727  0.00  0.00    -0.231 NA
ATOM     12  C   UNL     1      10.716   1.256  24.110  0.00  0.00    +0.203 A 
ATOM     13  N   UNL     1       9.477   0.894  24.588  0.00  0.00    -0.286 N 
ATOM     14  C   UNL     1       8.703   2.025  24.577  0.00  0.00    +0.167 A 
ATOM     15  N   UNL     1       7.445   2.174  25.019  0.00  0.00    -0.216 NA
ATOM     16  C   UNL     1       6.995   3.427  24.803  0.00  0.00    +0.225 A 
ATOM     17  N   UNL     1       7.650   4.469  24.249  0.00  0.00    -0.219 NA
ENDBRANCH   1  13
BRANCH   2  18
ATOM     18  O   UNL     1       7.675  -1.664  26.616  0.00  0.00    -0.385 OA
ATOM     19  H   UNL     1       7.300  -2.497  26.275  0.00  0.00    +0.210 HD
ENDBRANCH   2  18
BRANCH   3  20
ATOM     20  O   UNL     1       6.068  -0.475  23.735  0.00  0.00    -0.386 OA
ATOM     21  H   UNL     1       6.519   0.348  23.465  0.00  0.00    +0.210 HD
ENDBRANCH   3  20
BRANCH   4  22
ATOM     22  C   UNL     1       8.176  -2.884  22.606  0.00  0.00    +0.204 C 
BRANCH  22  23
ATOM     23  O   UNL     1       6.918  -3.042  21.957  0.00  0.00    -0.305 OA
BRANCH  23  24
ATOM     24  P   UNL     1       6.138  -4.561  22.235  0.00  0.00    +0.342 P 
ATOM     25  O   UNL     1       6.068  -4.850  20.730  0.00  0.00    -0.258 OA
BRANCH  24  26
ATOM     26  O   UNL     1       4.755  -3.748  22.611  0.00  0.00    -0.324 OA
ATOM     27  H   UNL     1       4.539  -3.066  21.941  0.00  0.00    +0.220 HD
ENDBRANCH  24  26
BRANCH  24  28
ATOM     28  C   UNL     1       5.313  -6.167  22.531  0.00  0.00    +0.254 C 
BRANCH  28  29
ATOM     29  P   UNL     1       5.099  -6.303  24.343  0.00  0.00    +0.350 P 
ATOM     30  O   UNL     1       3.972  -5.358  24.765  0.00  0.00    -0.258 OA
BRANCH  29  31
ATOM     31  O   UNL     1       3.890  -7.517  24.109  0.00  0.00    -0.323 OA
ATOM     32  H   UNL     1       3.555  -7.720  25.016  0.00  0.00    +0.220 HD
ENDBRANCH  29  31
BRANCH  29  33
ATOM     33  O   UNL     1       6.308  -5.087  24.576  0.00  0.00    -0.208 OA
BRANCH  33  34
ATOM     34  P   UNL     1       6.973  -5.233  26.166  0.00  0.00    +0.479 P 
ATOM     35  O   UNL     1       7.568  -5.362  27.589  0.00  0.00    -0.227 OA
BRANCH  34  36
ATOM     36  O   UNL     1       5.868  -6.417  26.395  0.00  0.00    -0.302 OA
ATOM     37  H   UNL     1       5.300  -6.527  25.611  0.00  0.00    +0.222 HD
ENDBRANCH  34  36
BRANCH  34  38
ATOM     38  O   UNL     1       5.944  -4.039  26.585  0.00  0.00    -0.302 OA
ATOM     39  H   UNL     1       6.184  -3.765  27.493  0.00  0.00    +0.222 HD
ENDBRANCH  34  38
ENDBRANCH  33  34
ENDBRANCH  29  33
ENDBRANCH  28  29
ENDBRANCH  24  28
ENDBRANCH  23  24
ENDBRANCH  22  23
ENDBRANCH   4  22
TORSDOF 14
ENDMDL
MODEL 5
REMARK VINA RESULT:      -6.1      2.220      3.775
REMARK  Name = 
REMARK  14 active torsions:
REMARK  status: ('A' for Active; 'I' for Inactive)
REMARK    1  A    between atoms: N_10  and  C_11
REMARK    2  A    between atoms: C_14  and  C_16
REMARK    3  A    between atoms: C_16  and  O_17
REMARK    4  A    between atoms: O_17  and  P_18
REMARK    5  A    between atoms: P_18  and  O_19
REMARK    6  A    between atoms: P_18  and  C_21
REMARK    7  A    between atoms: C_21  and  P_22
REMARK    8  A    between atoms: P_22  and  O_23
REMARK    9  A    between atoms: P_22  and  O_25
REMARK   10  A    between atoms: O_25  and  P_26
REMARK   11  A    between atoms: P_26  and  O_27
REMARK   12  A    between atoms: P_26  and  O_28
REMARK   13  A    between atoms: C_30  and  O_32
REMARK   14  A    between atoms: C_33  and  O_35
REMARK                            x       y       z     vdW  Elec       q    Type
REMARK                         _______ _______ _______ _____ _____    ______ ____
ROOT
ATOM      1  C   UNL     1       9.559  -2.262  23.596  0.00  0.00    +0.253 C 
ATOM      2  C   UNL     1       9.032  -1.568  22.332  0.00  0.00    +0.195 C 
ATOM      3  C   UNL     1       8.688  -0.146  22.777  0.00  0.00    +0.178 C 
ATOM      4  C   UNL     1       9.213  -0.056  24.212  0.00  0.00    +0.178 C 
ATOM      5  O   UNL     1      10.123  -1.164  24.374  0.00  0.00    -0.346 OA
ENDROOT
BRANCH   1  13
ATOM      6  N   UNL     1       5.448  -5.897  26.191  0.00  0.00    -0.341 N 
ATOM      7  H   UNL     1       5.954  -5.802  27.063  0.00  0.00    +0.144 HD
ATOM      8  H   UNL     1       5.036  -6.796  25.976  0.00  0.00    +0.144 HD
ATOM      9  C   UNL     1       6.124  -5.359  25.102  0.00  0.00    +0.147 A 
ATOM     10  C   UNL     1       7.140  -4.396  25.223  0.00  0.00    +0.147 A 
ATOM     11  N   UNL     1       7.723  -3.796  26.318  0.00  0.00    -0.231 NA
ATOM     12  C   UNL     1       8.628  -2.983  25.810  0.00  0.00    +0.203 A 
ATOM     13  N   UNL     1       8.637  -3.003  24.434  0.00  0.00    -0.286 N 
ATOM     14  C   UNL     1       7.727  -3.951  24.046  0.00  0.00    +0.167 A 
ATOM     15  N   UNL     1       7.443  -4.369  22.803  0.00  0.00    -0.216 NA
ATOM     16  C   UNL     1       6.456  -5.288  22.809  0.00  0.00    +0.225 A 
ATOM     17  N   UNL     1       5.797  -5.803  23.868  0.00  0.00    -0.219 NA
ENDBRANCH   1  13
BRANCH   2  18
ATOM     18  O   UNL     1      10.088  -1.503  21.344  0.00  0.00    -0.385 OA
ATOM     19  H   UNL     1       9.790  -0.928  20.615  0.00  0.00    +0.210 HD
ENDBRANCH   2  18
BRANCH   3  20
ATOM     20  O   UNL     1       7.280   0.076  22.731  0.00  0.00    -0.386 OA
ATOM     21  H   UNL     1       7.142   1.014  22.499  0.00  0.00    +0.210 HD
ENDBRANCH   3  20
BRANCH   4  22
ATOM     22  C   UNL     1       9.904   1.273  24.521  0.00  0.00    +0.204 C 
BRANCH  22  23
ATOM     23  O   UNL     1       9.871   2.118  23.375  0.00  0.00    -0.305 OA
BRANCH  23  24
ATOM     24  P   UNL     1       9.027   3.612  23.594  0.00  0.00    +0.342 P 
ATOM     25  O   UNL     1       8.520   3.174  24.974  0.00  0.00    -0.258 OA
BRANCH  24  26
ATOM     26  O   UNL     1       7.900   3.101  22.508  0.00  0.00    -0.324 OA
ATOM     27  H   UNL     1       7.467   2.269  22.794  0.00  0.00    +0.220 HD
ENDBRANCH  24  26
BRANCH  24  28
ATOM     28  C   UNL     1       8.136   5.194  23.825  0.00  0.00    +0.254 C 
BRANCH  28  29
ATOM     29  P   UNL     1       6.657   5.104  22.752  0.00  0.00    +0.350 P 
ATOM     30  O   UNL     1       5.862   6.400  22.921  0.00  0.00    -0.258 OA
BRANCH  29  31
ATOM     31  O   UNL     1       7.529   5.894  21.485  0.00  0.00    -0.323 OA
ATOM     32  H   UNL     1       8.446   6.002  21.835  0.00  0.00    +0.220 HD
ENDBRANCH  29  31
BRANCH  29  33
ATOM     33  O   UNL     1       5.784   4.315  24.021  0.00  0.00    -0.208 OA
BRANCH  33  34
ATOM     34  P   UNL     1       4.375   3.555  23.365  0.00  0.00    +0.479 P 
ATOM     35  O   UNL     1       3.115   2.876  22.777  0.00  0.00    -0.227 OA
BRANCH  34  36
ATOM     36  O   UNL     1       5.201   2.151  23.519  0.00  0.00    -0.302 OA
ATOM     37  H   UNL     1       4.605   1.383  23.455  0.00  0.00    +0.222 HD
ENDBRANCH  34  36
BRANCH  34  38
ATOM     38  O   UNL     1       5.008   3.898  21.902  0.00  0.00    -0.302 OA
ATOM     39  H   UNL     1       4.457   4.606  21.514  0.00  0.00    +0.222 HD
ENDBRANCH  34  38
ENDBRANCH  33  34
ENDBRANCH  29  33
ENDBRANCH  28  29
ENDBRANCH  24  28
ENDBRANCH  23  24
ENDBRANCH  22  23
ENDBRANCH   4  22
TORSDOF 14
ENDMDL
MODEL 6
REMARK VINA RESULT:      -6.1      4.855      8.280
REMARK  Name = 
REMARK  14 active torsions:
REMARK  status: ('A' for Active; 'I' for Inactive)
REMARK    1  A    between atoms: N_10  and  C_11
REMARK    2  A    between atoms: C_14  and  C_16
REMARK    3  A    between atoms: C_16  and  O_17
REMARK    4  A    between atoms: O_17  and  P_18
REMARK    5  A    between atoms: P_18  and  O_19
REMARK    6  A    between atoms: P_18  and  C_21
REMARK    7  A    between atoms: C_21  and  P_22
REMARK    8  A    between atoms: P_22  and  O_23
REMARK    9  A    between atoms: P_22  and  O_25
REMARK   10  A    between atoms: O_25  and  P_26
REMARK   11  A    between atoms: P_26  and  O_27
REMARK   12  A    between atoms: P_26  and  O_28
REMARK   13  A    between atoms: C_30  and  O_32
REMARK   14  A    between atoms: C_33  and  O_35
REMARK                            x       y       z     vdW  Elec       q    Type
REMARK                         _______ _______ _______ _____ _____    ______ ____
ROOT
ATOM      1  C   UNL     1       8.392   0.511  22.535  0.00  0.00    +0.253 C 
ATOM      2  C   UNL     1       9.814  -0.062  22.448  0.00  0.00    +0.195 C 
ATOM      3  C   UNL     1      10.077  -0.676  23.823  0.00  0.00    +0.178 C 
ATOM      4  C   UNL     1       8.732  -0.586  24.547  0.00  0.00    +0.178 C 
ATOM      5  O   UNL     1       7.744  -0.346  23.523  0.00  0.00    -0.346 OA
ENDROOT
BRANCH   1  13
ATOM      6  N   UNL     1       8.705   6.379  24.055  0.00  0.00    -0.341 N 
ATOM      7  H   UNL     1       7.759   6.491  23.710  0.00  0.00    +0.144 HD
ATOM      8  H   UNL     1       9.359   7.134  23.900  0.00  0.00    +0.144 HD
ATOM      9  C   UNL     1       9.257   5.140  23.753  0.00  0.00    +0.147 A 
ATOM     10  C   UNL     1       8.486   4.008  23.435  0.00  0.00    +0.147 A 
ATOM     11  N   UNL     1       7.128   3.817  23.309  0.00  0.00    -0.231 NA
ATOM     12  C   UNL     1       6.998   2.546  22.983  0.00  0.00    +0.203 A 
ATOM     13  N   UNL     1       8.209   1.895  22.924  0.00  0.00    -0.286 N 
ATOM     14  C   UNL     1       9.177   2.837  23.154  0.00  0.00    +0.167 A 
ATOM     15  N   UNL     1      10.510   2.682  23.125  0.00  0.00    -0.216 NA
ATOM     16  C   UNL     1      11.143   3.828  23.446  0.00  0.00    +0.225 A 
ATOM     17  N   UNL     1      10.604   5.028  23.746  0.00  0.00    -0.219 NA
ENDBRANCH   1  13
BRANCH   2  18
ATOM     18  O   UNL     1       9.847  -1.115  21.455  0.00  0.00    -0.385 OA
ATOM     19  H   UNL     1      10.334  -1.873  21.829  0.00  0.00    +0.210 HD
ENDBRANCH   2  18
BRANCH   3  20
ATOM     20  O   UNL     1      11.085   0.052  24.521  0.00  0.00    -0.386 OA
ATOM     21  H   UNL     1      11.532  -0.575  25.122  0.00  0.00    +0.210 HD
ENDBRANCH   3  20
BRANCH   4  22
ATOM     22  C   UNL     1       8.394  -1.843  25.352  0.00  0.00    +0.204 C 
BRANCH  22  23
ATOM     23  O   UNL     1       8.920  -2.995  24.703  0.00  0.00    -0.305 OA
BRANCH  23  24
ATOM     24  P   UNL     1       7.734  -4.080  24.064  0.00  0.00    +0.342 P 
ATOM     25  O   UNL     1       8.742  -5.236  24.039  0.00  0.00    -0.258 OA
BRANCH  24  26
ATOM     26  O   UNL     1       7.868  -3.323  22.607  0.00  0.00    -0.324 OA
ATOM     27  H   UNL     1       8.454  -2.538  22.655  0.00  0.00    +0.220 HD
ENDBRANCH  24  26
BRANCH  24  28
ATOM     28  C   UNL     1       6.478  -5.227  23.388  0.00  0.00    +0.254 C 
BRANCH  28  29
ATOM     29  P   UNL     1       5.591  -5.917  24.832  0.00  0.00    +0.350 P 
ATOM     30  O   UNL     1       4.224  -5.238  24.924  0.00  0.00    -0.258 OA
BRANCH  29  31
ATOM     31  O   UNL     1       4.850  -7.100  23.812  0.00  0.00    -0.323 OA
ATOM     32  H   UNL     1       4.538  -6.596  23.022  0.00  0.00    +0.220 HD
ENDBRANCH  29  31
BRANCH  29  33
ATOM     33  O   UNL     1       6.333  -4.732  25.853  0.00  0.00    -0.208 OA
BRANCH  33  34
ATOM     34  P   UNL     1       6.450  -5.352  27.463  0.00  0.00    +0.479 P 
ATOM     35  O   UNL     1       6.554  -5.907  28.905  0.00  0.00    -0.227 OA
BRANCH  34  36
ATOM     36  O   UNL     1       7.950  -5.851  27.040  0.00  0.00    -0.302 OA
ATOM     37  H   UNL     1       8.130  -6.749  27.374  0.00  0.00    +0.222 HD
ENDBRANCH  34  36
BRANCH  34  38
ATOM     38  O   UNL     1       5.719  -6.689  26.883  0.00  0.00    -0.302 OA
ATOM     39  H   UNL     1       6.405  -7.205  26.413  0.00  0.00    +0.222 HD
ENDBRANCH  34  38
ENDBRANCH  33  34
ENDBRANCH  29  33
ENDBRANCH  28  29
ENDBRANCH  24  28
ENDBRANCH  23  24
ENDBRANCH  22  23
ENDBRANCH   4  22
TORSDOF 14
ENDMDL
MODEL 7
REMARK VINA RESULT:      -6.0      2.547      3.143
REMARK  Name = 
REMARK  14 active torsions:
REMARK  status: ('A' for Active; 'I' for Inactive)
REMARK    1  A    between atoms: N_10  and  C_11
REMARK    2  A    between atoms: C_14  and  C_16
REMARK    3  A    between atoms: C_16  and  O_17
REMARK    4  A    between atoms: O_17  and  P_18
REMARK    5  A    between atoms: P_18  and  O_19
REMARK    6  A    between atoms: P_18  and  C_21
REMARK    7  A    between atoms: C_21  and  P_22
REMARK    8  A    between atoms: P_22  and  O_23
REMARK    9  A    between atoms: P_22  and  O_25
REMARK   10  A    between atoms: O_25  and  P_26
REMARK   11  A    between atoms: P_26  and  O_27
REMARK   12  A    between atoms: P_26  and  O_28
REMARK   13  A    between atoms: C_30  and  O_32
REMARK   14  A    between atoms: C_33  and  O_35
REMARK                            x       y       z     vdW  Elec       q    Type
REMARK                         _______ _______ _______ _____ _____    ______ ____
ROOT
ATOM      1  C   UNL     1       7.746  -1.268  23.794  0.00  0.00    +0.253 C 
ATOM      2  C   UNL     1       9.175  -1.482  24.309  0.00  0.00    +0.195 C 
ATOM      3  C   UNL     1      10.079  -0.909  23.217  0.00  0.00    +0.178 C 
ATOM      4  C   UNL     1       9.115  -0.235  22.237  0.00  0.00    +0.178 C 
ATOM      5  O   UNL     1       7.866  -0.088  22.944  0.00  0.00    -0.346 OA
ENDROOT
BRANCH   1  13
ATOM      6  N   UNL     1       5.673  -6.356  21.212  0.00  0.00    -0.341 N 
ATOM      7  H   UNL     1       4.798  -5.877  21.035  0.00  0.00    +0.144 HD
ATOM      8  H   UNL     1       5.636  -7.334  21.465  0.00  0.00    +0.144 HD
ATOM      9  C   UNL     1       6.536  -5.637  22.030  0.00  0.00    +0.147 A 
ATOM     10  C   UNL     1       6.445  -4.247  22.217  0.00  0.00    +0.147 A 
ATOM     11  N   UNL     1       5.566  -3.303  21.735  0.00  0.00    -0.231 NA
ATOM     12  C   UNL     1       5.974  -2.166  22.262  0.00  0.00    +0.203 A 
ATOM     13  N   UNL     1       7.100  -2.323  23.038  0.00  0.00    -0.286 N 
ATOM     14  C   UNL     1       7.377  -3.665  23.066  0.00  0.00    +0.167 A 
ATOM     15  N   UNL     1       8.340  -4.299  23.752  0.00  0.00    -0.216 NA
ATOM     16  C   UNL     1       8.333  -5.623  23.495  0.00  0.00    +0.225 A 
ATOM     17  N   UNL     1       7.498  -6.317  22.694  0.00  0.00    -0.219 NA
ENDBRANCH   1  13
BRANCH   2  18
ATOM     18  O   UNL     1       9.369  -0.714  25.522  0.00  0.00    -0.385 OA
ATOM     19  H   UNL     1       9.114  -1.271  26.280  0.00  0.00    +0.210 HD
ENDBRANCH   2  18
BRANCH   3  20
ATOM     20  O   UNL     1      10.823  -1.943  22.576  0.00  0.00    -0.386 OA
ATOM     21  H   UNL     1      10.463  -2.795  22.888  0.00  0.00    +0.210 HD
ENDBRANCH   3  20
BRANCH   4  22
ATOM     22  C   UNL     1       9.619   1.115  21.724  0.00  0.00    +0.204 C 
BRANCH  22  23
ATOM     23  O   UNL     1      10.399   1.757  22.727  0.00  0.00    -0.305 OA
BRANCH  23  24
ATOM     24  P   UNL     1       9.631   3.099  23.503  0.00  0.00    +0.342 P 
ATOM     25  O   UNL     1       9.143   2.209  24.654  0.00  0.00    -0.258 OA
BRANCH  24  26
ATOM     26  O   UNL     1       8.452   3.050  22.355  0.00  0.00    -0.324 OA
ATOM     27  H   UNL     1       7.558   2.976  22.751  0.00  0.00    +0.220 HD
ENDBRANCH  24  26
BRANCH  24  28
ATOM     28  C   UNL     1       8.819   4.518  24.324  0.00  0.00    +0.254 C 
BRANCH  28  29
ATOM     29  P   UNL     1       7.428   5.004  23.239  0.00  0.00    +0.350 P 
ATOM     30  O   UNL     1       6.784   6.264  23.820  0.00  0.00    -0.258 OA
BRANCH  29  31
ATOM     31  O   UNL     1       8.484   6.046  22.351  0.00  0.00    -0.323 OA
ATOM     32  H   UNL     1       9.359   5.587  22.357  0.00  0.00    +0.220 HD
ENDBRANCH  29  31
BRANCH  29  33
ATOM     33  O   UNL     1       6.371   3.962  24.128  0.00  0.00    -0.208 OA
BRANCH  33  34
ATOM     34  P   UNL     1       5.011   3.545  23.144  0.00  0.00    +0.479 P 
ATOM     35  O   UNL     1       3.794   3.172  22.263  0.00  0.00    -0.227 OA
BRANCH  34  36
ATOM     36  O   UNL     1       5.740   2.092  22.954  0.00  0.00    -0.302 OA
ATOM     37  H   UNL     1       5.527   1.491  23.691  0.00  0.00    +0.222 HD
ENDBRANCH  34  36
BRANCH  34  38
ATOM     38  O   UNL     1       5.827   4.241  21.917  0.00  0.00    -0.302 OA
ATOM     39  H   UNL     1       5.202   4.846  21.469  0.00  0.00    +0.222 HD
ENDBRANCH  34  38
ENDBRANCH  33  34
ENDBRANCH  29  33
ENDBRANCH  28  29
ENDBRANCH  24  28
ENDBRANCH  23  24
ENDBRANCH  22  23
ENDBRANCH   4  22
TORSDOF 14
ENDMDL
MODEL 8
REMARK VINA RESULT:      -6.0      4.982      8.085
REMARK  Name = 
REMARK  14 active torsions:
REMARK  status: ('A' for Active; 'I' for Inactive)
REMARK    1  A    between atoms: N_10  and  C_11
REMARK    2  A    between atoms: C_14  and  C_16
REMARK    3  A    between atoms: C_16  and  O_17
REMARK    4  A    between atoms: O_17  and  P_18
REMARK    5  A    between atoms: P_18  and  O_19
REMARK    6  A    between atoms: P_18  and  C_21
REMARK    7  A    between atoms: C_21  and  P_22
REMARK    8  A    between atoms: P_22  and  O_23
REMARK    9  A    between atoms: P_22  and  O_25
REMARK   10  A    between atoms: O_25  and  P_26
REMARK   11  A    between atoms: P_26  and  O_27
REMARK   12  A    between atoms: P_26  and  O_28
REMARK   13  A    between atoms: C_30  and  O_32
REMARK   14  A    between atoms: C_33  and  O_35
REMARK                            x       y       z     vdW  Elec       q    Type
REMARK                         _______ _______ _______ _____ _____    ______ ____
ROOT
ATOM      1  C   UNL     1       8.505   0.217  22.261  0.00  0.00    +0.253 C 
ATOM      2  C   UNL     1       9.898  -0.315  22.626  0.00  0.00    +0.195 C 
ATOM      3  C   UNL     1       9.756  -0.850  24.052  0.00  0.00    +0.178 C 
ATOM      4  C   UNL     1       8.256  -0.767  24.344  0.00  0.00    +0.178 C 
ATOM      5  O   UNL     1       7.609  -0.609  23.064  0.00  0.00    -0.346 OA
ENDROOT
BRANCH   1  13
ATOM      6  N   UNL     1       8.272   6.169  23.429  0.00  0.00    -0.341 N 
ATOM      7  H   UNL     1       7.447   6.224  22.845  0.00  0.00    +0.144 HD
ATOM      8  H   UNL     1       8.926   6.940  23.401  0.00  0.00    +0.144 HD
ATOM      9  C   UNL     1       8.913   4.937  23.361  0.00  0.00    +0.147 A 
ATOM     10  C   UNL     1       8.279   3.760  22.928  0.00  0.00    +0.147 A 
ATOM     11  N   UNL     1       7.005   3.509  22.467  0.00  0.00    -0.231 NA
ATOM     12  C   UNL     1       6.995   2.218  22.201  0.00  0.00    +0.203 A 
ATOM     13  N   UNL     1       8.194   1.612  22.500  0.00  0.00    -0.286 N 
ATOM     14  C   UNL     1       9.046   2.603  22.911  0.00  0.00    +0.167 A 
ATOM     15  N   UNL     1      10.344   2.499  23.238  0.00  0.00    -0.216 NA
ATOM     16  C   UNL     1      10.844   3.686  23.638  0.00  0.00    +0.225 A 
ATOM     17  N   UNL     1      10.217   4.878  23.711  0.00  0.00    -0.219 NA
ENDBRANCH   1  13
BRANCH   2  18
ATOM     18  O   UNL     1      10.238  -1.415  21.749  0.00  0.00    -0.385 OA
ATOM     19  H   UNL     1       9.879  -1.221  20.863  0.00  0.00    +0.210 HD
ENDBRANCH   2  18
BRANCH   3  20
ATOM     20  O   UNL     1      10.503  -0.056  24.971  0.00  0.00    -0.386 OA
ATOM     21  H   UNL     1      10.429   0.873  24.679  0.00  0.00    +0.210 HD
ENDBRANCH   3  20
BRANCH   4  22
ATOM     22  C   UNL     1       7.716  -1.991  25.086  0.00  0.00    +0.204 C 
BRANCH  22  23
ATOM     23  O   UNL     1       8.564  -3.111  24.861  0.00  0.00    -0.305 OA
BRANCH  23  24
ATOM     24  P   UNL     1       7.870  -4.374  23.905  0.00  0.00    +0.342 P 
ATOM     25  O   UNL     1       9.088  -5.278  24.135  0.00  0.00    -0.258 OA
BRANCH  24  26
ATOM     26  O   UNL     1       8.202  -3.494  22.553  0.00  0.00    -0.324 OA
ATOM     27  H   UNL     1       8.934  -3.885  22.032  0.00  0.00    +0.220 HD
ENDBRANCH  24  26
BRANCH  24  28
ATOM     28  C   UNL     1       7.134  -5.710  22.893  0.00  0.00    +0.254 C 
BRANCH  28  29
ATOM     29  P   UNL     1       5.391  -5.231  22.609  0.00  0.00    +0.350 P 
ATOM     30  O   UNL     1       5.207  -3.788  23.083  0.00  0.00    -0.258 OA
BRANCH  29  31
ATOM     31  O   UNL     1       5.820  -4.589  21.062  0.00  0.00    -0.323 OA
ATOM     32  H   UNL     1       6.510  -3.909  21.251  0.00  0.00    +0.220 HD
ENDBRANCH  29  31
BRANCH  29  33
ATOM     33  O   UNL     1       4.963  -5.873  24.158  0.00  0.00    -0.208 OA
BRANCH  33  34
ATOM     34  P   UNL     1       3.298  -6.340  24.148  0.00  0.00    +0.479 P 
ATOM     35  O   UNL     1       1.807  -6.757  24.138  0.00  0.00    -0.227 OA
BRANCH  34  36
ATOM     36  O   UNL     1       3.848  -7.881  24.117  0.00  0.00    -0.302 OA
ATOM     37  H   UNL     1       3.987  -8.224  25.019  0.00  0.00    +0.222 HD
ENDBRANCH  34  36
BRANCH  34  38
ATOM     38  O   UNL     1       3.373  -6.162  22.529  0.00  0.00    -0.302 OA
ATOM     39  H   UNL     1       4.301  -5.940  22.312  0.00  0.00    +0.222 HD
ENDBRANCH  34  38
ENDBRANCH  33  34
ENDBRANCH  29  33
ENDBRANCH  28  29
ENDBRANCH  24  28
ENDBRANCH  23  24
ENDBRANCH  22  23
ENDBRANCH   4  22
TORSDOF 14
ENDMDL
MODEL 9
REMARK VINA RESULT:      -6.0      4.590      7.658
REMARK  Name = 
REMARK  14 active torsions:
REMARK  status: ('A' for Active; 'I' for Inactive)
REMARK    1  A    between atoms: N_10  and  C_11
REMARK    2  A    between atoms: C_14  and  C_16
REMARK    3  A    between atoms: C_16  and  O_17
REMARK    4  A    between atoms: O_17  and  P_18
REMARK    5  A    between atoms: P_18  and  O_19
REMARK    6  A    between atoms: P_18  and  C_21
REMARK    7  A    between atoms: C_21  and  P_22
REMARK    8  A    between atoms: P_22  and  O_23
REMARK    9  A    between atoms: P_22  and  O_25
REMARK   10  A    between atoms: O_25  and  P_26
REMARK   11  A    between atoms: P_26  and  O_27
REMARK   12  A    between atoms: P_26  and  O_28
REMARK   13  A    between atoms: C_30  and  O_32
REMARK   14  A    between atoms: C_33  and  O_35
REMARK                            x       y       z     vdW  Elec       q    Type
REMARK                         _______ _______ _______ _____ _____    ______ ____
ROOT
ATOM      1  C   UNL     1       9.213  -1.913  22.819  0.00  0.00    +0.253 C 
ATOM      2  C   UNL     1       8.748  -2.519  24.150  0.00  0.00    +0.195 C 
ATOM      3  C   UNL     1       7.279  -2.878  23.928  0.00  0.00    +0.178 C 
ATOM      4  C   UNL     1       7.046  -2.634  22.435  0.00  0.00    +0.178 C 
ATOM      5  O   UNL     1       8.355  -2.563  21.834  0.00  0.00    -0.346 OA
ENDROOT
BRANCH   1  13
ATOM      6  N   UNL     1       8.730   4.132  23.098  0.00  0.00    -0.341 N 
ATOM      7  H   UNL     1       9.326   4.190  22.281  0.00  0.00    +0.144 HD
ATOM      8  H   UNL     1       8.839   4.835  23.817  0.00  0.00    +0.144 HD
ATOM      9  C   UNL     1       8.652   2.850  23.631  0.00  0.00    +0.147 A 
ATOM     10  C   UNL     1       8.955   1.689  22.898  0.00  0.00    +0.147 A 
ATOM     11  N   UNL     1       9.397   1.498  21.608  0.00  0.00    -0.231 NA
ATOM     12  C   UNL     1       9.516   0.190  21.487  0.00  0.00    +0.203 A 
ATOM     13  N   UNL     1       9.138  -0.478  22.629  0.00  0.00    -0.286 N 
ATOM     14  C   UNL     1       8.833   0.477  23.563  0.00  0.00    +0.167 A 
ATOM     15  N   UNL     1       8.483   0.301  24.847  0.00  0.00    -0.216 NA
ATOM     16  C   UNL     1       8.215   1.478  25.447  0.00  0.00    +0.225 A 
ATOM     17  N   UNL     1       8.285   2.720  24.925  0.00  0.00    -0.219 NA
ENDBRANCH   1  13
BRANCH   2  18
ATOM     18  O   UNL     1       9.490  -3.735  24.410  0.00  0.00    -0.385 OA
ATOM     19  H   UNL     1       9.789  -3.718  25.338  0.00  0.00    +0.210 HD
ENDBRANCH   2  18
BRANCH   3  20
ATOM     20  O   UNL     1       6.427  -2.056  24.722  0.00  0.00    -0.386 OA
ATOM     21  H   UNL     1       5.608  -1.908  24.211  0.00  0.00    +0.210 HD
ENDBRANCH   3  20
BRANCH   4  22
ATOM     22  C   UNL     1       6.194  -3.717  21.771  0.00  0.00    +0.204 C 
BRANCH  22  23
ATOM     23  O   UNL     1       4.925  -3.801  22.411  0.00  0.00    -0.305 OA
BRANCH  23  24
ATOM     24  P   UNL     1       4.699  -5.197  23.407  0.00  0.00    +0.342 P 
ATOM     25  O   UNL     1       5.555  -6.058  22.468  0.00  0.00    -0.258 OA
BRANCH  24  26
ATOM     26  O   UNL     1       3.154  -5.309  22.849  0.00  0.00    -0.324 OA
ATOM     27  H   UNL     1       2.508  -5.413  23.580  0.00  0.00    +0.220 HD
ENDBRANCH  24  26
BRANCH  24  28
ATOM     28  C   UNL     1       4.460  -6.673  24.461  0.00  0.00    +0.254 C 
BRANCH  28  29
ATOM     29  P   UNL     1       4.192  -6.047  26.159  0.00  0.00    +0.350 P 
ATOM     30  O   UNL     1       4.620  -4.579  26.202  0.00  0.00    -0.258 OA
BRANCH  29  31
ATOM     31  O   UNL     1       2.617  -5.496  25.707  0.00  0.00    -0.323 OA
ATOM     32  H   UNL     1       2.536  -5.714  24.747  0.00  0.00    +0.220 HD
ENDBRANCH  29  31
BRANCH  29  33
ATOM     33  O   UNL     1       5.769  -6.597  26.611  0.00  0.00    -0.208 OA
BRANCH  33  34
ATOM     34  P   UNL     1       6.797  -5.235  26.892  0.00  0.00    +0.479 P 
ATOM     35  O   UNL     1       7.717  -4.017  27.145  0.00  0.00    -0.227 OA
BRANCH  34  36
ATOM     36  O   UNL     1       7.696  -5.802  25.648  0.00  0.00    -0.302 OA
ATOM     37  H   UNL     1       7.140  -6.257  24.990  0.00  0.00    +0.222 HD
ENDBRANCH  34  36
BRANCH  34  38
ATOM     38  O   UNL     1       7.543  -6.168  28.002  0.00  0.00    -0.302 OA
ATOM     39  H   UNL     1       6.842  -6.543  28.573  0.00  0.00    +0.222 HD
ENDBRANCH  34  38
ENDBRANCH  33  34
ENDBRANCH  29  33
ENDBRANCH  28  29
ENDBRANCH  24  28
ENDBRANCH  23  24
ENDBRANCH  22  23
ENDBRANCH   4  22
TORSDOF 14
ENDMDL
