MODEL 1
REMARK VINA RESULT:      -6.3      0.000      0.000
REMARK  Name = 
REMARK  10 active torsions:
REMARK  status: ('A' for Active; 'I' for Inactive)
REMARK    1  A    between atoms: C_1  and  C_2
REMARK    2  A    between atoms: C_2  and  N_3
REMARK    3  A    between atoms: N_3  and  C_4
REMARK    4  A    between atoms: C_4  and  C_5
REMARK    5  A    between atoms: C_6  and  C_8
REMARK    6  A    between atoms: C_11  and  C_23
REMARK    7  A    between atoms: C_14  and  N_16
REMARK    8  A    between atoms: C_17  and  N_19
REMARK    9  A    between atoms: C_20  and  C_21
REMARK   10  A    between atoms: C_23  and  O_24
REMARK                            x       y       z     vdW  Elec       q    Type
REMARK                         _______ _______ _______ _____ _____    ______ ____
ROOT
ATOM      1  C   UNL     1       7.536  -3.736  24.045  0.00  0.00    +0.226 C 
ATOM      2  C   UNL     1       9.069  -3.553  24.189  0.00  0.00    +0.127 C 
ATOM      3  C   UNL     1       9.605  -4.396  25.376  0.00  0.00    +0.077 C 
ATOM      4  C   UNL     1       8.845  -3.985  26.632  0.00  0.00    +0.063 C 
ATOM      5  C   UNL     1       7.344  -4.189  26.496  0.00  0.00    +0.229 C 
ATOM      6  O   UNL     1       6.768  -3.797  25.259  0.00  0.00    -0.351 OA
ENDROOT
BRANCH   2   7
ATOM      7  N   UNL     1       9.467  -2.135  24.403  0.00  0.00    -0.308 N 
ATOM      8  H   UNL     1       9.524  -1.821  25.365  0.00  0.00    +0.149 HD
ATOM      9  C   UNL     1      10.160  -1.375  23.487  0.00  0.00    +0.210 C 
ATOM     10  O   UNL     1      10.445  -1.750  22.358  0.00  0.00    -0.276 OA
ATOM     11  C   UNL     1      10.534  -0.006  23.991  0.00  0.00    +0.109 C 
ENDBRANCH   2   7
BRANCH   1  13
ATOM     12  N   UNL     1       5.916  -5.205  22.712  0.00  0.00    -0.300 N 
ATOM     13  C   UNL     1       7.225  -4.965  23.146  0.00  0.00    +0.246 C 
ATOM     14  O   UNL     1       8.164  -5.707  22.828  0.00  0.00    -0.273 OA
BRANCH  12  16
ATOM     15  C   UNL     1       6.101  -5.836  20.313  0.00  0.00    +0.024 C 
ATOM     16  C   UNL     1       5.697  -6.260  21.717  0.00  0.00    +0.104 C 
ENDBRANCH  12  16
BRANCH  12  17
ATOM     17  C   UNL     1       4.786  -4.402  23.193  0.00  0.00    +0.104 C 
ATOM     18  C   UNL     1       3.418  -5.040  23.357  0.00  0.00    +0.024 C 
ENDBRANCH  12  17
ENDBRANCH   1  13
BRANCH   3  19
ATOM     19  N   UNL     1       9.594  -5.844  25.166  0.00  0.00    -0.326 NA
ATOM     20  H   UNL     1       9.125  -6.327  25.937  0.00  0.00    +0.119 HD
ATOM     21  H   UNL     1       9.088  -6.136  24.323  0.00  0.00    +0.119 HD
ENDBRANCH   3  19
BRANCH   5  22
ATOM     22  C   UNL     1       6.935  -5.576  27.022  0.00  0.00    +0.334 C 
ATOM     23  O   UNL     1       5.941  -6.181  26.643  0.00  0.00    -0.248 OA
BRANCH  22  24
ATOM     24  O   UNL     1       7.794  -6.097  27.920  0.00  0.00    -0.479 OA
ATOM     25  H   UNL     1       8.560  -6.530  27.477  0.00  0.00    +0.295 HD
ENDBRANCH  22  24
ENDBRANCH   5  22
TORSDOF 7
ENDMDL
MODEL 2
REMARK VINA RESULT:      -6.3      1.970      4.890
REMARK  Name = 
REMARK  10 active torsions:
REMARK  status: ('A' for Active; 'I' for Inactive)
REMARK    1  A    between atoms: C_1  and  C_2
REMARK    2  A    between atoms: C_2  and  N_3
REMARK    3  A    between atoms: N_3  and  C_4
REMARK    4  A    between atoms: C_4  and  C_5
REMARK    5  A    between atoms: C_6  and  C_8
REMARK    6  A    between atoms: C_11  and  C_23
REMARK    7  A    between atoms: C_14  and  N_16
REMARK    8  A    between atoms: C_17  and  N_19
REMARK    9  A    between atoms: C_20  and  C_21
REMARK   10  A    between atoms: C_23  and  O_24
REMARK                            x       y       z     vdW  Elec       q    Type
REMARK                         _______ _______ _______ _____ _____    ______ ____
ROOT
ATOM      1  C   UNL     1       8.371  -3.917  24.501  0.00  0.00    +0.226 C 
ATOM      2  C   UNL     1       7.055  -3.803  23.689  0.00  0.00    +0.127 C 
ATOM      3  C   UNL     1       5.833  -4.108  24.594  0.00  0.00    +0.077 C 
ATOM      4  C   UNL     1       6.027  -5.493  25.203  0.00  0.00    +0.063 C 
ATOM      5  C   UNL     1       7.306  -5.594  26.019  0.00  0.00    +0.229 C 
ATOM      6  O   UNL     1       8.460  -4.991  25.454  0.00  0.00    -0.351 OA
ENDROOT
BRANCH   2   7
ATOM      7  N   UNL     1       7.014  -4.721  22.518  0.00  0.00    -0.308 N 
ATOM      8  H   UNL     1       7.386  -5.652  22.660  0.00  0.00    +0.149 HD
ATOM      9  C   UNL     1       6.160  -4.577  21.448  0.00  0.00    +0.210 C 
ATOM     10  O   UNL     1       5.402  -3.629  21.294  0.00  0.00    -0.276 OA
ATOM     11  C   UNL     1       6.243  -5.701  20.448  0.00  0.00    +0.109 C 
ENDBRANCH   2   7
BRANCH   1  13
ATOM     12  N   UNL     1       9.422  -1.581  24.493  0.00  0.00    -0.300 N 
ATOM     13  C   UNL     1       8.699  -2.560  25.185  0.00  0.00    +0.246 C 
ATOM     14  O   UNL     1       8.297  -2.379  26.343  0.00  0.00    -0.273 OA
BRANCH  12  16
ATOM     15  C   UNL     1      10.861   0.431  24.755  0.00  0.00    +0.024 C 
ATOM     16  C   UNL     1       9.546  -0.251  25.099  0.00  0.00    +0.104 C 
ENDBRANCH  12  16
BRANCH  12  17
ATOM     17  C   UNL     1      10.007  -1.845  23.173  0.00  0.00    +0.104 C 
ATOM     18  C   UNL     1       9.297  -1.363  21.919  0.00  0.00    +0.024 C 
ENDBRANCH  12  17
ENDBRANCH   1  13
BRANCH   3  19
ATOM     19  N   UNL     1       5.536  -3.092  25.603  0.00  0.00    -0.326 NA
ATOM     20  H   UNL     1       6.246  -3.082  26.340  0.00  0.00    +0.119 HD
ATOM     21  H   UNL     1       5.521  -2.135  25.235  0.00  0.00    +0.119 HD
ENDBRANCH   3  19
BRANCH   5  22
ATOM     22  C   UNL     1       7.033  -5.271  27.498  0.00  0.00    +0.334 C 
ATOM     23  O   UNL     1       6.567  -4.209  27.888  0.00  0.00    -0.248 OA
BRANCH  22  24
ATOM     24  O   UNL     1       7.317  -6.284  28.342  0.00  0.00    -0.479 OA
ATOM     25  H   UNL     1       7.644  -7.076  27.856  0.00  0.00    +0.295 HD
ENDBRANCH  22  24
ENDBRANCH   5  22
TORSDOF 7
ENDMDL
MODEL 3
REMARK VINA RESULT:      -6.0      2.076      5.503
REMARK  Name = 
REMARK  10 active torsions:
REMARK  status: ('A' for Active; 'I' for Inactive)
REMARK    1  A    between atoms: C_1  and  C_2
REMARK    2  A    between atoms: C_2  and  N_3
REMARK    3  A    between atoms: N_3  and  C_4
REMARK    4  A    between atoms: C_4  and  C_5
REMARK    5  A    between atoms: C_6  and  C_8
REMARK    6  A    between atoms: C_11  and  C_23
REMARK    7  A    between atoms: C_14  and  N_16
REMARK    8  A    between atoms: C_17  and  N_19
REMARK    9  A    between atoms: C_20  and  C_21
REMARK   10  A    between atoms: C_23  and  O_24
REMARK                            x       y       z     vdW  Elec       q    Type
REMARK                         _______ _______ _______ _____ _____    ______ ____
ROOT
ATOM      1  C   UNL     1       6.827  -2.678  24.375  0.00  0.00    +0.226 C 
ATOM      2  C   UNL     1       7.182  -3.801  25.385  0.00  0.00    +0.127 C 
ATOM      3  C   UNL     1       7.265  -5.171  24.662  0.00  0.00    +0.077 C 
ATOM      4  C   UNL     1       5.935  -5.417  23.957  0.00  0.00    +0.063 C 
ATOM      5  C   UNL     1       5.602  -4.327  22.950  0.00  0.00    +0.229 C 
ATOM      6  O   UNL     1       5.854  -2.993  23.364  0.00  0.00    -0.351 OA
ENDROOT
BRANCH   2   7
ATOM      7  N   UNL     1       6.199  -3.914  26.497  0.00  0.00    -0.308 N 
ATOM      8  H   UNL     1       5.241  -3.665  26.281  0.00  0.00    +0.149 HD
ATOM      9  C   UNL     1       6.372  -4.707  27.609  0.00  0.00    +0.210 C 
ATOM     10  O   UNL     1       7.393  -5.335  27.854  0.00  0.00    -0.276 OA
ATOM     11  C   UNL     1       5.182  -4.728  28.532  0.00  0.00    +0.109 C 
ENDBRANCH   2   7
BRANCH   1  13
ATOM     12  N   UNL     1       8.825  -1.076  24.346  0.00  0.00    -0.300 N 
ATOM     13  C   UNL     1       8.120  -2.114  23.724  0.00  0.00    +0.246 C 
ATOM     14  O   UNL     1       8.501  -2.613  22.656  0.00  0.00    -0.273 OA
BRANCH  12  16
ATOM     15  C   UNL     1      10.589   0.676  24.257  0.00  0.00    +0.024 C 
ATOM     16  C   UNL     1      10.135  -0.702  23.802  0.00  0.00    +0.104 C 
ENDBRANCH  12  16
BRANCH  12  17
ATOM     17  C   UNL     1       8.305  -0.400  25.540  0.00  0.00    +0.104 C 
ATOM     18  C   UNL     1       8.713  -0.881  26.922  0.00  0.00    +0.024 C 
ENDBRANCH  12  17
ENDBRANCH   1  13
BRANCH   3  19
ATOM     19  N   UNL     1       8.410  -5.335  23.767  0.00  0.00    -0.326 NA
ATOM     20  H   UNL     1       9.027  -6.087  24.088  0.00  0.00    +0.119 HD
ATOM     21  H   UNL     1       8.153  -5.593  22.809  0.00  0.00    +0.119 HD
ENDBRANCH   3  19
BRANCH   5  22
ATOM     22  C   UNL     1       6.114  -4.707  21.550  0.00  0.00    +0.334 C 
ATOM     23  O   UNL     1       6.776  -5.710  21.316  0.00  0.00    -0.248 OA
BRANCH  22  24
ATOM     24  O   UNL     1       5.738  -3.852  20.578  0.00  0.00    -0.479 OA
ATOM     25  H   UNL     1       4.800  -3.572  20.688  0.00  0.00    +0.295 HD
ENDBRANCH  22  24
ENDBRANCH   5  22
TORSDOF 7
ENDMDL
MODEL 4
REMARK VINA RESULT:      -5.8      3.199      6.590
REMARK  Name = 
REMARK  10 active torsions:
REMARK  status: ('A' for Active; 'I' for Inactive)
REMARK    1  A    between atoms: C_1  and  C_2
REMARK    2  A    between atoms: C_2  and  N_3
REMARK    3  A    between atoms: N_3  and  C_4
REMARK    4  A    between atoms: C_4  and  C_5
REMARK    5  A    between atoms: C_6  and  C_8
REMARK    6  A    between atoms: C_11  and  C_23
REMARK    7  A    between atoms: C_14  and  N_16
REMARK    8  A    between atoms: C_17  and  N_19
REMARK    9  A    between atoms: C_20  and  C_21
REMARK   10  A    between atoms: C_23  and  O_24
REMARK                            x       y       z     vdW  Elec       q    Type
REMARK                         _______ _______ _______ _____ _____    ______ ____
ROOT
ATOM      1  C   UNL     1       7.481  -0.627  23.722  0.00  0.00    +0.226 C 
ATOM      2  C   UNL     1       8.552  -1.710  23.429  0.00  0.00    +0.127 C 
ATOM      3  C   UNL     1       9.802  -1.071  22.770  0.00  0.00    +0.077 C 
ATOM      4  C   UNL     1       9.352  -0.337  21.511  0.00  0.00    +0.063 C 
ATOM      5  C   UNL     1       8.320   0.741  21.805  0.00  0.00    +0.229 C 
ATOM      6  O   UNL     1       7.298   0.396  22.728  0.00  0.00    -0.351 OA
ENDROOT
BRANCH   2   7
ATOM      7  N   UNL     1       8.054  -2.794  22.539  0.00  0.00    -0.308 N 
ATOM      8  H   UNL     1       8.414  -2.804  21.592  0.00  0.00    +0.149 HD
ATOM      9  C   UNL     1       7.520  -3.982  22.985  0.00  0.00    +0.210 C 
ATOM     10  O   UNL     1       7.310  -4.244  24.161  0.00  0.00    -0.276 OA
ATOM     11  C   UNL     1       7.192  -4.954  21.881  0.00  0.00    +0.109 C 
ENDBRANCH   2   7
BRANCH   1  13
ATOM     12  N   UNL     1       7.025  -0.444  26.236  0.00  0.00    -0.300 N 
ATOM     13  C   UNL     1       7.732   0.012  25.117  0.00  0.00    +0.246 C 
ATOM     14  O   UNL     1       8.572   0.919  25.199  0.00  0.00    -0.273 OA
BRANCH  12  16
ATOM     15  C   UNL     1       6.405   1.005  28.161  0.00  0.00    +0.024 C 
ATOM     16  C   UNL     1       7.425   0.051  27.558  0.00  0.00    +0.104 C 
ENDBRANCH  12  16
BRANCH  12  17
ATOM     17  C   UNL     1       5.942  -1.426  26.115  0.00  0.00    +0.104 C 
ATOM     18  C   UNL     1       5.961  -2.684  26.966  0.00  0.00    +0.024 C 
ENDBRANCH  12  17
ENDBRANCH   1  13
BRANCH   3  19
ATOM     19  N   UNL     1      10.607  -0.225  23.652  0.00  0.00    -0.326 NA
ATOM     20  H   UNL     1      11.130   0.475  23.118  0.00  0.00    +0.119 HD
ATOM     21  H   UNL     1      10.053   0.314  24.326  0.00  0.00    +0.119 HD
ENDBRANCH   3  19
BRANCH   5  22
ATOM     22  C   UNL     1       9.005   2.100  22.034  0.00  0.00    +0.334 C 
ATOM     23  O   UNL     1       8.483   3.033  22.630  0.00  0.00    -0.248 OA
BRANCH  22  24
ATOM     24  O   UNL     1      10.262   2.168  21.552  0.00  0.00    -0.479 OA
ATOM     25  H   UNL     1      10.714   1.294  21.600  0.00  0.00    +0.295 HD
ENDBRANCH  22  24
ENDBRANCH   5  22
TORSDOF 7
ENDMDL
MODEL 5
REMARK VINA RESULT:      -5.8      2.754      5.268
REMARK  Name = 
REMARK  10 active torsions:
REMARK  status: ('A' for Active; 'I' for Inactive)
REMARK    1  A    between atoms: C_1  and  C_2
REMARK    2  A    between atoms: C_2  and  N_3
REMARK    3  A    between atoms: N_3  and  C_4
REMARK    4  A    between atoms: C_4  and  C_5
REMARK    5  A    between atoms: C_6  and  C_8
REMARK    6  A    between atoms: C_11  and  C_23
REMARK    7  A    between atoms: C_14  and  N_16
REMARK    8  A    between atoms: C_17  and  N_19
REMARK    9  A    between atoms: C_20  and  C_21
REMARK   10  A    between atoms: C_23  and  O_24
REMARK                            x       y       z     vdW  Elec       q    Type
REMARK                         _______ _______ _______ _____ _____    ______ ____
ROOT
ATOM      1  C   UNL     1       8.408  -2.064  24.834  0.00  0.00    +0.226 C 
ATOM      2  C   UNL     1       7.308  -1.037  25.209  0.00  0.00    +0.127 C 
ATOM      3  C   UNL     1       7.167   0.035  24.097  0.00  0.00    +0.077 C 
ATOM      4  C   UNL     1       8.530   0.687  23.891  0.00  0.00    +0.063 C 
ATOM      5  C   UNL     1       9.601  -0.318  23.499  0.00  0.00    +0.229 C 
ATOM      6  O   UNL     1       9.596  -1.548  24.208  0.00  0.00    -0.351 OA
ENDROOT
BRANCH   2   7
ATOM      7  N   UNL     1       7.575  -0.345  26.499  0.00  0.00    -0.308 N 
ATOM      8  H   UNL     1       8.500   0.051  26.617  0.00  0.00    +0.149 HD
ATOM      9  C   UNL     1       6.599   0.170  27.322  0.00  0.00    +0.210 C 
ATOM     10  O   UNL     1       5.397   0.034  27.133  0.00  0.00    -0.276 OA
ATOM     11  C   UNL     1       7.138   0.918  28.513  0.00  0.00    +0.109 C 
ENDBRANCH   2   7
BRANCH   1  13
ATOM     12  N   UNL     1       7.098  -4.251  24.599  0.00  0.00    -0.300 N 
ATOM     13  C   UNL     1       7.802  -3.212  23.979  0.00  0.00    +0.246 C 
ATOM     14  O   UNL     1       7.956  -3.169  22.751  0.00  0.00    -0.273 OA
BRANCH  12  16
ATOM     15  C   UNL     1       5.199  -5.853  24.453  0.00  0.00    +0.024 C 
ATOM     16  C   UNL     1       6.383  -5.209  23.747  0.00  0.00    +0.104 C 
ENDBRANCH  12  16
BRANCH  12  17
ATOM     17  C   UNL     1       7.026  -4.370  26.060  0.00  0.00    +0.104 C 
ATOM     18  C   UNL     1       8.051  -5.210  26.803  0.00  0.00    +0.024 C 
ENDBRANCH  12  17
ENDBRANCH   1  13
BRANCH   3  19
ATOM     19  N   UNL     1       6.580  -0.440  22.844  0.00  0.00    -0.326 NA
ATOM     20  H   UNL     1       6.002   0.284  22.407  0.00  0.00    +0.119 HD
ATOM     21  H   UNL     1       7.274  -0.692  22.132  0.00  0.00    +0.119 HD
ENDBRANCH   3  19
BRANCH   5  22
ATOM     22  C   UNL     1       9.713  -0.423  21.968  0.00  0.00    +0.334 C 
ATOM     23  O   UNL     1       9.353   0.458  21.197  0.00  0.00    -0.248 OA
BRANCH  22  24
ATOM     24  O   UNL     1      10.285  -1.565  21.537  0.00  0.00    -0.479 OA
ATOM     25  H   UNL     1       9.664  -2.091  20.983  0.00  0.00    +0.295 HD
ENDBRANCH  22  24
ENDBRANCH   5  22
TORSDOF 7
ENDMDL
MODEL 6
REMARK VINA RESULT:      -5.7      2.572      5.033
REMARK  Name = 
REMARK  10 active torsions:
REMARK  status: ('A' for Active; 'I' for Inactive)
REMARK    1  A    between atoms: C_1  and  C_2
REMARK    2  A    between atoms: C_2  and  N_3
REMARK    3  A    between atoms: N_3  and  C_4
REMARK    4  A    between atoms: C_4  and  C_5
REMARK    5  A    between atoms: C_6  and  C_8
REMARK    6  A    between atoms: C_11  and  C_23
REMARK    7  A    between atoms: C_14  and  N_16
REMARK    8  A    between atoms: C_17  and  N_19
REMARK    9  A    between atoms: C_20  and  C_21
REMARK   10  A    between atoms: C_23  and  O_24
REMARK                            x       y       z     vdW  Elec       q    Type
REMARK                         _______ _______ _______ _____ _____    ______ ____
ROOT
ATOM      1  C   UNL     1       6.269  -2.623  23.416  0.00  0.00    +0.226 C 
ATOM      2  C   UNL     1       6.734  -3.213  24.772  0.00  0.00    +0.127 C 
ATOM      3  C   UNL     1       7.017  -4.732  24.633  0.00  0.00    +0.077 C 
ATOM      4  C   UNL     1       5.753  -5.403  24.105  0.00  0.00    +0.063 C 
ATOM      5  C   UNL     1       5.314  -4.840  22.763  0.00  0.00    +0.229 C 
ATOM      6  O   UNL     1       5.377  -3.428  22.624  0.00  0.00    -0.351 OA
ENDROOT
BRANCH   2   7
ATOM      7  N   UNL     1       5.740  -3.018  25.862  0.00  0.00    -0.308 N 
ATOM      8  H   UNL     1       5.213  -3.835  26.146  0.00  0.00    +0.149 HD
ATOM      9  C   UNL     1       5.780  -1.989  26.776  0.00  0.00    +0.210 C 
ATOM     10  O   UNL     1       6.583  -1.067  26.739  0.00  0.00    -0.276 OA
ATOM     11  C   UNL     1       4.720  -2.081  27.843  0.00  0.00    +0.109 C 
ENDBRANCH   2   7
BRANCH   1  13
ATOM     12  N   UNL     1       7.919  -0.853  22.580  0.00  0.00    -0.300 N 
ATOM     13  C   UNL     1       7.498  -2.188  22.570  0.00  0.00    +0.246 C 
ATOM     14  O   UNL     1       8.084  -3.053  21.905  0.00  0.00    -0.273 OA
BRANCH  12  16
ATOM     15  C   UNL     1      10.209   0.073  22.882  0.00  0.00    +0.024 C 
ATOM     16  C   UNL     1       9.189  -0.521  21.923  0.00  0.00    +0.104 C 
ENDBRANCH  12  16
BRANCH  12  17
ATOM     17  C   UNL     1       7.150   0.193  23.263  0.00  0.00    +0.104 C 
ATOM     18  C   UNL     1       6.790   1.472  22.527  0.00  0.00    +0.024 C 
ENDBRANCH  12  17
ENDBRANCH   1  13
BRANCH   3  19
ATOM     19  N   UNL     1       8.202  -5.075  23.847  0.00  0.00    -0.326 NA
ATOM     20  H   UNL     1       8.920  -4.350  23.923  0.00  0.00    +0.119 HD
ATOM     21  H   UNL     1       8.664  -5.939  24.150  0.00  0.00    +0.119 HD
ENDBRANCH   3  19
BRANCH   5  22
ATOM     22  C   UNL     1       5.915  -5.658  21.607  0.00  0.00    +0.334 C 
ATOM     23  O   UNL     1       5.986  -5.256  20.453  0.00  0.00    -0.248 OA
BRANCH  22  24
ATOM     24  O   UNL     1       6.400  -6.860  21.980  0.00  0.00    -0.479 OA
ATOM     25  H   UNL     1       5.735  -7.371  22.497  0.00  0.00    +0.295 HD
ENDBRANCH  22  24
ENDBRANCH   5  22
TORSDOF 7
ENDMDL
MODEL 7
REMARK VINA RESULT:      -5.7      3.579      6.936
REMARK  Name = 
REMARK  10 active torsions:
REMARK  status: ('A' for Active; 'I' for Inactive)
REMARK    1  A    between atoms: C_1  and  C_2
REMARK    2  A    between atoms: C_2  and  N_3
REMARK    3  A    between atoms: N_3  and  C_4
REMARK    4  A    between atoms: C_4  and  C_5
REMARK    5  A    between atoms: C_6  and  C_8
REMARK    6  A    between atoms: C_11  and  C_23
REMARK    7  A    between atoms: C_14  and  N_16
REMARK    8  A    between atoms: C_17  and  N_19
REMARK    9  A    between atoms: C_20  and  C_21
REMARK   10  A    between atoms: C_23  and  O_24
REMARK                            x       y       z     vdW  Elec       q    Type
REMARK                         _______ _______ _______ _____ _____    ______ ____
ROOT
ATOM      1  C   UNL     1       7.872  -0.217  24.561  0.00  0.00    +0.226 C 
ATOM      2  C   UNL     1       9.230  -0.916  24.834  0.00  0.00    +0.127 C 
ATOM      3  C   UNL     1      10.360  -0.240  24.014  0.00  0.00    +0.077 C 
ATOM      4  C   UNL     1       9.967  -0.280  22.541  0.00  0.00    +0.063 C 
ATOM      5  C   UNL     1       8.648   0.427  22.273  0.00  0.00    +0.229 C 
ATOM      6  O   UNL     1       7.606   0.185  23.206  0.00  0.00    -0.351 OA
ENDROOT
BRANCH   2   7
ATOM      7  N   UNL     1       9.213  -2.367  24.504  0.00  0.00    -0.308 N 
ATOM      8  H   UNL     1       9.799  -2.663  23.734  0.00  0.00    +0.149 HD
ATOM      9  C   UNL     1       8.839  -3.359  25.383  0.00  0.00    +0.210 C 
ATOM     10  O   UNL     1       8.390  -3.154  26.503  0.00  0.00    -0.276 OA
ATOM     11  C   UNL     1       9.015  -4.752  24.838  0.00  0.00    +0.109 C 
ENDBRANCH   2   7
BRANCH   1  13
ATOM     12  N   UNL     1       6.937   0.830  26.703  0.00  0.00    -0.300 N 
ATOM     13  C   UNL     1       7.683   0.984  25.529  0.00  0.00    +0.246 C 
ATOM     14  O   UNL     1       8.215   2.063  25.230  0.00  0.00    -0.273 OA
BRANCH  12  16
ATOM     15  C   UNL     1       7.063   1.437  29.112  0.00  0.00    +0.024 C 
ATOM     16  C   UNL     1       6.940   1.926  27.677  0.00  0.00    +0.104 C 
ENDBRANCH  12  16
BRANCH  12  17
ATOM     17  C   UNL     1       6.201  -0.407  26.991  0.00  0.00    +0.104 C 
ATOM     18  C   UNL     1       4.725  -0.509  26.647  0.00  0.00    +0.024 C 
ENDBRANCH  12  17
ENDBRANCH   1  13
BRANCH   3  19
ATOM     19  N   UNL     1      10.733   1.104  24.456  0.00  0.00    -0.326 NA
ATOM     20  H   UNL     1      10.914   1.719  23.658  0.00  0.00    +0.119 HD
ATOM     21  H   UNL     1      10.002   1.578  24.997  0.00  0.00    +0.119 HD
ENDBRANCH   3  19
BRANCH   5  22
ATOM     22  C   UNL     1       8.888   1.900  21.897  0.00  0.00    +0.334 C 
ATOM     23  O   UNL     1       8.019   2.762  21.933  0.00  0.00    -0.248 OA
BRANCH  22  24
ATOM     24  O   UNL     1      10.162   2.177  21.556  0.00  0.00    -0.479 OA
ATOM     25  H   UNL     1      10.305   3.147  21.458  0.00  0.00    +0.295 HD
ENDBRANCH  22  24
ENDBRANCH   5  22
TORSDOF 7
ENDMDL
MODEL 8
REMARK VINA RESULT:      -5.5      2.719      4.910
REMARK  Name = 
REMARK  10 active torsions:
REMARK  status: ('A' for Active; 'I' for Inactive)
REMARK    1  A    between atoms: C_1  and  C_2
REMARK    2  A    between atoms: C_2  and  N_3
REMARK    3  A    between atoms: N_3  and  C_4
REMARK    4  A    between atoms: C_4  and  C_5
REMARK    5  A    between atoms: C_6  and  C_8
REMARK    6  A    between atoms: C_11  and  C_23
REMARK    7  A    between atoms: C_14  and  N_16
REMARK    8  A    between atoms: C_17  and  N_19
REMARK    9  A    between atoms: C_20  and  C_21
REMARK   10  A    between atoms: C_23  and  O_24
REMARK                            x       y       z     vdW  Elec       q    Type
REMARK                         _______ _______ _______ _____ _____    ______ ____
ROOT
ATOM      1  C   UNL     1       7.560  -2.475  24.622  0.00  0.00    +0.226 C 
ATOM      2  C   UNL     1       6.533  -1.333  24.838  0.00  0.00    +0.127 C 
ATOM      3  C   UNL     1       6.968  -0.061  24.065  0.00  0.00    +0.077 C 
ATOM      4  C   UNL     1       8.371   0.319  24.527  0.00  0.00    +0.063 C 
ATOM      5  C   UNL     1       9.381  -0.793  24.290  0.00  0.00    +0.229 C 
ATOM      6  O   UNL     1       8.951  -2.108  24.610  0.00  0.00    -0.351 OA
ENDROOT
BRANCH   2   7
ATOM      7  N   UNL     1       6.356  -0.974  26.272  0.00  0.00    -0.308 N 
ATOM      8  H   UNL     1       7.201  -0.788  26.800  0.00  0.00    +0.149 HD
ATOM      9  C   UNL     1       5.196  -0.463  26.808  0.00  0.00    +0.210 C 
ATOM     10  O   UNL     1       4.149  -0.334  26.187  0.00  0.00    -0.276 OA
ATOM     11  C   UNL     1       5.312  -0.082  28.260  0.00  0.00    +0.109 C 
ENDBRANCH   2   7
BRANCH   1  13
ATOM     12  N   UNL     1       6.355  -4.394  23.431  0.00  0.00    -0.300 N 
ATOM     13  C   UNL     1       7.203  -3.283  23.344  0.00  0.00    +0.246 C 
ATOM     14  O   UNL     1       7.682  -2.910  22.265  0.00  0.00    -0.273 OA
BRANCH  12  16
ATOM     15  C   UNL     1       6.662  -6.278  21.835  0.00  0.00    +0.024 C 
ATOM     16  C   UNL     1       5.892  -5.012  22.183  0.00  0.00    +0.104 C 
ENDBRANCH  12  16
BRANCH  12  17
ATOM     17  C   UNL     1       5.892  -4.912  24.723  0.00  0.00    +0.104 C 
ATOM     18  C   UNL     1       4.487  -4.597  25.206  0.00  0.00    +0.024 C 
ENDBRANCH  12  17
ENDBRANCH   1  13
BRANCH   3  19
ATOM     19  N   UNL     1       6.865  -0.152  22.608  0.00  0.00    -0.326 NA
ATOM     20  H   UNL     1       7.478   0.529  22.150  0.00  0.00    +0.119 HD
ATOM     21  H   UNL     1       7.149  -1.061  22.230  0.00  0.00    +0.119 HD
ENDBRANCH   3  19
BRANCH   5  22
ATOM     22  C   UNL     1      10.069  -0.621  22.925  0.00  0.00    +0.334 C 
ATOM     23  O   UNL     1      10.175   0.453  22.347  0.00  0.00    -0.248 OA
BRANCH  22  24
ATOM     24  O   UNL     1      10.588  -1.760  22.426  0.00  0.00    -0.479 OA
ATOM     25  H   UNL     1      11.238  -2.162  23.047  0.00  0.00    +0.295 HD
ENDBRANCH  22  24
ENDBRANCH   5  22
TORSDOF 7
ENDMDL
MODEL 9
REMARK VINA RESULT:      -5.5      4.993      7.784
REMARK  Name = 
REMARK  10 active torsions:
REMARK  status: ('A' for Active; 'I' for Inactive)
REMARK    1  A    between atoms: C_1  and  C_2
REMARK    2  A    between atoms: C_2  and  N_3
REMARK    3  A    between atoms: N_3  and  C_4
REMARK    4  A    between atoms: C_4  and  C_5
REMARK    5  A    between atoms: C_6  and  C_8
REMARK    6  A    between atoms: C_11  and  C_23
REMARK    7  A    between atoms: C_14  and  N_16
REMARK    8  A    between atoms: C_17  and  N_19
REMARK    9  A    between atoms: C_20  and  C_21
REMARK   10  A    between atoms: C_23  and  O_24
REMARK                            x       y       z     vdW  Elec       q    Type
REMARK                         _______ _______ _______ _____ _____    ______ ____
ROOT
ATOM      1  C   UNL     1       9.068   2.264  24.456  0.00  0.00    +0.226 C 
ATOM      2  C   UNL     1       9.486   2.939  23.124  0.00  0.00    +0.127 C 
ATOM      3  C   UNL     1       9.305   1.955  21.938  0.00  0.00    +0.077 C 
ATOM      4  C   UNL     1      10.116   0.698  22.237  0.00  0.00    +0.063 C 
ATOM      5  C   UNL     1       9.686   0.024  23.531  0.00  0.00    +0.229 C 
ATOM      6  O   UNL     1       9.436   0.885  24.632  0.00  0.00    -0.351 OA
ENDROOT
BRANCH   2   7
ATOM      7  N   UNL     1      10.897   3.413  23.130  0.00  0.00    -0.308 N 
ATOM      8  H   UNL     1      11.562   2.862  22.601  0.00  0.00    +0.149 HD
ATOM      9  C   UNL     1      11.281   4.706  23.406  0.00  0.00    +0.210 C 
ATOM     10  O   UNL     1      10.516   5.589  23.768  0.00  0.00    -0.276 OA
ATOM     11  C   UNL     1      12.759   4.950  23.240  0.00  0.00    +0.109 C 
ENDBRANCH   2   7
BRANCH   1  13
ATOM     12  N   UNL     1       7.069   3.616  25.314  0.00  0.00    -0.300 N 
ATOM     13  C   UNL     1       7.544   2.452  24.697  0.00  0.00    +0.246 C 
ATOM     14  O   UNL     1       6.779   1.552  24.324  0.00  0.00    -0.273 OA
BRANCH  12  16
ATOM     15  C   UNL     1       5.128   4.702  24.201  0.00  0.00    +0.024 C 
ATOM     16  C   UNL     1       5.620   3.839  25.352  0.00  0.00    +0.104 C 
ENDBRANCH  12  16
BRANCH  12  17
ATOM     17  C   UNL     1       7.983   4.620  25.871  0.00  0.00    +0.104 C 
ATOM     18  C   UNL     1       7.509   5.541  26.982  0.00  0.00    +0.024 C 
ENDBRANCH  12  17
ENDBRANCH   1  13
BRANCH   3  19
ATOM     19  N   UNL     1       7.918   1.654  21.585  0.00  0.00    -0.326 NA
ATOM     20  H   UNL     1       7.376   2.512  21.448  0.00  0.00    +0.119 HD
ATOM     21  H   UNL     1       7.818   1.134  20.706  0.00  0.00    +0.119 HD
ENDBRANCH   3  19
BRANCH   5  22
ATOM     22  C   UNL     1       8.618  -1.048  23.256  0.00  0.00    +0.334 C 
ATOM     23  O   UNL     1       8.462  -1.590  22.170  0.00  0.00    -0.248 OA
BRANCH  22  24
ATOM     24  O   UNL     1       7.880  -1.375  24.335  0.00  0.00    -0.479 OA
ATOM     25  H   UNL     1       8.411  -1.879  24.995  0.00  0.00    +0.295 HD
ENDBRANCH  22  24
ENDBRANCH   5  22
TORSDOF 7
ENDMDL
