MODEL 1
REMARK VINA RESULT:      -7.1      0.000      0.000
REMARK  Name = 
REMARK  18 active torsions:
REMARK  status: ('A' for Active; 'I' for Inactive)
REMARK    1  A    between atoms: O_1  and  C_2
REMARK    2  A    between atoms: C_2  and  C_3
REMARK    3  A    between atoms: C_6  and  O_8
REMARK    4  A    between atoms: O_8  and  C_9
REMARK    5  A    between atoms: C_11  and  O_13
REMARK    6  A    between atoms: C_14  and  O_16
REMARK    7  A    between atoms: C_17  and  O_19
REMARK    8  A    between atoms: O_19  and  C_20
REMARK    9  A    between atoms: C_22  and  O_24
REMARK   10  A    between atoms: C_25  and  O_27
REMARK   11  A    between atoms: C_28  and  O_30
REMARK   12  A    between atoms: C_32  and  C_34
REMARK   13  A    between atoms: C_34  and  O_35
REMARK   14  A    between atoms: C_37  and  C_39
REMARK   15  A    between atoms: C_39  and  O_40
REMARK   16  A    between atoms: C_41  and  O_43
REMARK   17  A    between atoms: C_44  and  O_46
REMARK   18  A    between atoms: C_47  and  O_49
REMARK                            x       y       z     vdW  Elec       q    Type
REMARK                         _______ _______ _______ _____ _____    ______ ____
ROOT
ATOM      1  C   UNL     1       6.975  -0.747  25.210  0.00  0.00    +0.183 C 
ATOM      2  C   UNL     1       7.554  -1.945  26.008  0.00  0.00    +0.178 C 
ATOM      3  O   UNL     1       7.803  -3.079  25.153  0.00  0.00    -0.341 OA
ATOM      4  C   UNL     1       6.641  -3.574  24.467  0.00  0.00    +0.282 C 
ATOM      5  C   UNL     1       6.006  -2.446  23.622  0.00  0.00    +0.201 C 
ATOM      6  C   UNL     1       5.695  -1.221  24.497  0.00  0.00    +0.179 C 
ENDROOT
BRANCH   6   7
ATOM      7  O   UNL     1       4.652  -1.476  25.438  0.00  0.00    -0.386 OA
ATOM      8  H   UNL     1       3.802  -1.192  25.056  0.00  0.00    +0.210 HD
ENDBRANCH   6   7
BRANCH   5   9
ATOM      9  O   UNL     1       6.895  -2.085  22.539  0.00  0.00    -0.384 OA
ATOM     10  H   UNL     1       6.360  -1.593  21.885  0.00  0.00    +0.210 HD
ENDBRANCH   5   9
BRANCH   4  11
ATOM     11  O   UNL     1       5.747  -4.195  25.405  0.00  0.00    -0.340 OA
BRANCH  11  12
ATOM     12  C   UNL     1       6.257  -5.386  26.044  0.00  0.00    +0.183 C 
ATOM     13  C   UNL     1       5.248  -6.552  25.902  0.00  0.00    +0.178 C 
ATOM     14  O   UNL     1       4.096  -6.379  26.755  0.00  0.00    -0.341 OA
ATOM     15  C   UNL     1       4.438  -6.336  28.141  0.00  0.00    +0.279 C 
ATOM     16  C   UNL     1       5.379  -5.157  28.452  0.00  0.00    +0.201 C 
ATOM     17  C   UNL     1       6.615  -5.215  27.539  0.00  0.00    +0.179 C 
BRANCH  17  18
ATOM     18  O   UNL     1       7.497  -6.285  27.922  0.00  0.00    -0.386 OA
ATOM     19  H   UNL     1       7.044  -7.134  27.742  0.00  0.00    +0.210 HD
ENDBRANCH  17  18
BRANCH  16  20
ATOM     20  O   UNL     1       4.705  -3.910  28.334  0.00  0.00    -0.384 OA
ATOM     21  H   UNL     1       4.993  -3.480  27.507  0.00  0.00    +0.210 HD
ENDBRANCH  16  20
BRANCH  15  22
ATOM     22  O   UNL     1       5.051  -7.559  28.544  0.00  0.00    -0.365 OA
ATOM     23  H   UNL     1       4.329  -8.207  28.632  0.00  0.00    +0.213 HD
ENDBRANCH  15  22
BRANCH  13  24
ATOM     24  C   UNL     1       4.741  -6.748  24.470  0.00  0.00    +0.190 C 
BRANCH  24  25
ATOM     25  O   UNL     1       3.896  -7.901  24.421  0.00  0.00    -0.392 OA
ATOM     26  H   UNL     1       2.984  -7.563  24.352  0.00  0.00    +0.210 HD
ENDBRANCH  24  25
ENDBRANCH  13  24
ENDBRANCH  11  12
ENDBRANCH   4  11
BRANCH   2  27
ATOM     27  C   UNL     1       8.880  -1.638  26.715  0.00  0.00    +0.190 C 
BRANCH  27  28
ATOM     28  O   UNL     1       8.891  -0.269  27.133  0.00  0.00    -0.392 OA
ATOM     29  H   UNL     1       9.500   0.189  26.522  0.00  0.00    +0.210 HD
ENDBRANCH  27  28
ENDBRANCH   2  27
BRANCH   1  30
ATOM     30  O   UNL     1       7.948  -0.286  24.250  0.00  0.00    -0.340 OA
BRANCH  30  35
ATOM     31  C   UNL     1       9.284   0.555  21.824  0.00  0.00    +0.178 C 
ATOM     32  C   UNL     1      10.317   1.445  22.569  0.00  0.00    +0.177 C 
ATOM     33  C   UNL     1       9.919   1.902  23.991  0.00  0.00    +0.179 C 
ATOM     34  C   UNL     1       8.412   2.180  24.069  0.00  0.00    +0.201 C 
ATOM     35  C   UNL     1       7.654   0.939  23.573  0.00  0.00    +0.282 C 
ATOM     36  O   UNL     1       7.912   0.819  22.163  0.00  0.00    -0.341 OA
BRANCH  34  37
ATOM     37  O   UNL     1       8.102   3.339  23.275  0.00  0.00    -0.384 OA
ATOM     38  H   UNL     1       7.709   3.034  22.434  0.00  0.00    +0.210 HD
ENDBRANCH  34  37
BRANCH  33  39
ATOM     39  O   UNL     1      10.300   0.965  24.998  0.00  0.00    -0.386 OA
ATOM     40  H   UNL     1      11.158   0.577  24.752  0.00  0.00    +0.210 HD
ENDBRANCH  33  39
BRANCH  32  41
ATOM     41  O   UNL     1      10.512   2.656  21.785  0.00  0.00    -0.386 OA
ATOM     42  H   UNL     1      11.339   2.537  21.277  0.00  0.00    +0.210 HD
ENDBRANCH  32  41
BRANCH  31  43
ATOM     43  C   UNL     1       9.509  -0.973  21.840  0.00  0.00    +0.190 C 
BRANCH  43  44
ATOM     44  O   UNL     1      10.076  -1.441  23.049  0.00  0.00    -0.392 OA
ATOM     45  H   UNL     1      11.011  -1.161  23.036  0.00  0.00    +0.210 HD
ENDBRANCH  43  44
ENDBRANCH  31  43
ENDBRANCH  30  35
ENDBRANCH   1  30
TORSDOF 18
ENDMDL
MODEL 2
REMARK VINA RESULT:      -7.0      1.264      2.134
REMARK  Name = 
REMARK  18 active torsions:
REMARK  status: ('A' for Active; 'I' for Inactive)
REMARK    1  A    between atoms: O_1  and  C_2
REMARK    2  A    between atoms: C_2  and  C_3
REMARK    3  A    between atoms: C_6  and  O_8
REMARK    4  A    between atoms: O_8  and  C_9
REMARK    5  A    between atoms: C_11  and  O_13
REMARK    6  A    between atoms: C_14  and  O_16
REMARK    7  A    between atoms: C_17  and  O_19
REMARK    8  A    between atoms: O_19  and  C_20
REMARK    9  A    between atoms: C_22  and  O_24
REMARK   10  A    between atoms: C_25  and  O_27
REMARK   11  A    between atoms: C_28  and  O_30
REMARK   12  A    between atoms: C_32  and  C_34
REMARK   13  A    between atoms: C_34  and  O_35
REMARK   14  A    between atoms: C_37  and  C_39
REMARK   15  A    between atoms: C_39  and  O_40
REMARK   16  A    between atoms: C_41  and  O_43
REMARK   17  A    between atoms: C_44  and  O_46
REMARK   18  A    between atoms: C_47  and  O_49
REMARK                            x       y       z     vdW  Elec       q    Type
REMARK                         _______ _______ _______ _____ _____    ______ ____
ROOT
ATOM      1  C   UNL     1       6.868  -1.205  23.413  0.00  0.00    +0.183 C 
ATOM      2  C   UNL     1       6.102  -1.512  24.727  0.00  0.00    +0.178 C 
ATOM      3  O   UNL     1       6.935  -2.209  25.675  0.00  0.00    -0.341 OA
ATOM      4  C   UNL     1       7.449  -3.466  25.204  0.00  0.00    +0.282 C 
ATOM      5  C   UNL     1       8.252  -3.253  23.901  0.00  0.00    +0.201 C 
ATOM      6  C   UNL     1       7.395  -2.536  22.846  0.00  0.00    +0.179 C 
ENDROOT
BRANCH   6   7
ATOM      7  O   UNL     1       6.321  -3.349  22.373  0.00  0.00    -0.386 OA
ATOM      8  H   UNL     1       6.176  -3.167  21.427  0.00  0.00    +0.210 HD
ENDBRANCH   6   7
BRANCH   5   9
ATOM      9  O   UNL     1       9.452  -2.496  24.183  0.00  0.00    -0.384 OA
ATOM     10  H   UNL     1       9.572  -2.507  25.154  0.00  0.00    +0.210 HD
ENDBRANCH   5   9
BRANCH   4  11
ATOM     11  O   UNL     1       6.381  -4.423  25.100  0.00  0.00    -0.340 OA
BRANCH  11  12
ATOM     12  C   UNL     1       6.496  -5.568  25.972  0.00  0.00    +0.183 C 
ATOM     13  C   UNL     1       5.228  -6.453  25.874  0.00  0.00    +0.178 C 
ATOM     14  O   UNL     1       4.094  -5.849  26.532  0.00  0.00    -0.341 OA
ATOM     15  C   UNL     1       4.311  -5.645  27.930  0.00  0.00    +0.279 C 
ATOM     16  C   UNL     1       5.502  -4.702  28.182  0.00  0.00    +0.201 C 
ATOM     17  C   UNL     1       6.753  -5.227  27.458  0.00  0.00    +0.179 C 
BRANCH  17  18
ATOM     18  O   UNL     1       7.279  -6.397  28.110  0.00  0.00    -0.386 OA
ATOM     19  H   UNL     1       6.841  -7.183  27.727  0.00  0.00    +0.210 HD
ENDBRANCH  17  18
BRANCH  16  20
ATOM     20  O   UNL     1       5.199  -3.367  27.790  0.00  0.00    -0.384 OA
ATOM     21  H   UNL     1       6.029  -2.923  27.539  0.00  0.00    +0.210 HD
ENDBRANCH  16  20
BRANCH  15  22
ATOM     22  O   UNL     1       4.536  -6.889  28.588  0.00  0.00    -0.365 OA
ATOM     23  H   UNL     1       5.448  -6.854  28.930  0.00  0.00    +0.213 HD
ENDBRANCH  15  22
BRANCH  13  24
ATOM     24  C   UNL     1       4.816  -6.770  24.434  0.00  0.00    +0.190 C 
BRANCH  24  25
ATOM     25  O   UNL     1       3.928  -7.892  24.432  0.00  0.00    -0.392 OA
ATOM     26  H   UNL     1       4.285  -8.516  23.772  0.00  0.00    +0.210 HD
ENDBRANCH  24  25
ENDBRANCH  13  24
ENDBRANCH  11  12
ENDBRANCH   4  11
BRANCH   2  27
ATOM     27  C   UNL     1       5.580  -0.262  25.448  0.00  0.00    +0.190 C 
BRANCH  27  28
ATOM     28  O   UNL     1       5.235   0.736  24.481  0.00  0.00    -0.392 OA
ATOM     29  H   UNL     1       4.272   0.645  24.339  0.00  0.00    +0.210 HD
ENDBRANCH  27  28
ENDBRANCH   2  27
BRANCH   1  30
ATOM     30  O   UNL     1       7.961  -0.304  23.687  0.00  0.00    -0.340 OA
BRANCH  30  35
ATOM     31  C   UNL     1      10.507   1.066  23.832  0.00  0.00    +0.178 C 
ATOM     32  C   UNL     1       9.868   2.475  23.972  0.00  0.00    +0.177 C 
ATOM     33  C   UNL     1       8.410   2.611  23.478  0.00  0.00    +0.179 C 
ATOM     34  C   UNL     1       8.174   1.741  22.236  0.00  0.00    +0.201 C 
ATOM     35  C   UNL     1       8.597   0.298  22.555  0.00  0.00    +0.282 C 
ATOM     36  O   UNL     1      10.027   0.300  22.713  0.00  0.00    -0.341 OA
BRANCH  34  37
ATOM     37  O   UNL     1       8.925   2.277  21.132  0.00  0.00    -0.384 OA
ATOM     38  H   UNL     1       9.021   3.240  21.270  0.00  0.00    +0.210 HD
ENDBRANCH  34  37
BRANCH  33  39
ATOM     39  O   UNL     1       7.452   2.296  24.489  0.00  0.00    -0.386 OA
ATOM     40  H   UNL     1       7.453   1.332  24.626  0.00  0.00    +0.210 HD
ENDBRANCH  33  39
BRANCH  32  41
ATOM     41  O   UNL     1      10.660   3.407  23.184  0.00  0.00    -0.386 OA
ATOM     42  H   UNL     1      10.303   4.301  23.355  0.00  0.00    +0.210 HD
ENDBRANCH  32  41
BRANCH  31  43
ATOM     43  C   UNL     1      10.524   0.156  25.080  0.00  0.00    +0.190 C 
BRANCH  43  44
ATOM     44  O   UNL     1       9.381   0.314  25.900  0.00  0.00    -0.392 OA
ATOM     45  H   UNL     1       8.636  -0.072  25.402  0.00  0.00    +0.210 HD
ENDBRANCH  43  44
ENDBRANCH  31  43
ENDBRANCH  30  35
ENDBRANCH   1  30
TORSDOF 18
ENDMDL
MODEL 3
REMARK VINA RESULT:      -6.7      1.495      8.030
REMARK  Name = 
REMARK  18 active torsions:
REMARK  status: ('A' for Active; 'I' for Inactive)
REMARK    1  A    between atoms: O_1  and  C_2
REMARK    2  A    between atoms: C_2  and  C_3
REMARK    3  A    between atoms: C_6  and  O_8
REMARK    4  A    between atoms: O_8  and  C_9
REMARK    5  A    between atoms: C_11  and  O_13
REMARK    6  A    between atoms: C_14  and  O_16
REMARK    7  A    between atoms: C_17  and  O_19
REMARK    8  A    between atoms: O_19  and  C_20
REMARK    9  A    between atoms: C_22  and  O_24
REMARK   10  A    between atoms: C_25  and  O_27
REMARK   11  A    between atoms: C_28  and  O_30
REMARK   12  A    between atoms: C_32  and  C_34
REMARK   13  A    between atoms: C_34  and  O_35
REMARK   14  A    between atoms: C_37  and  C_39
REMARK   15  A    between atoms: C_39  and  O_40
REMARK   16  A    between atoms: C_41  and  O_43
REMARK   17  A    between atoms: C_44  and  O_46
REMARK   18  A    between atoms: C_47  and  O_49
REMARK                            x       y       z     vdW  Elec       q    Type
REMARK                         _______ _______ _______ _____ _____    ______ ____
ROOT
ATOM      1  C   UNL     1       6.861  -4.425  24.465  0.00  0.00    +0.183 C 
ATOM      2  C   UNL     1       7.819  -3.688  25.437  0.00  0.00    +0.178 C 
ATOM      3  O   UNL     1       7.305  -2.392  25.805  0.00  0.00    -0.341 OA
ATOM      4  C   UNL     1       7.090  -1.501  24.698  0.00  0.00    +0.282 C 
ATOM      5  C   UNL     1       6.122  -2.147  23.681  0.00  0.00    +0.201 C 
ATOM      6  C   UNL     1       6.641  -3.524  23.236  0.00  0.00    +0.179 C 
ENDROOT
BRANCH   6   7
ATOM      7  O   UNL     1       7.833  -3.429  22.454  0.00  0.00    -0.386 OA
ATOM      8  H   UNL     1       7.638  -2.941  21.634  0.00  0.00    +0.210 HD
ENDBRANCH   6   7
BRANCH   5   9
ATOM      9  O   UNL     1       4.804  -2.265  24.266  0.00  0.00    -0.384 OA
ATOM     10  H   UNL     1       4.734  -1.570  24.950  0.00  0.00    +0.210 HD
ENDBRANCH   5   9
BRANCH   4  11
ATOM     11  O   UNL     1       8.352  -1.092  24.146  0.00  0.00    -0.340 OA
BRANCH  11  12
ATOM     12  C   UNL     1       8.279  -0.043  23.156  0.00  0.00    +0.183 C 
ATOM     13  C   UNL     1       9.697   0.335  22.661  0.00  0.00    +0.178 C 
ATOM     14  O   UNL     1      10.436   1.083  23.651  0.00  0.00    -0.341 OA
ATOM     15  C   UNL     1       9.807   2.320  23.989  0.00  0.00    +0.279 C 
ATOM     16  C   UNL     1       8.405   2.094  24.585  0.00  0.00    +0.201 C 
ATOM     17  C   UNL     1       7.557   1.241  23.627  0.00  0.00    +0.179 C 
BRANCH  17  18
ATOM     18  O   UNL     1       7.166   1.996  22.466  0.00  0.00    -0.386 OA
ATOM     19  H   UNL     1       6.485   2.644  22.737  0.00  0.00    +0.210 HD
ENDBRANCH  17  18
BRANCH  16  20
ATOM     20  O   UNL     1       8.480   1.502  25.877  0.00  0.00    -0.384 OA
ATOM     21  H   UNL     1       7.768   1.875  26.429  0.00  0.00    +0.210 HD
ENDBRANCH  16  20
BRANCH  15  22
ATOM     22  O   UNL     1       9.712   3.163  22.844  0.00  0.00    -0.365 OA
ATOM     23  H   UNL     1       9.207   3.947  23.125  0.00  0.00    +0.213 HD
ENDBRANCH  15  22
BRANCH  13  24
ATOM     24  C   UNL     1      10.547  -0.876  22.264  0.00  0.00    +0.190 C 
BRANCH  24  25
ATOM     25  O   UNL     1       9.774  -1.743  21.429  0.00  0.00    -0.392 OA
ATOM     26  H   UNL     1       9.781  -1.338  20.542  0.00  0.00    +0.210 HD
ENDBRANCH  24  25
ENDBRANCH  13  24
ENDBRANCH  11  12
ENDBRANCH   4  11
BRANCH   2  27
ATOM     27  C   UNL     1       8.071  -4.440  26.750  0.00  0.00    +0.190 C 
BRANCH  27  28
ATOM     28  O   UNL     1       8.161  -5.844  26.485  0.00  0.00    -0.392 OA
ATOM     29  H   UNL     1       7.297  -6.218  26.744  0.00  0.00    +0.210 HD
ENDBRANCH  27  28
ENDBRANCH   2  27
BRANCH   1  30
ATOM     30  O   UNL     1       5.607  -4.692  25.127  0.00  0.00    -0.340 OA
BRANCH  30  35
ATOM     31  C   UNL     1       2.864  -5.033  25.985  0.00  0.00    +0.178 C 
ATOM     32  C   UNL     1       3.129  -6.404  26.664  0.00  0.00    +0.177 C 
ATOM     33  C   UNL     1       4.385  -7.167  26.185  0.00  0.00    +0.179 C 
ATOM     34  C   UNL     1       4.607  -6.957  24.681  0.00  0.00    +0.201 C 
ATOM     35  C   UNL     1       4.640  -5.448  24.392  0.00  0.00    +0.282 C 
ATOM     36  O   UNL     1       3.313  -4.943  24.622  0.00  0.00    -0.341 OA
BRANCH  34  37
ATOM     37  O   UNL     1       3.553  -7.610  23.951  0.00  0.00    -0.384 OA
ATOM     38  H   UNL     1       3.291  -7.027  23.212  0.00  0.00    +0.210 HD
ENDBRANCH  34  37
BRANCH  33  39
ATOM     39  O   UNL     1       5.560  -6.807  26.911  0.00  0.00    -0.386 OA
ATOM     40  H   UNL     1       5.674  -5.842  26.857  0.00  0.00    +0.210 HD
ENDBRANCH  33  39
BRANCH  32  41
ATOM     41  O   UNL     1       1.991  -7.268  26.388  0.00  0.00    -0.386 OA
ATOM     42  H   UNL     1       2.251  -8.175  26.648  0.00  0.00    +0.210 HD
ENDBRANCH  32  41
BRANCH  31  43
ATOM     43  C   UNL     1       3.313  -3.760  26.736  0.00  0.00    +0.190 C 
BRANCH  43  44
ATOM     44  O   UNL     1       4.444  -3.969  27.561  0.00  0.00    -0.392 OA
ATOM     45  H   UNL     1       4.768  -3.082  27.806  0.00  0.00    +0.210 HD
ENDBRANCH  43  44
ENDBRANCH  31  43
ENDBRANCH  30  35
ENDBRANCH   1  30
TORSDOF 18
ENDMDL
MODEL 4
REMARK VINA RESULT:      -6.6      1.573      3.059
REMARK  Name = 
REMARK  18 active torsions:
REMARK  status: ('A' for Active; 'I' for Inactive)
REMARK    1  A    between atoms: O_1  and  C_2
REMARK    2  A    between atoms: C_2  and  C_3
REMARK    3  A    between atoms: C_6  and  O_8
REMARK    4  A    between atoms: O_8  and  C_9
REMARK    5  A    between atoms: C_11  and  O_13
REMARK    6  A    between atoms: C_14  and  O_16
REMARK    7  A    between atoms: C_17  and  O_19
REMARK    8  A    between atoms: O_19  and  C_20
REMARK    9  A    between atoms: C_22  and  O_24
REMARK   10  A    between atoms: C_25  and  O_27
REMARK   11  A    between atoms: C_28  and  O_30
REMARK   12  A    between atoms: C_32  and  C_34
REMARK   13  A    between atoms: C_34  and  O_35
REMARK   14  A    between atoms: C_37  and  C_39
REMARK   15  A    between atoms: C_39  and  O_40
REMARK   16  A    between atoms: C_41  and  O_43
REMARK   17  A    between atoms: C_44  and  O_46
REMARK   18  A    between atoms: C_47  and  O_49
REMARK                            x       y       z     vdW  Elec       q    Type
REMARK                         _______ _______ _______ _____ _____    ______ ____
ROOT
ATOM      1  C   UNL     1       7.011  -1.421  23.264  0.00  0.00    +0.183 C 
ATOM      2  C   UNL     1       6.302  -1.896  24.560  0.00  0.00    +0.178 C 
ATOM      3  O   UNL     1       7.214  -2.585  25.439  0.00  0.00    -0.341 OA
ATOM      4  C   UNL     1       7.829  -3.750  24.864  0.00  0.00    +0.282 C 
ATOM      5  C   UNL     1       8.583  -3.365  23.571  0.00  0.00    +0.201 C 
ATOM      6  C   UNL     1       7.643  -2.650  22.586  0.00  0.00    +0.179 C 
ENDROOT
BRANCH   6   7
ATOM      7  O   UNL     1       6.637  -3.519  22.066  0.00  0.00    -0.386 OA
ATOM      8  H   UNL     1       5.829  -3.430  22.603  0.00  0.00    +0.210 HD
ENDBRANCH   6   7
BRANCH   5   9
ATOM      9  O   UNL     1       9.715  -2.525  23.895  0.00  0.00    -0.384 OA
ATOM     10  H   UNL     1      10.102  -2.878  24.722  0.00  0.00    +0.210 HD
ENDBRANCH   5   9
BRANCH   4  11
ATOM     11  O   UNL     1       6.850  -4.789  24.699  0.00  0.00    -0.340 OA
BRANCH  11  12
ATOM     12  C   UNL     1       5.611  -4.584  25.413  0.00  0.00    +0.183 C 
ATOM     13  C   UNL     1       5.619  -5.369  26.749  0.00  0.00    +0.178 C 
ATOM     14  O   UNL     1       5.466  -6.791  26.542  0.00  0.00    -0.341 OA
ATOM     15  C   UNL     1       4.230  -7.126  25.909  0.00  0.00    +0.279 C 
ATOM     16  C   UNL     1       4.119  -6.479  24.516  0.00  0.00    +0.201 C 
ATOM     17  C   UNL     1       4.338  -4.960  24.621  0.00  0.00    +0.179 C 
BRANCH  17  18
ATOM     18  O   UNL     1       3.210  -4.313  25.236  0.00  0.00    -0.386 OA
ATOM     19  H   UNL     1       2.394  -4.727  24.891  0.00  0.00    +0.210 HD
ENDBRANCH  17  18
BRANCH  16  20
ATOM     20  O   UNL     1       5.028  -7.071  23.595  0.00  0.00    -0.384 OA
ATOM     21  H   UNL     1       4.845  -6.714  22.707  0.00  0.00    +0.210 HD
ENDBRANCH  16  20
BRANCH  15  22
ATOM     22  O   UNL     1       3.128  -6.721  26.716  0.00  0.00    -0.365 OA
ATOM     23  H   UNL     1       2.373  -7.270  26.439  0.00  0.00    +0.213 HD
ENDBRANCH  15  22
BRANCH  13  24
ATOM     24  C   UNL     1       6.890  -5.154  27.575  0.00  0.00    +0.190 C 
BRANCH  24  25
ATOM     25  O   UNL     1       7.872  -6.121  27.193  0.00  0.00    -0.392 OA
ATOM     26  H   UNL     1       8.658  -5.612  26.917  0.00  0.00    +0.210 HD
ENDBRANCH  24  25
ENDBRANCH  13  24
ENDBRANCH  11  12
ENDBRANCH   4  11
BRANCH   2  27
ATOM     27  C   UNL     1       5.685  -0.759  25.384  0.00  0.00    +0.190 C 
BRANCH  27  28
ATOM     28  O   UNL     1       5.254   0.286  24.506  0.00  0.00    -0.392 OA
ATOM     29  H   UNL     1       4.963   1.016  25.086  0.00  0.00    +0.210 HD
ENDBRANCH  27  28
ENDBRANCH   2  27
BRANCH   1  30
ATOM     30  O   UNL     1       8.023  -0.447  23.593  0.00  0.00    -0.340 OA
BRANCH  30  35
ATOM     31  C   UNL     1      10.440   1.125  23.848  0.00  0.00    +0.178 C 
ATOM     32  C   UNL     1       9.681   2.471  24.010  0.00  0.00    +0.177 C 
ATOM     33  C   UNL     1       8.230   2.501  23.479  0.00  0.00    +0.179 C 
ATOM     34  C   UNL     1       8.100   1.652  22.207  0.00  0.00    +0.201 C 
ATOM     35  C   UNL     1       8.634   0.241  22.497  0.00  0.00    +0.282 C 
ATOM     36  O   UNL     1      10.054   0.357  22.695  0.00  0.00    -0.341 OA
BRANCH  34  37
ATOM     37  O   UNL     1       8.831   2.282  21.140  0.00  0.00    -0.384 OA
ATOM     38  H   UNL     1       9.038   3.198  21.414  0.00  0.00    +0.210 HD
ENDBRANCH  34  37
BRANCH  33  39
ATOM     39  O   UNL     1       7.277   2.076  24.454  0.00  0.00    -0.386 OA
ATOM     40  H   UNL     1       6.480   1.763  23.991  0.00  0.00    +0.210 HD
ENDBRANCH  33  39
BRANCH  32  41
ATOM     41  O   UNL     1      10.412   3.490  23.271  0.00  0.00    -0.386 OA
ATOM     42  H   UNL     1      11.012   3.022  22.657  0.00  0.00    +0.210 HD
ENDBRANCH  32  41
BRANCH  31  43
ATOM     43  C   UNL     1      10.501   0.183  25.070  0.00  0.00    +0.190 C 
BRANCH  43  44
ATOM     44  O   UNL     1       9.370   0.288  25.912  0.00  0.00    -0.392 OA
ATOM     45  H   UNL     1       9.349  -0.532  26.441  0.00  0.00    +0.210 HD
ENDBRANCH  43  44
ENDBRANCH  31  43
ENDBRANCH  30  35
ENDBRANCH   1  30
TORSDOF 18
ENDMDL
MODEL 5
REMARK VINA RESULT:      -6.6      2.552      4.535
REMARK  Name = 
REMARK  18 active torsions:
REMARK  status: ('A' for Active; 'I' for Inactive)
REMARK    1  A    between atoms: O_1  and  C_2
REMARK    2  A    between atoms: C_2  and  C_3
REMARK    3  A    between atoms: C_6  and  O_8
REMARK    4  A    between atoms: O_8  and  C_9
REMARK    5  A    between atoms: C_11  and  O_13
REMARK    6  A    between atoms: C_14  and  O_16
REMARK    7  A    between atoms: C_17  and  O_19
REMARK    8  A    between atoms: O_19  and  C_20
REMARK    9  A    between atoms: C_22  and  O_24
REMARK   10  A    between atoms: C_25  and  O_27
REMARK   11  A    between atoms: C_28  and  O_30
REMARK   12  A    between atoms: C_32  and  C_34
REMARK   13  A    between atoms: C_34  and  O_35
REMARK   14  A    between atoms: C_37  and  C_39
REMARK   15  A    between atoms: C_39  and  O_40
REMARK   16  A    between atoms: C_41  and  O_43
REMARK   17  A    between atoms: C_44  and  O_46
REMARK   18  A    between atoms: C_47  and  O_49
REMARK                            x       y       z     vdW  Elec       q    Type
REMARK                         _______ _______ _______ _____ _____    ______ ____
ROOT
ATOM      1  C   UNL     1       8.530   0.802  24.325  0.00  0.00    +0.183 C 
ATOM      2  C   UNL     1       8.787  -0.016  23.031  0.00  0.00    +0.178 C 
ATOM      3  O   UNL     1       7.552  -0.456  22.430  0.00  0.00    -0.341 OA
ATOM      4  C   UNL     1       6.740  -1.285  23.278  0.00  0.00    +0.282 C 
ATOM      5  C   UNL     1       6.413  -0.538  24.590  0.00  0.00    +0.201 C 
ATOM      6  C   UNL     1       7.702  -0.071  25.286  0.00  0.00    +0.179 C 
ENDROOT
BRANCH   6   7
ATOM      7  O   UNL     1       8.479  -1.162  25.781  0.00  0.00    -0.386 OA
ATOM      8  H   UNL     1       8.284  -1.288  26.727  0.00  0.00    +0.210 HD
ENDBRANCH   6   7
BRANCH   5   9
ATOM      9  O   UNL     1       5.548   0.588  24.311  0.00  0.00    -0.384 OA
ATOM     10  H   UNL     1       5.048   0.771  25.132  0.00  0.00    +0.210 HD
ENDBRANCH   5   9
BRANCH   4  11
ATOM     11  O   UNL     1       7.369  -2.565  23.458  0.00  0.00    -0.340 OA
BRANCH  11  12
ATOM     12  C   UNL     1       6.548  -3.569  24.092  0.00  0.00    +0.183 C 
ATOM     13  C   UNL     1       7.281  -4.933  24.116  0.00  0.00    +0.178 C 
ATOM     14  O   UNL     1       7.328  -5.547  22.809  0.00  0.00    -0.341 OA
ATOM     15  C   UNL     1       6.028  -5.821  22.283  0.00  0.00    +0.279 C 
ATOM     16  C   UNL     1       5.205  -4.531  22.118  0.00  0.00    +0.201 C 
ATOM     17  C   UNL     1       5.154  -3.764  23.450  0.00  0.00    +0.179 C 
BRANCH  17  18
ATOM     18  O   UNL     1       4.303  -4.428  24.401  0.00  0.00    -0.386 OA
ATOM     19  H   UNL     1       4.834  -4.630  25.198  0.00  0.00    +0.210 HD
ENDBRANCH  17  18
BRANCH  16  20
ATOM     20  O   UNL     1       5.721  -3.716  21.071  0.00  0.00    -0.384 OA
ATOM     21  H   UNL     1       5.105  -2.974  20.925  0.00  0.00    +0.210 HD
ENDBRANCH  16  20
BRANCH  15  22
ATOM     22  O   UNL     1       5.329  -6.733  23.125  0.00  0.00    -0.365 OA
ATOM     23  H   UNL     1       4.617  -6.220  23.548  0.00  0.00    +0.213 HD
ENDBRANCH  15  22
BRANCH  13  24
ATOM     24  C   UNL     1       8.718  -4.843  24.638  0.00  0.00    +0.190 C 
BRANCH  24  25
ATOM     25  O   UNL     1       8.777  -3.884  25.698  0.00  0.00    -0.392 OA
ATOM     26  H   UNL     1       9.552  -3.322  25.509  0.00  0.00    +0.210 HD
ENDBRANCH  24  25
ENDBRANCH  13  24
ENDBRANCH  11  12
ENDBRANCH   4  11
BRANCH   2  27
ATOM     27  C   UNL     1       9.542   0.760  21.946  0.00  0.00    +0.190 C 
BRANCH  27  28
ATOM     28  O   UNL     1       8.621   1.577  21.215  0.00  0.00    -0.392 OA
ATOM     29  H   UNL     1       7.775   1.089  21.217  0.00  0.00    +0.210 HD
ENDBRANCH  27  28
ENDBRANCH   2  27
BRANCH   1  30
ATOM     30  O   UNL     1       7.817   2.014  24.001  0.00  0.00    -0.340 OA
BRANCH  30  35
ATOM     31  C   UNL     1       6.071   4.313  23.792  0.00  0.00    +0.178 C 
ATOM     32  C   UNL     1       7.221   5.294  23.434  0.00  0.00    +0.177 C 
ATOM     33  C   UNL     1       8.645   4.848  23.837  0.00  0.00    +0.179 C 
ATOM     34  C   UNL     1       8.618   4.091  25.173  0.00  0.00    +0.201 C 
ATOM     35  C   UNL     1       7.605   2.941  25.069  0.00  0.00    +0.282 C 
ATOM     36  O   UNL     1       6.297   3.534  24.979  0.00  0.00    -0.341 OA
BRANCH  34  37
ATOM     37  O   UNL     1       8.272   5.005  26.228  0.00  0.00    -0.384 OA
ATOM     38  H   UNL     1       7.443   5.458  25.977  0.00  0.00    +0.210 HD
ENDBRANCH  34  37
BRANCH  33  39
ATOM     39  O   UNL     1       9.279   4.054  22.835  0.00  0.00    -0.386 OA
ATOM     40  H   UNL     1      10.048   3.609  23.232  0.00  0.00    +0.210 HD
ENDBRANCH  33  39
BRANCH  32  41
ATOM     41  O   UNL     1       6.970   6.550  24.126  0.00  0.00    -0.386 OA
ATOM     42  H   UNL     1       7.542   7.225  23.710  0.00  0.00    +0.210 HD
ENDBRANCH  32  41
BRANCH  31  43
ATOM     43  C   UNL     1       5.554   3.375  22.679  0.00  0.00    +0.190 C 
BRANCH  43  44
ATOM     44  O   UNL     1       6.454   3.247  21.595  0.00  0.00    -0.392 OA
ATOM     45  H   UNL     1       6.517   4.132  21.189  0.00  0.00    +0.210 HD
ENDBRANCH  43  44
ENDBRANCH  31  43
ENDBRANCH  30  35
ENDBRANCH   1  30
TORSDOF 18
ENDMDL
MODEL 6
REMARK VINA RESULT:      -6.6      1.625      3.426
REMARK  Name = 
REMARK  18 active torsions:
REMARK  status: ('A' for Active; 'I' for Inactive)
REMARK    1  A    between atoms: O_1  and  C_2
REMARK    2  A    between atoms: C_2  and  C_3
REMARK    3  A    between atoms: C_6  and  O_8
REMARK    4  A    between atoms: O_8  and  C_9
REMARK    5  A    between atoms: C_11  and  O_13
REMARK    6  A    between atoms: C_14  and  O_16
REMARK    7  A    between atoms: C_17  and  O_19
REMARK    8  A    between atoms: O_19  and  C_20
REMARK    9  A    between atoms: C_22  and  O_24
REMARK   10  A    between atoms: C_25  and  O_27
REMARK   11  A    between atoms: C_28  and  O_30
REMARK   12  A    between atoms: C_32  and  C_34
REMARK   13  A    between atoms: C_34  and  O_35
REMARK   14  A    between atoms: C_37  and  C_39
REMARK   15  A    between atoms: C_39  and  O_40
REMARK   16  A    between atoms: C_41  and  O_43
REMARK   17  A    between atoms: C_44  and  O_46
REMARK   18  A    between atoms: C_47  and  O_49
REMARK                            x       y       z     vdW  Elec       q    Type
REMARK                         _______ _______ _______ _____ _____    ______ ____
ROOT
ATOM      1  C   UNL     1       8.502  -2.437  24.517  0.00  0.00    +0.183 C 
ATOM      2  C   UNL     1       7.395  -3.422  24.057  0.00  0.00    +0.178 C 
ATOM      3  O   UNL     1       6.095  -3.012  24.525  0.00  0.00    -0.341 OA
ATOM      4  C   UNL     1       5.981  -2.914  25.955  0.00  0.00    +0.282 C 
ATOM      5  C   UNL     1       7.038  -1.929  26.503  0.00  0.00    +0.201 C 
ATOM      6  C   UNL     1       8.449  -2.341  26.052  0.00  0.00    +0.179 C 
ENDROOT
BRANCH   6   7
ATOM      7  O   UNL     1       8.878  -3.563  26.655  0.00  0.00    -0.386 OA
ATOM      8  H   UNL     1       9.770  -3.781  26.332  0.00  0.00    +0.210 HD
ENDBRANCH   6   7
BRANCH   5   9
ATOM      9  O   UNL     1       6.734  -0.586  26.059  0.00  0.00    -0.384 OA
ATOM     10  H   UNL     1       5.761  -0.527  25.981  0.00  0.00    +0.210 HD
ENDBRANCH   5   9
BRANCH   4  11
ATOM     11  O   UNL     1       6.024  -4.226  26.540  0.00  0.00    -0.340 OA
BRANCH  11  12
ATOM     12  C   UNL     1       4.767  -4.707  27.063  0.00  0.00    +0.183 C 
ATOM     13  C   UNL     1       4.947  -6.106  27.705  0.00  0.00    +0.178 C 
ATOM     14  O   UNL     1       5.128  -7.138  26.712  0.00  0.00    -0.341 OA
ATOM     15  C   UNL     1       4.007  -7.262  25.834  0.00  0.00    +0.279 C 
ATOM     16  C   UNL     1       3.759  -5.958  25.052  0.00  0.00    +0.201 C 
ATOM     17  C   UNL     1       3.620  -4.777  26.028  0.00  0.00    +0.179 C 
BRANCH  17  18
ATOM     18  O   UNL     1       2.369  -4.831  26.736  0.00  0.00    -0.386 OA
ATOM     19  H   UNL     1       2.128  -3.920  26.999  0.00  0.00    +0.210 HD
ENDBRANCH  17  18
BRANCH  16  20
ATOM     20  O   UNL     1       4.787  -5.723  24.096  0.00  0.00    -0.384 OA
ATOM     21  H   UNL     1       4.690  -6.369  23.373  0.00  0.00    +0.210 HD
ENDBRANCH  16  20
BRANCH  15  22
ATOM     22  O   UNL     1       2.835  -7.614  26.565  0.00  0.00    -0.365 OA
ATOM     23  H   UNL     1       2.856  -8.583  26.660  0.00  0.00    +0.213 HD
ENDBRANCH  15  22
BRANCH  13  24
ATOM     24  C   UNL     1       6.128  -6.183  28.677  0.00  0.00    +0.190 C 
BRANCH  24  25
ATOM     25  O   UNL     1       7.352  -6.112  27.940  0.00  0.00    -0.392 OA
ATOM     26  H   UNL     1       7.251  -6.729  27.191  0.00  0.00    +0.210 HD
ENDBRANCH  24  25
ENDBRANCH  13  24
ENDBRANCH  11  12
ENDBRANCH   4  11
BRANCH   2  27
ATOM     27  C   UNL     1       7.280  -3.562  22.534  0.00  0.00    +0.190 C 
BRANCH  27  28
ATOM     28  O   UNL     1       7.084  -4.939  22.195  0.00  0.00    -0.392 OA
ATOM     29  H   UNL     1       7.426  -5.450  22.955  0.00  0.00    +0.210 HD
ENDBRANCH  27  28
ENDBRANCH   2  27
BRANCH   1  30
ATOM     30  O   UNL     1       8.280  -1.143  23.920  0.00  0.00    -0.340 OA
BRANCH  30  35
ATOM     31  C   UNL     1       8.154   1.538  22.836  0.00  0.00    +0.178 C 
ATOM     32  C   UNL     1       9.250   1.278  21.766  0.00  0.00    +0.177 C 
ATOM     33  C   UNL     1      10.204   0.094  22.046  0.00  0.00    +0.179 C 
ATOM     34  C   UNL     1      10.501  -0.020  23.547  0.00  0.00    +0.201 C 
ATOM     35  C   UNL     1       9.169  -0.093  24.311  0.00  0.00    +0.282 C 
ATOM     36  O   UNL     1       8.534   1.191  24.179  0.00  0.00    -0.341 OA
BRANCH  34  37
ATOM     37  O   UNL     1      11.286   1.111  23.963  0.00  0.00    -0.384 OA
ATOM     38  H   UNL     1      10.937   1.905  23.510  0.00  0.00    +0.210 HD
ENDBRANCH  34  37
BRANCH  33  39
ATOM     39  O   UNL     1       9.704  -1.147  21.547  0.00  0.00    -0.386 OA
ATOM     40  H   UNL     1      10.410  -1.583  21.038  0.00  0.00    +0.210 HD
ENDBRANCH  33  39
BRANCH  32  41
ATOM     41  O   UNL     1      10.083   2.468  21.680  0.00  0.00    -0.386 OA
ATOM     42  H   UNL     1      10.793   2.273  21.036  0.00  0.00    +0.210 HD
ENDBRANCH  32  41
BRANCH  31  43
ATOM     43  C   UNL     1       6.739   0.981  22.566  0.00  0.00    +0.190 C 
BRANCH  43  44
ATOM     44  O   UNL     1       5.964   0.835  23.740  0.00  0.00    -0.392 OA
ATOM     45  H   UNL     1       5.032   0.916  23.461  0.00  0.00    +0.210 HD
ENDBRANCH  43  44
ENDBRANCH  31  43
ENDBRANCH  30  35
ENDBRANCH   1  30
TORSDOF 18
ENDMDL
MODEL 7
REMARK VINA RESULT:      -6.5      1.558      3.394
REMARK  Name = 
REMARK  18 active torsions:
REMARK  status: ('A' for Active; 'I' for Inactive)
REMARK    1  A    between atoms: O_1  and  C_2
REMARK    2  A    between atoms: C_2  and  C_3
REMARK    3  A    between atoms: C_6  and  O_8
REMARK    4  A    between atoms: O_8  and  C_9
REMARK    5  A    between atoms: C_11  and  O_13
REMARK    6  A    between atoms: C_14  and  O_16
REMARK    7  A    between atoms: C_17  and  O_19
REMARK    8  A    between atoms: O_19  and  C_20
REMARK    9  A    between atoms: C_22  and  O_24
REMARK   10  A    between atoms: C_25  and  O_27
REMARK   11  A    between atoms: C_28  and  O_30
REMARK   12  A    between atoms: C_32  and  C_34
REMARK   13  A    between atoms: C_34  and  O_35
REMARK   14  A    between atoms: C_37  and  C_39
REMARK   15  A    between atoms: C_39  and  O_40
REMARK   16  A    between atoms: C_41  and  O_43
REMARK   17  A    between atoms: C_44  and  O_46
REMARK   18  A    between atoms: C_47  and  O_49
REMARK                            x       y       z     vdW  Elec       q    Type
REMARK                         _______ _______ _______ _____ _____    ______ ____
ROOT
ATOM      1  C   UNL     1       8.527  -0.846  24.788  0.00  0.00    +0.183 C 
ATOM      2  C   UNL     1       8.630  -2.179  24.001  0.00  0.00    +0.178 C 
ATOM      3  O   UNL     1       7.379  -2.517  23.368  0.00  0.00    -0.341 OA
ATOM      4  C   UNL     1       6.275  -2.668  24.276  0.00  0.00    +0.282 C 
ATOM      5  C   UNL     1       6.082  -1.370  25.093  0.00  0.00    +0.201 C 
ATOM      6  C   UNL     1       7.384  -0.982  25.811  0.00  0.00    +0.179 C 
ENDROOT
BRANCH   6   7
ATOM      7  O   UNL     1       7.732  -1.904  26.844  0.00  0.00    -0.386 OA
ATOM      8  H   UNL     1       7.968  -2.759  26.442  0.00  0.00    +0.210 HD
ENDBRANCH   6   7
BRANCH   5   9
ATOM      9  O   UNL     1       5.643  -0.303  24.221  0.00  0.00    -0.384 OA
ATOM     10  H   UNL     1       6.448   0.165  23.919  0.00  0.00    +0.210 HD
ENDBRANCH   5   9
BRANCH   4  11
ATOM     11  O   UNL     1       6.452  -3.854  25.068  0.00  0.00    -0.340 OA
BRANCH  11  12
ATOM     12  C   UNL     1       5.339  -4.192  25.925  0.00  0.00    +0.183 C 
ATOM     13  C   UNL     1       5.707  -5.381  26.847  0.00  0.00    +0.178 C 
ATOM     14  O   UNL     1       5.756  -6.631  26.126  0.00  0.00    -0.341 OA
ATOM     15  C   UNL     1       4.502  -6.978  25.538  0.00  0.00    +0.279 C 
ATOM     16  C   UNL     1       4.046  -5.917  24.519  0.00  0.00    +0.201 C 
ATOM     17  C   UNL     1       4.027  -4.528  25.178  0.00  0.00    +0.179 C 
BRANCH  17  18
ATOM     18  O   UNL     1       2.932  -4.405  26.103  0.00  0.00    -0.386 OA
ATOM     19  H   UNL     1       3.301  -4.257  26.997  0.00  0.00    +0.210 HD
ENDBRANCH  17  18
BRANCH  16  20
ATOM     20  O   UNL     1       4.867  -5.928  23.356  0.00  0.00    -0.384 OA
ATOM     21  H   UNL     1       5.351  -6.773  23.329  0.00  0.00    +0.210 HD
ENDBRANCH  16  20
BRANCH  15  22
ATOM     22  O   UNL     1       3.504  -7.138  26.543  0.00  0.00    -0.365 OA
ATOM     23  H   UNL     1       2.852  -6.430  26.394  0.00  0.00    +0.213 HD
ENDBRANCH  15  22
BRANCH  13  24
ATOM     24  C   UNL     1       7.049  -5.204  27.564  0.00  0.00    +0.190 C 
BRANCH  24  25
ATOM     25  O   UNL     1       8.068  -5.898  26.838  0.00  0.00    -0.392 OA
ATOM     26  H   UNL     1       8.216  -5.382  26.023  0.00  0.00    +0.210 HD
ENDBRANCH  24  25
ENDBRANCH  13  24
ENDBRANCH  11  12
ENDBRANCH   4  11
BRANCH   2  27
ATOM     27  C   UNL     1       9.685  -2.164  22.888  0.00  0.00    +0.190 C 
BRANCH  27  28
ATOM     28  O   UNL     1       9.061  -1.833  21.643  0.00  0.00    -0.392 OA
ATOM     29  H   UNL     1       8.848  -2.687  21.219  0.00  0.00    +0.210 HD
ENDBRANCH  27  28
ENDBRANCH   2  27
BRANCH   1  30
ATOM     30  O   UNL     1       8.263   0.239  23.875  0.00  0.00    -0.340 OA
BRANCH  30  35
ATOM     31  C   UNL     1       8.670   3.025  24.549  0.00  0.00    +0.178 C 
ATOM     32  C   UNL     1       8.050   3.551  23.225  0.00  0.00    +0.177 C 
ATOM     33  C   UNL     1       8.012   2.551  22.048  0.00  0.00    +0.179 C 
ATOM     34  C   UNL     1       9.261   1.659  22.053  0.00  0.00    +0.201 C 
ATOM     35  C   UNL     1       9.392   0.999  23.435  0.00  0.00    +0.282 C 
ATOM     36  O   UNL     1       9.705   2.042  24.375  0.00  0.00    -0.341 OA
BRANCH  34  37
ATOM     37  O   UNL     1      10.416   2.458  21.740  0.00  0.00    -0.384 OA
ATOM     38  H   UNL     1      11.035   2.405  22.495  0.00  0.00    +0.210 HD
ENDBRANCH  34  37
BRANCH  33  39
ATOM     39  O   UNL     1       6.833   1.746  22.046  0.00  0.00    -0.386 OA
ATOM     40  H   UNL     1       6.375   1.869  21.196  0.00  0.00    +0.210 HD
ENDBRANCH  33  39
BRANCH  32  41
ATOM     41  O   UNL     1       8.846   4.685  22.778  0.00  0.00    -0.386 OA
ATOM     42  H   UNL     1       9.019   5.240  23.564  0.00  0.00    +0.210 HD
ENDBRANCH  32  41
BRANCH  31  43
ATOM     43  C   UNL     1       7.704   2.533  25.649  0.00  0.00    +0.190 C 
BRANCH  43  44
ATOM     44  O   UNL     1       6.396   2.280  25.171  0.00  0.00    -0.392 OA
ATOM     45  H   UNL     1       5.981   3.154  25.044  0.00  0.00    +0.210 HD
ENDBRANCH  43  44
ENDBRANCH  31  43
ENDBRANCH  30  35
ENDBRANCH   1  30
TORSDOF 18
ENDMDL
MODEL 8
REMARK VINA RESULT:      -6.3      1.508      8.170
REMARK  Name = 
REMARK  18 active torsions:
REMARK  status: ('A' for Active; 'I' for Inactive)
REMARK    1  A    between atoms: O_1  and  C_2
REMARK    2  A    between atoms: C_2  and  C_3
REMARK    3  A    between atoms: C_6  and  O_8
REMARK    4  A    between atoms: O_8  and  C_9
REMARK    5  A    between atoms: C_11  and  O_13
REMARK    6  A    between atoms: C_14  and  O_16
REMARK    7  A    between atoms: C_17  and  O_19
REMARK    8  A    between atoms: O_19  and  C_20
REMARK    9  A    between atoms: C_22  and  O_24
REMARK   10  A    between atoms: C_25  and  O_27
REMARK   11  A    between atoms: C_28  and  O_30
REMARK   12  A    between atoms: C_32  and  C_34
REMARK   13  A    between atoms: C_34  and  O_35
REMARK   14  A    between atoms: C_37  and  C_39
REMARK   15  A    between atoms: C_39  and  O_40
REMARK   16  A    between atoms: C_41  and  O_43
REMARK   17  A    between atoms: C_44  and  O_46
REMARK   18  A    between atoms: C_47  and  O_49
REMARK                            x       y       z     vdW  Elec       q    Type
REMARK                         _______ _______ _______ _____ _____    ______ ____
ROOT
ATOM      1  C   UNL     1       6.687  -4.574  25.203  0.00  0.00    +0.183 C 
ATOM      2  C   UNL     1       8.054  -3.865  25.401  0.00  0.00    +0.178 C 
ATOM      3  O   UNL     1       7.890  -2.555  25.979  0.00  0.00    -0.341 OA
ATOM      4  C   UNL     1       7.079  -1.658  25.202  0.00  0.00    +0.282 C 
ATOM      5  C   UNL     1       5.681  -2.276  24.973  0.00  0.00    +0.201 C 
ATOM      6  C   UNL     1       5.801  -3.668  24.330  0.00  0.00    +0.179 C 
ENDROOT
BRANCH   6   7
ATOM      7  O   UNL     1       6.294  -3.608  22.991  0.00  0.00    -0.386 OA
ATOM      8  H   UNL     1       5.920  -2.825  22.548  0.00  0.00    +0.210 HD
ENDBRANCH   6   7
BRANCH   5   9
ATOM      9  O   UNL     1       4.968  -2.355  26.229  0.00  0.00    -0.384 OA
ATOM     10  H   UNL     1       5.186  -1.544  26.730  0.00  0.00    +0.210 HD
ENDBRANCH   5   9
BRANCH   4  11
ATOM     11  O   UNL     1       7.774  -1.287  24.000  0.00  0.00    -0.340 OA
BRANCH  11  12
ATOM     12  C   UNL     1       8.599  -0.106  24.108  0.00  0.00    +0.183 C 
ATOM     13  C   UNL     1       7.933   1.089  23.381  0.00  0.00    +0.178 C 
ATOM     14  O   UNL     1       8.005   0.957  21.944  0.00  0.00    -0.341 OA
ATOM     15  C   UNL     1       9.349   0.918  21.462  0.00  0.00    +0.279 C 
ATOM     16  C   UNL     1      10.118  -0.285  22.039  0.00  0.00    +0.201 C 
ATOM     17  C   UNL     1      10.040  -0.273  23.574  0.00  0.00    +0.179 C 
BRANCH  17  18
ATOM     18  O   UNL     1      10.856   0.774  24.129  0.00  0.00    -0.386 OA
ATOM     19  H   UNL     1      10.370   1.618  24.043  0.00  0.00    +0.210 HD
ENDBRANCH  17  18
BRANCH  16  20
ATOM     20  O   UNL     1       9.636  -1.514  21.505  0.00  0.00    -0.384 OA
ATOM     21  H   UNL     1       9.944  -1.592  20.584  0.00  0.00    +0.210 HD
ENDBRANCH  16  20
BRANCH  15  22
ATOM     22  O   UNL     1      10.034   2.125  21.786  0.00  0.00    -0.365 OA
ATOM     23  H   UNL     1      10.591   2.336  21.015  0.00  0.00    +0.213 HD
ENDBRANCH  15  22
BRANCH  13  24
ATOM     24  C   UNL     1       6.461   1.286  23.755  0.00  0.00    +0.190 C 
BRANCH  24  25
ATOM     25  O   UNL     1       5.747   1.786  22.621  0.00  0.00    -0.392 OA
ATOM     26  H   UNL     1       6.181   1.399  21.838  0.00  0.00    +0.210 HD
ENDBRANCH  24  25
ENDBRANCH  13  24
ENDBRANCH  11  12
ENDBRANCH   4  11
BRANCH   2  27
ATOM     27  C   UNL     1       9.020  -4.624  26.318  0.00  0.00    +0.190 C 
BRANCH  27  28
ATOM     28  O   UNL     1       9.736  -5.600  25.553  0.00  0.00    -0.392 OA
ATOM     29  H   UNL     1      10.479  -5.886  26.119  0.00  0.00    +0.210 HD
ENDBRANCH  27  28
ENDBRANCH   2  27
BRANCH   1  30
ATOM     30  O   UNL     1       6.069  -4.804  26.486  0.00  0.00    -0.340 OA
BRANCH  30  35
ATOM     31  C   UNL     1       4.009  -6.764  27.024  0.00  0.00    +0.178 C 
ATOM     32  C   UNL     1       3.801  -6.308  28.494  0.00  0.00    +0.177 C 
ATOM     33  C   UNL     1       4.972  -5.528  29.134  0.00  0.00    +0.179 C 
ATOM     34  C   UNL     1       6.320  -6.074  28.643  0.00  0.00    +0.201 C 
ATOM     35  C   UNL     1       6.326  -6.067  27.107  0.00  0.00    +0.282 C 
ATOM     36  O   UNL     1       5.373  -7.053  26.674  0.00  0.00    -0.341 OA
BRANCH  34  37
ATOM     37  O   UNL     1       6.512  -7.401  29.165  0.00  0.00    -0.384 OA
ATOM     38  H   UNL     1       5.633  -7.812  29.280  0.00  0.00    +0.210 HD
ENDBRANCH  34  37
BRANCH  33  39
ATOM     39  O   UNL     1       4.894  -4.122  28.897  0.00  0.00    -0.386 OA
ATOM     40  H   UNL     1       3.975  -3.897  28.669  0.00  0.00    +0.210 HD
ENDBRANCH  33  39
BRANCH  32  41
ATOM     41  O   UNL     1       3.602  -7.497  29.309  0.00  0.00    -0.386 OA
ATOM     42  H   UNL     1       3.579  -7.204  30.241  0.00  0.00    +0.210 HD
ENDBRANCH  32  41
BRANCH  31  43
ATOM     43  C   UNL     1       3.387  -5.897  25.907  0.00  0.00    +0.190 C 
BRANCH  43  44
ATOM     44  O   UNL     1       3.114  -4.571  26.318  0.00  0.00    -0.392 OA
ATOM     45  H   UNL     1       3.576  -4.451  27.169  0.00  0.00    +0.210 HD
ENDBRANCH  43  44
ENDBRANCH  31  43
ENDBRANCH  30  35
ENDBRANCH   1  30
TORSDOF 18
ENDMDL
MODEL 9
REMARK VINA RESULT:      -6.3      1.480      8.258
REMARK  Name = 
REMARK  18 active torsions:
REMARK  status: ('A' for Active; 'I' for Inactive)
REMARK    1  A    between atoms: O_1  and  C_2
REMARK    2  A    between atoms: C_2  and  C_3
REMARK    3  A    between atoms: C_6  and  O_8
REMARK    4  A    between atoms: O_8  and  C_9
REMARK    5  A    between atoms: C_11  and  O_13
REMARK    6  A    between atoms: C_14  and  O_16
REMARK    7  A    between atoms: C_17  and  O_19
REMARK    8  A    between atoms: O_19  and  C_20
REMARK    9  A    between atoms: C_22  and  O_24
REMARK   10  A    between atoms: C_25  and  O_27
REMARK   11  A    between atoms: C_28  and  O_30
REMARK   12  A    between atoms: C_32  and  C_34
REMARK   13  A    between atoms: C_34  and  O_35
REMARK   14  A    between atoms: C_37  and  C_39
REMARK   15  A    between atoms: C_39  and  O_40
REMARK   16  A    between atoms: C_41  and  O_43
REMARK   17  A    between atoms: C_44  and  O_46
REMARK   18  A    between atoms: C_47  and  O_49
REMARK                            x       y       z     vdW  Elec       q    Type
REMARK                         _______ _______ _______ _____ _____    ______ ____
ROOT
ATOM      1  C   UNL     1       4.810  -3.086  24.838  0.00  0.00    +0.183 C 
ATOM      2  C   UNL     1       5.658  -3.136  23.540  0.00  0.00    +0.178 C 
ATOM      3  O   UNL     1       7.070  -3.147  23.830  0.00  0.00    -0.341 OA
ATOM      4  C   UNL     1       7.534  -2.006  24.572  0.00  0.00    +0.282 C 
ATOM      5  C   UNL     1       6.756  -1.890  25.902  0.00  0.00    +0.201 C 
ATOM      6  C   UNL     1       5.241  -1.847  25.643  0.00  0.00    +0.179 C 
ENDROOT
BRANCH   6   7
ATOM      7  O   UNL     1       4.835  -0.645  24.985  0.00  0.00    -0.386 OA
ATOM      8  H   UNL     1       4.113  -0.851  24.364  0.00  0.00    +0.210 HD
ENDBRANCH   6   7
BRANCH   5   9
ATOM      9  O   UNL     1       7.092  -3.000  26.766  0.00  0.00    -0.384 OA
ATOM     10  H   UNL     1       8.052  -3.160  26.661  0.00  0.00    +0.210 HD
ENDBRANCH   5   9
BRANCH   4  11
ATOM     11  O   UNL     1       7.486  -0.832  23.745  0.00  0.00    -0.340 OA
BRANCH  11  12
ATOM     12  C   UNL     1       8.540   0.127  23.977  0.00  0.00    +0.183 C 
ATOM     13  C   UNL     1       8.131   1.522  23.445  0.00  0.00    +0.178 C 
ATOM     14  O   UNL     1       8.159   1.581  22.002  0.00  0.00    -0.341 OA
ATOM     15  C   UNL     1       9.459   1.334  21.465  0.00  0.00    +0.279 C 
ATOM     16  C   UNL     1       9.966  -0.070  21.844  0.00  0.00    +0.201 C 
ATOM     17  C   UNL     1       9.909  -0.257  23.369  0.00  0.00    +0.179 C 
BRANCH  17  18
ATOM     18  O   UNL     1      10.932   0.511  24.026  0.00  0.00    -0.386 OA
ATOM     19  H   UNL     1      10.813   0.417  24.993  0.00  0.00    +0.210 HD
ENDBRANCH  17  18
BRANCH  16  20
ATOM     20  O   UNL     1       9.231  -1.086  21.169  0.00  0.00    -0.384 OA
ATOM     21  H   UNL     1       8.847  -0.703  20.359  0.00  0.00    +0.210 HD
ENDBRANCH  16  20
BRANCH  15  22
ATOM     22  O   UNL     1      10.385   2.317  21.921  0.00  0.00    -0.365 OA
ATOM     23  H   UNL     1      11.214   2.155  21.437  0.00  0.00    +0.213 HD
ENDBRANCH  15  22
BRANCH  13  24
ATOM     24  C   UNL     1       6.737   1.964  23.902  0.00  0.00    +0.190 C 
BRANCH  24  25
ATOM     25  O   UNL     1       5.753   1.391  23.037  0.00  0.00    -0.392 OA
ATOM     26  H   UNL     1       4.888   1.616  23.428  0.00  0.00    +0.210 HD
ENDBRANCH  24  25
ENDBRANCH  13  24
ENDBRANCH  11  12
ENDBRANCH   4  11
BRANCH   2  27
ATOM     27  C   UNL     1       5.387  -4.368  22.668  0.00  0.00    +0.190 C 
BRANCH  27  28
ATOM     28  O   UNL     1       5.586  -4.031  21.290  0.00  0.00    -0.392 OA
ATOM     29  H   UNL     1       6.242  -3.307  21.288  0.00  0.00    +0.210 HD
ENDBRANCH  27  28
ENDBRANCH   2  27
BRANCH   1  30
ATOM     30  O   UNL     1       5.026  -4.288  25.606  0.00  0.00    -0.340 OA
BRANCH  30  35
ATOM     31  C   UNL     1       3.176  -5.250  27.613  0.00  0.00    +0.178 C 
ATOM     32  C   UNL     1       4.108  -6.400  28.084  0.00  0.00    +0.177 C 
ATOM     33  C   UNL     1       5.194  -6.847  27.079  0.00  0.00    +0.179 C 
ATOM     34  C   UNL     1       4.664  -6.778  25.640  0.00  0.00    +0.201 C 
ATOM     35  C   UNL     1       4.113  -5.367  25.383  0.00  0.00    +0.282 C 
ATOM     36  O   UNL     1       2.936  -5.216  26.196  0.00  0.00    -0.341 OA
BRANCH  34  37
ATOM     37  O   UNL     1       3.648  -7.781  25.461  0.00  0.00    -0.384 OA
ATOM     38  H   UNL     1       4.025  -8.501  24.919  0.00  0.00    +0.210 HD
ENDBRANCH  34  37
BRANCH  33  39
ATOM     39  O   UNL     1       6.399  -6.090  27.196  0.00  0.00    -0.386 OA
ATOM     40  H   UNL     1       6.774  -6.239  28.081  0.00  0.00    +0.210 HD
ENDBRANCH  33  39
BRANCH  32  41
ATOM     41  O   UNL     1       3.282  -7.568  28.346  0.00  0.00    -0.386 OA
ATOM     42  H   UNL     1       3.682  -8.316  27.859  0.00  0.00    +0.210 HD
ENDBRANCH  32  41
BRANCH  31  43
ATOM     43  C   UNL     1       3.502  -3.818  28.091  0.00  0.00    +0.190 C 
BRANCH  43  44
ATOM     44  O   UNL     1       4.840  -3.667  28.527  0.00  0.00    -0.392 OA
ATOM     45  H   UNL     1       5.110  -2.767  28.264  0.00  0.00    +0.210 HD
ENDBRANCH  43  44
ENDBRANCH  31  43
ENDBRANCH  30  35
ENDBRANCH   1  30
TORSDOF 18
ENDMDL
