MODEL 1
REMARK VINA RESULT:      -7.7      0.000      0.000
REMARK  Name = 
REMARK  5 active torsions:
REMARK  status: ('A' for Active; 'I' for Inactive)
REMARK    1  A    between atoms: C_1  and  C_2
REMARK    2  A    between atoms: C_2  and  N_3
REMARK    3  A    between atoms: C_6  and  C_7
REMARK    4  A    between atoms: C_6  and  C_8
REMARK    5  A    between atoms: C_23  and  C_24
REMARK                            x       y       z     vdW  Elec       q    Type
REMARK                         _______ _______ _______ _____ _____    ______ ____
ROOT
ATOM      1  N   UNL     1       6.935  -4.688  25.716  0.00  0.00    -0.271 N 
ATOM      2  C   UNL     1       7.319  -3.420  25.235  0.00  0.00    +0.041 A 
ATOM      3  C   UNL     1       6.755  -3.235  23.971  0.00  0.00    -0.010 A 
ATOM      4  C   UNL     1       6.626  -1.975  23.403  0.00  0.00    +0.032 A 
ATOM      5  C   UNL     1       7.146  -0.934  24.170  0.00  0.00    +0.048 A 
ATOM      6  N   UNL     1       6.958   0.429  24.083  0.00  0.00    -0.353 N 
ATOM      7  H   UNL     1       6.368   0.893  23.405  0.00  0.00    +0.166 HD
ATOM      8  C   UNL     1       7.856   1.061  24.905  0.00  0.00    +0.069 A 
ATOM      9  C   UNL     1       8.194   2.435  24.809  0.00  0.00    +0.086 A 
ATOM     10  N   UNL     1       8.065   3.411  25.750  0.00  0.00    -0.275 N 
ATOM     11  H   UNL     1       7.661   3.338  26.679  0.00  0.00    +0.189 HD
ATOM     12  N   UNL     1       8.693   4.557  25.408  0.00  0.00    -0.178 NA
ATOM     13  C   UNL     1       9.384   4.228  24.297  0.00  0.00    +0.064 A 
ATOM     14  C   UNL     1      10.320   5.182  23.664  0.00  0.00    +0.068 C 
ATOM     15  C   UNL     1       9.162   2.883  23.943  0.00  0.00    +0.002 A 
ATOM     16  C   UNL     1       9.885   1.949  23.044  0.00  0.00    +0.039 C 
ATOM     17  C   UNL     1      10.783   0.977  23.869  0.00  0.00    +0.009 C 
ATOM     18  C   UNL     1      10.254   0.364  25.235  0.00  0.00    +0.038 C 
ATOM     19  C   UNL     1       8.776   0.073  25.229  0.00  0.00    -0.013 A 
ATOM     20  C   UNL     1       8.036  -1.145  25.230  0.00  0.00    +0.005 A 
ATOM     21  C   UNL     1       6.205  -4.546  23.466  0.00  0.00    +0.068 C 
ATOM     22  C   UNL     1       4.827  -4.399  22.834  0.00  0.00    +0.025 C 
ATOM     23  C   UNL     1       7.193  -5.220  22.506  0.00  0.00    +0.025 C 
ATOM     24  C   UNL     1       8.087  -2.423  25.835  0.00  0.00    +0.034 A 
ATOM     25  C   UNL     1       6.160  -5.372  24.761  0.00  0.00    +0.230 C 
ATOM     26  O   UNL     1       5.581  -6.439  24.909  0.00  0.00    -0.274 OA
ENDROOT
BRANCH   1  28
ATOM     27  C   UNL     1       5.701  -4.518  27.865  0.00  0.00    +0.025 C 
ATOM     28  C   UNL     1       6.904  -5.085  27.109  0.00  0.00    +0.110 C 
ENDBRANCH   1  28
TORSDOF 1
ENDMDL
MODEL 2
REMARK VINA RESULT:      -7.6      1.734      2.972
REMARK  Name = 
REMARK  5 active torsions:
REMARK  status: ('A' for Active; 'I' for Inactive)
REMARK    1  A    between atoms: C_1  and  C_2
REMARK    2  A    between atoms: C_2  and  N_3
REMARK    3  A    between atoms: C_6  and  C_7
REMARK    4  A    between atoms: C_6  and  C_8
REMARK    5  A    between atoms: C_23  and  C_24
REMARK                            x       y       z     vdW  Elec       q    Type
REMARK                         _______ _______ _______ _____ _____    ______ ____
ROOT
ATOM      1  N   UNL     1       6.666  -4.287  23.188  0.00  0.00    -0.271 N 
ATOM      2  C   UNL     1       6.938  -2.923  23.418  0.00  0.00    +0.041 A 
ATOM      3  C   UNL     1       6.475  -2.587  24.692  0.00  0.00    -0.010 A 
ATOM      4  C   UNL     1       6.918  -1.452  25.357  0.00  0.00    +0.032 A 
ATOM      5  C   UNL     1       7.813  -0.665  24.634  0.00  0.00    +0.048 A 
ATOM      6  N   UNL     1       8.660   0.342  25.044  0.00  0.00    -0.353 N 
ATOM      7  H   UNL     1       8.762   0.665  25.997  0.00  0.00    +0.166 HD
ATOM      8  C   UNL     1       9.173   0.977  23.941  0.00  0.00    +0.069 A 
ATOM      9  C   UNL     1       9.783   2.257  23.970  0.00  0.00    +0.086 A 
ATOM     10  N   UNL     1      11.047   2.605  23.603  0.00  0.00    -0.275 N 
ATOM     11  H   UNL     1      11.797   2.000  23.282  0.00  0.00    +0.189 HD
ATOM     12  N   UNL     1      11.227   3.943  23.543  0.00  0.00    -0.178 NA
ATOM     13  C   UNL     1       9.985   4.443  23.708  0.00  0.00    +0.064 A 
ATOM     14  C   UNL     1       9.718   5.892  23.579  0.00  0.00    +0.068 C 
ATOM     15  C   UNL     1       9.044   3.412  23.892  0.00  0.00    +0.002 A 
ATOM     16  C   UNL     1       7.563   3.375  23.800  0.00  0.00    +0.039 C 
ATOM     17  C   UNL     1       7.112   2.753  22.442  0.00  0.00    +0.009 C 
ATOM     18  C   UNL     1       7.882   1.499  21.843  0.00  0.00    +0.038 C 
ATOM     19  C   UNL     1       8.374   0.539  22.894  0.00  0.00    -0.013 A 
ATOM     20  C   UNL     1       7.978  -0.783  23.249  0.00  0.00    +0.005 A 
ATOM     21  C   UNL     1       5.604  -3.699  25.223  0.00  0.00    +0.068 C 
ATOM     22  C   UNL     1       5.903  -4.033  26.678  0.00  0.00    +0.025 C 
ATOM     23  C   UNL     1       4.119  -3.377  25.015  0.00  0.00    +0.025 C 
ATOM     24  C   UNL     1       7.584  -1.985  22.614  0.00  0.00    +0.034 A 
ATOM     25  C   UNL     1       5.978  -4.851  24.279  0.00  0.00    +0.230 C 
ATOM     26  O   UNL     1       5.697  -6.031  24.442  0.00  0.00    -0.274 OA
ENDROOT
BRANCH   1  28
ATOM     27  C   UNL     1       6.445  -5.642  21.118  0.00  0.00    +0.025 C 
ATOM     28  C   UNL     1       7.356  -5.133  22.236  0.00  0.00    +0.110 C 
ENDBRANCH   1  28
TORSDOF 1
ENDMDL
MODEL 3
REMARK VINA RESULT:      -7.1      3.129      7.982
REMARK  Name = 
REMARK  5 active torsions:
REMARK  status: ('A' for Active; 'I' for Inactive)
REMARK    1  A    between atoms: C_1  and  C_2
REMARK    2  A    between atoms: C_2  and  N_3
REMARK    3  A    between atoms: C_6  and  C_7
REMARK    4  A    between atoms: C_6  and  C_8
REMARK    5  A    between atoms: C_23  and  C_24
REMARK                            x       y       z     vdW  Elec       q    Type
REMARK                         _______ _______ _______ _____ _____    ______ ____
ROOT
ATOM      1  N   UNL     1      10.294   4.061  23.724  0.00  0.00    -0.271 N 
ATOM      2  C   UNL     1       9.524   2.894  23.893  0.00  0.00    +0.041 A 
ATOM      3  C   UNL     1       8.177   3.256  23.964  0.00  0.00    -0.010 A 
ATOM      4  C   UNL     1       7.158   2.339  23.749  0.00  0.00    +0.032 A 
ATOM      5  C   UNL     1       7.589   1.034  23.510  0.00  0.00    +0.048 A 
ATOM      6  N   UNL     1       6.920  -0.053  22.989  0.00  0.00    -0.353 N 
ATOM      7  H   UNL     1       5.958  -0.050  22.680  0.00  0.00    +0.166 HD
ATOM      8  C   UNL     1       7.687  -1.177  23.159  0.00  0.00    +0.069 A 
ATOM      9  C   UNL     1       7.188  -2.502  23.076  0.00  0.00    +0.086 A 
ATOM     10  N   UNL     1       7.569  -3.503  22.235  0.00  0.00    -0.275 N 
ATOM     11  H   UNL     1       8.251  -3.467  21.484  0.00  0.00    +0.189 HD
ATOM     12  N   UNL     1       7.048  -4.702  22.577  0.00  0.00    -0.178 NA
ATOM     13  C   UNL     1       6.465  -4.473  23.772  0.00  0.00    +0.064 A 
ATOM     14  C   UNL     1       5.878  -5.576  24.563  0.00  0.00    +0.068 C 
ATOM     15  C   UNL     1       6.609  -3.126  24.155  0.00  0.00    +0.002 A 
ATOM     16  C   UNL     1       6.453  -2.429  25.456  0.00  0.00    +0.039 C 
ATOM     17  C   UNL     1       7.845  -2.156  26.103  0.00  0.00    +0.009 C 
ATOM     18  C   UNL     1       9.067  -1.690  25.202  0.00  0.00    +0.038 C 
ATOM     19  C   UNL     1       8.665  -0.789  24.065  0.00  0.00    -0.013 A 
ATOM     20  C   UNL     1       8.883   0.597  23.813  0.00  0.00    +0.005 A 
ATOM     21  C   UNL     1       8.065   4.751  24.135  0.00  0.00    +0.068 C 
ATOM     22  C   UNL     1       6.992   5.364  23.245  0.00  0.00    +0.025 C 
ATOM     23  C   UNL     1       7.848   5.117  25.609  0.00  0.00    +0.025 C 
ATOM     24  C   UNL     1       9.915   1.556  23.951  0.00  0.00    +0.034 A 
ATOM     25  C   UNL     1       9.476   5.207  23.735  0.00  0.00    +0.230 C 
ATOM     26  O   UNL     1       9.818   6.358  23.501  0.00  0.00    -0.274 OA
ENDROOT
BRANCH   1  28
ATOM     27  C   UNL     1      12.473   5.254  23.735  0.00  0.00    +0.025 C 
ATOM     28  C   UNL     1      11.628   4.115  23.161  0.00  0.00    +0.110 C 
ENDBRANCH   1  28
TORSDOF 1
ENDMDL
MODEL 4
REMARK VINA RESULT:      -7.1      1.515      1.790
REMARK  Name = 
REMARK  5 active torsions:
REMARK  status: ('A' for Active; 'I' for Inactive)
REMARK    1  A    between atoms: C_1  and  C_2
REMARK    2  A    between atoms: C_2  and  N_3
REMARK    3  A    between atoms: C_6  and  C_7
REMARK    4  A    between atoms: C_6  and  C_8
REMARK    5  A    between atoms: C_23  and  C_24
REMARK                            x       y       z     vdW  Elec       q    Type
REMARK                         _______ _______ _______ _____ _____    ______ ____
ROOT
ATOM      1  N   UNL     1       5.271  -4.460  24.546  0.00  0.00    -0.271 N 
ATOM      2  C   UNL     1       6.154  -3.399  24.261  0.00  0.00    +0.041 A 
ATOM      3  C   UNL     1       6.732  -3.626  23.010  0.00  0.00    -0.010 A 
ATOM      4  C   UNL     1       7.337  -2.609  22.286  0.00  0.00    +0.032 A 
ATOM      5  C   UNL     1       7.362  -1.372  22.928  0.00  0.00    +0.048 A 
ATOM      6  N   UNL     1       7.607  -0.108  22.436  0.00  0.00    -0.353 N 
ATOM      7  H   UNL     1       7.809   0.112  21.470  0.00  0.00    +0.166 HD
ATOM      8  C   UNL     1       7.749   0.765  23.485  0.00  0.00    +0.069 A 
ATOM      9  C   UNL     1       8.349   2.046  23.381  0.00  0.00    +0.086 A 
ATOM     10  N   UNL     1       7.807   3.264  23.656  0.00  0.00    -0.275 N 
ATOM     11  H   UNL     1       6.857   3.477  23.946  0.00  0.00    +0.189 HD
ATOM     12  N   UNL     1       8.723   4.256  23.667  0.00  0.00    -0.178 NA
ATOM     13  C   UNL     1       9.902   3.609  23.568  0.00  0.00    +0.064 A 
ATOM     14  C   UNL     1      11.187   4.333  23.672  0.00  0.00    +0.068 C 
ATOM     15  C   UNL     1       9.709   2.217  23.474  0.00  0.00    +0.002 A 
ATOM     16  C   UNL     1      10.621   1.061  23.661  0.00  0.00    +0.039 C 
ATOM     17  C   UNL     1      10.402   0.410  25.061  0.00  0.00    +0.009 C 
ATOM     18  C   UNL     1       8.935   0.246  25.646  0.00  0.00    +0.038 C 
ATOM     19  C   UNL     1       7.901  -0.058  24.593  0.00  0.00    -0.013 A 
ATOM     20  C   UNL     1       7.140  -1.227  24.302  0.00  0.00    +0.005 A 
ATOM     21  C   UNL     1       6.438  -5.039  22.567  0.00  0.00    +0.068 C 
ATOM     22  C   UNL     1       6.018  -5.119  21.106  0.00  0.00    +0.025 C 
ATOM     23  C   UNL     1       7.627  -5.962  22.861  0.00  0.00    +0.025 C 
ATOM     24  C   UNL     1       6.452  -2.252  24.995  0.00  0.00    +0.034 A 
ATOM     25  C   UNL     1       5.294  -5.421  23.518  0.00  0.00    +0.230 C 
ATOM     26  O   UNL     1       4.566  -6.398  23.407  0.00  0.00    -0.274 OA
ENDROOT
BRANCH   1  28
ATOM     27  C   UNL     1       2.823  -4.122  24.791  0.00  0.00    +0.025 C 
ATOM     28  C   UNL     1       4.161  -4.403  25.476  0.00  0.00    +0.110 C 
ENDBRANCH   1  28
TORSDOF 1
ENDMDL
MODEL 5
REMARK VINA RESULT:      -7.1      1.968      2.364
REMARK  Name = 
REMARK  5 active torsions:
REMARK  status: ('A' for Active; 'I' for Inactive)
REMARK    1  A    between atoms: C_1  and  C_2
REMARK    2  A    between atoms: C_2  and  N_3
REMARK    3  A    between atoms: C_6  and  C_7
REMARK    4  A    between atoms: C_6  and  C_8
REMARK    5  A    between atoms: C_23  and  C_24
REMARK                            x       y       z     vdW  Elec       q    Type
REMARK                         _______ _______ _______ _____ _____    ______ ____
ROOT
ATOM      1  N   UNL     1       6.707  -3.715  26.483  0.00  0.00    -0.271 N 
ATOM      2  C   UNL     1       6.953  -2.533  25.755  0.00  0.00    +0.041 A 
ATOM      3  C   UNL     1       7.527  -2.876  24.530  0.00  0.00    -0.010 A 
ATOM      4  C   UNL     1       7.538  -2.000  23.454  0.00  0.00    +0.032 A 
ATOM      5  C   UNL     1       6.979  -0.750  23.714  0.00  0.00    +0.048 A 
ATOM      6  N   UNL     1       6.561   0.246  22.858  0.00  0.00    -0.353 N 
ATOM      7  H   UNL     1       6.600   0.198  21.848  0.00  0.00    +0.166 HD
ATOM      8  C   UNL     1       6.296   1.381  23.580  0.00  0.00    +0.069 A 
ATOM      9  C   UNL     1       6.193   2.679  23.017  0.00  0.00    +0.086 A 
ATOM     10  N   UNL     1       5.136   3.537  23.045  0.00  0.00    -0.275 N 
ATOM     11  H   UNL     1       4.212   3.382  23.438  0.00  0.00    +0.189 HD
ATOM     12  N   UNL     1       5.454   4.776  22.610  0.00  0.00    -0.178 NA
ATOM     13  C   UNL     1       6.795   4.736  22.472  0.00  0.00    +0.064 A 
ATOM     14  C   UNL     1       7.568   5.949  22.129  0.00  0.00    +0.068 C 
ATOM     15  C   UNL     1       7.300   3.463  22.802  0.00  0.00    +0.002 A 
ATOM     16  C   UNL     1       8.665   2.977  23.125  0.00  0.00    +0.039 C 
ATOM     17  C   UNL     1       8.836   2.803  24.665  0.00  0.00    +0.009 C 
ATOM     18  C   UNL     1       7.654   2.199  25.537  0.00  0.00    +0.038 C 
ATOM     19  C   UNL     1       6.864   1.135  24.823  0.00  0.00    -0.013 A 
ATOM     20  C   UNL     1       6.759  -0.274  25.013  0.00  0.00    +0.005 A 
ATOM     21  C   UNL     1       7.944  -4.326  24.555  0.00  0.00    +0.068 C 
ATOM     22  C   UNL     1       7.568  -5.066  23.279  0.00  0.00    +0.025 C 
ATOM     23  C   UNL     1       9.440  -4.460  24.862  0.00  0.00    +0.025 C 
ATOM     24  C   UNL     1       6.679  -1.204  26.077  0.00  0.00    +0.034 A 
ATOM     25  C   UNL     1       7.161  -4.842  25.773  0.00  0.00    +0.230 C 
ATOM     26  O   UNL     1       6.997  -6.017  26.073  0.00  0.00    -0.274 OA
ENDROOT
BRANCH   1  28
ATOM     27  C   UNL     1       4.299  -3.940  27.047  0.00  0.00    +0.025 C 
ATOM     28  C   UNL     1       5.741  -3.859  27.552  0.00  0.00    +0.110 C 
ENDBRANCH   1  28
TORSDOF 1
ENDMDL
MODEL 6
REMARK VINA RESULT:      -7.0      1.806      3.212
REMARK  Name = 
REMARK  5 active torsions:
REMARK  status: ('A' for Active; 'I' for Inactive)
REMARK    1  A    between atoms: C_1  and  C_2
REMARK    2  A    between atoms: C_2  and  N_3
REMARK    3  A    between atoms: C_6  and  C_7
REMARK    4  A    between atoms: C_6  and  C_8
REMARK    5  A    between atoms: C_23  and  C_24
REMARK                            x       y       z     vdW  Elec       q    Type
REMARK                         _______ _______ _______ _____ _____    ______ ____
ROOT
ATOM      1  N   UNL     1       5.093  -4.927  24.707  0.00  0.00    -0.271 N 
ATOM      2  C   UNL     1       5.826  -3.725  24.790  0.00  0.00    +0.041 A 
ATOM      3  C   UNL     1       6.566  -3.737  25.973  0.00  0.00    -0.010 A 
ATOM      4  C   UNL     1       7.656  -2.898  26.165  0.00  0.00    +0.032 A 
ATOM      5  C   UNL     1       7.911  -2.023  25.110  0.00  0.00    +0.048 A 
ATOM      6  N   UNL     1       9.027  -1.271  24.815  0.00  0.00    -0.353 N 
ATOM      7  H   UNL     1       9.879  -1.256  25.359  0.00  0.00    +0.166 HD
ATOM      8  C   UNL     1       8.725  -0.392  23.806  0.00  0.00    +0.069 A 
ATOM      9  C   UNL     1       9.495   0.756  23.491  0.00  0.00    +0.086 A 
ATOM     10  N   UNL     1      10.111   1.073  22.319  0.00  0.00    -0.275 N 
ATOM     11  H   UNL     1      10.165   0.519  21.469  0.00  0.00    +0.189 HD
ATOM     12  N   UNL     1      10.567   2.344  22.292  0.00  0.00    -0.178 NA
ATOM     13  C   UNL     1      10.064   2.893  23.417  0.00  0.00    +0.064 A 
ATOM     14  C   UNL     1      10.226   4.333  23.708  0.00  0.00    +0.068 C 
ATOM     15  C   UNL     1       9.315   1.949  24.148  0.00  0.00    +0.002 A 
ATOM     16  C   UNL     1       8.321   2.087  25.241  0.00  0.00    +0.039 C 
ATOM     17  C   UNL     1       6.871   1.940  24.686  0.00  0.00    +0.009 C 
ATOM     18  C   UNL     1       6.546   0.851  23.577  0.00  0.00    +0.038 C 
ATOM     19  C   UNL     1       7.339  -0.420  23.734  0.00  0.00    -0.013 A 
ATOM     20  C   UNL     1       6.968  -1.743  24.114  0.00  0.00    +0.005 A 
ATOM     21  C   UNL     1       6.092  -4.865  26.855  0.00  0.00    +0.068 C 
ATOM     22  C   UNL     1       7.242  -5.642  27.483  0.00  0.00    +0.025 C 
ATOM     23  C   UNL     1       5.114  -4.353  27.920  0.00  0.00    +0.025 C 
ATOM     24  C   UNL     1       5.912  -2.659  23.895  0.00  0.00    +0.034 A 
ATOM     25  C   UNL     1       5.300  -5.718  25.853  0.00  0.00    +0.230 C 
ATOM     26  O   UNL     1       4.902  -6.860  26.041  0.00  0.00    -0.274 OA
ENDROOT
BRANCH   1  28
ATOM     27  C   UNL     1       3.061  -5.395  23.359  0.00  0.00    +0.025 C 
ATOM     28  C   UNL     1       4.581  -5.517  23.488  0.00  0.00    +0.110 C 
ENDBRANCH   1  28
TORSDOF 1
ENDMDL
MODEL 7
REMARK VINA RESULT:      -7.0      1.519      1.913
REMARK  Name = 
REMARK  5 active torsions:
REMARK  status: ('A' for Active; 'I' for Inactive)
REMARK    1  A    between atoms: C_1  and  C_2
REMARK    2  A    between atoms: C_2  and  N_3
REMARK    3  A    between atoms: C_6  and  C_7
REMARK    4  A    between atoms: C_6  and  C_8
REMARK    5  A    between atoms: C_23  and  C_24
REMARK                            x       y       z     vdW  Elec       q    Type
REMARK                         _______ _______ _______ _____ _____    ______ ____
ROOT
ATOM      1  N   UNL     1       5.687  -5.850  25.657  0.00  0.00    -0.271 N 
ATOM      2  C   UNL     1       6.229  -4.698  25.052  0.00  0.00    +0.041 A 
ATOM      3  C   UNL     1       5.434  -4.355  23.957  0.00  0.00    -0.010 A 
ATOM      4  C   UNL     1       5.470  -3.088  23.393  0.00  0.00    +0.032 A 
ATOM      5  C   UNL     1       6.390  -2.216  23.974  0.00  0.00    +0.048 A 
ATOM      6  N   UNL     1       6.512  -0.846  23.887  0.00  0.00    -0.353 N 
ATOM      7  H   UNL     1       5.900  -0.241  23.357  0.00  0.00    +0.166 HD
ATOM      8  C   UNL     1       7.705  -0.463  24.445  0.00  0.00    +0.069 A 
ATOM      9  C   UNL     1       8.322   0.794  24.222  0.00  0.00    +0.086 A 
ATOM     10  N   UNL     1       8.657   1.751  25.132  0.00  0.00    -0.275 N 
ATOM     11  H   UNL     1       8.486   1.753  26.132  0.00  0.00    +0.189 HD
ATOM     12  N   UNL     1       9.434   2.724  24.608  0.00  0.00    -0.178 NA
ATOM     13  C   UNL     1       9.737   2.268  23.375  0.00  0.00    +0.064 A 
ATOM     14  C   UNL     1      10.689   2.988  22.502  0.00  0.00    +0.068 C 
ATOM     15  C   UNL     1       9.127   1.021  23.133  0.00  0.00    +0.002 A 
ATOM     16  C   UNL     1       9.370  -0.036  22.119  0.00  0.00    +0.039 C 
ATOM     17  C   UNL     1      10.189  -1.211  22.736  0.00  0.00    +0.009 C 
ATOM     18  C   UNL     1       9.878  -1.713  24.210  0.00  0.00    +0.038 C 
ATOM     19  C   UNL     1       8.418  -1.647  24.571  0.00  0.00    -0.013 A 
ATOM     20  C   UNL     1       7.436  -2.657  24.794  0.00  0.00    +0.005 A 
ATOM     21  C   UNL     1       4.486  -5.487  23.646  0.00  0.00    +0.068 C 
ATOM     22  C   UNL     1       3.071  -5.005  23.361  0.00  0.00    +0.025 C 
ATOM     23  C   UNL     1       5.026  -6.353  22.500  0.00  0.00    +0.025 C 
ATOM     24  C   UNL     1       7.331  -3.924  25.414  0.00  0.00    +0.034 A 
ATOM     25  C   UNL     1       4.566  -6.310  24.941  0.00  0.00    +0.230 C 
ATOM     26  O   UNL     1       3.806  -7.213  25.263  0.00  0.00    -0.274 OA
ENDROOT
BRANCH   1  28
ATOM     27  C   UNL     1       5.120  -5.419  28.035  0.00  0.00    +0.025 C 
ATOM     28  C   UNL     1       5.904  -6.261  27.028  0.00  0.00    +0.110 C 
ENDBRANCH   1  28
TORSDOF 1
ENDMDL
MODEL 8
REMARK VINA RESULT:      -6.7      2.788      7.741
REMARK  Name = 
REMARK  5 active torsions:
REMARK  status: ('A' for Active; 'I' for Inactive)
REMARK    1  A    between atoms: C_1  and  C_2
REMARK    2  A    between atoms: C_2  and  N_3
REMARK    3  A    between atoms: C_6  and  C_7
REMARK    4  A    between atoms: C_6  and  C_8
REMARK    5  A    between atoms: C_23  and  C_24
REMARK                            x       y       z     vdW  Elec       q    Type
REMARK                         _______ _______ _______ _____ _____    ______ ____
ROOT
ATOM      1  N   UNL     1       9.378   2.321  24.454  0.00  0.00    -0.271 N 
ATOM      2  C   UNL     1       8.563   1.196  24.693  0.00  0.00    +0.041 A 
ATOM      3  C   UNL     1       7.279   1.638  25.015  0.00  0.00    -0.010 A 
ATOM      4  C   UNL     1       6.174   0.803  24.933  0.00  0.00    +0.032 A 
ATOM      5  C   UNL     1       6.460  -0.508  24.555  0.00  0.00    +0.048 A 
ATOM      6  N   UNL     1       5.635  -1.515  24.102  0.00  0.00    -0.353 N 
ATOM      7  H   UNL     1       4.637  -1.431  23.965  0.00  0.00    +0.166 HD
ATOM      8  C   UNL     1       6.334  -2.695  24.078  0.00  0.00    +0.069 A 
ATOM      9  C   UNL     1       5.733  -3.977  24.013  0.00  0.00    +0.086 A 
ATOM     10  N   UNL     1       5.890  -4.944  23.068  0.00  0.00    -0.275 N 
ATOM     11  H   UNL     1       6.437  -4.903  22.213  0.00  0.00    +0.189 HD
ATOM     12  N   UNL     1       5.349  -6.127  23.432  0.00  0.00    -0.178 NA
ATOM     13  C   UNL     1       4.995  -5.939  24.720  0.00  0.00    +0.064 A 
ATOM     14  C   UNL     1       4.471  -7.050  25.542  0.00  0.00    +0.068 C 
ATOM     15  C   UNL     1       5.300  -4.630  25.142  0.00  0.00    +0.002 A 
ATOM     16  C   UNL     1       5.419  -4.010  26.485  0.00  0.00    +0.039 C 
ATOM     17  C   UNL     1       6.917  -3.868  26.894  0.00  0.00    +0.009 C 
ATOM     18  C   UNL     1       8.000  -3.424  25.821  0.00  0.00    +0.038 C 
ATOM     19  C   UNL     1       7.477  -2.428  24.819  0.00  0.00    -0.013 A 
ATOM     20  C   UNL     1       7.752  -1.045  24.605  0.00  0.00    +0.005 A 
ATOM     21  C   UNL     1       7.307   3.123  25.281  0.00  0.00    +0.068 C 
ATOM     22  C   UNL     1       6.148   3.859  24.624  0.00  0.00    +0.025 C 
ATOM     23  C   UNL     1       7.371   3.407  26.787  0.00  0.00    +0.025 C 
ATOM     24  C   UNL     1       8.859  -0.164  24.612  0.00  0.00    +0.034 A 
ATOM     25  C   UNL     1       8.660   3.513  24.666  0.00  0.00    +0.230 C 
ATOM     26  O   UNL     1       9.041   4.653  24.438  0.00  0.00    -0.274 OA
ENDROOT
BRANCH   1  28
ATOM     27  C   UNL     1      10.353   2.064  22.185  0.00  0.00    +0.025 C 
ATOM     28  C   UNL     1      10.597   2.325  23.672  0.00  0.00    +0.110 C 
ENDBRANCH   1  28
TORSDOF 1
ENDMDL
MODEL 9
REMARK VINA RESULT:      -6.6      3.157      8.130
REMARK  Name = 
REMARK  5 active torsions:
REMARK  status: ('A' for Active; 'I' for Inactive)
REMARK    1  A    between atoms: C_1  and  C_2
REMARK    2  A    between atoms: C_2  and  N_3
REMARK    3  A    between atoms: C_6  and  C_7
REMARK    4  A    between atoms: C_6  and  C_8
REMARK    5  A    between atoms: C_23  and  C_24
REMARK                            x       y       z     vdW  Elec       q    Type
REMARK                         _______ _______ _______ _____ _____    ______ ____
ROOT
ATOM      1  N   UNL     1       8.355  -0.897  25.747  0.00  0.00    -0.271 N 
ATOM      2  C   UNL     1       7.465  -1.867  25.243  0.00  0.00    +0.041 A 
ATOM      3  C   UNL     1       7.868  -2.214  23.952  0.00  0.00    -0.010 A 
ATOM      4  C   UNL     1       7.446  -3.386  23.341  0.00  0.00    +0.032 A 
ATOM      5  C   UNL     1       6.558  -4.150  24.097  0.00  0.00    +0.048 A 
ATOM      6  N   UNL     1       6.157  -5.462  23.961  0.00  0.00    -0.353 N 
ATOM      7  H   UNL     1       6.483  -6.098  23.246  0.00  0.00    +0.166 HD
ATOM      8  C   UNL     1       5.098  -5.700  24.799  0.00  0.00    +0.069 A 
ATOM      9  C   UNL     1       4.216  -6.803  24.676  0.00  0.00    +0.086 A 
ATOM     10  N   UNL     1       3.949  -7.785  25.580  0.00  0.00    -0.275 N 
ATOM     11  H   UNL     1       4.370  -7.928  26.493  0.00  0.00    +0.189 HD
ATOM     12  N   UNL     1       2.892  -8.549  25.230  0.00  0.00    -0.178 NA
ATOM     13  C   UNL     1       2.374  -7.913  24.158  0.00  0.00    +0.064 A 
ATOM     14  C   UNL     1       1.110  -8.361  23.536  0.00  0.00    +0.068 C 
ATOM     15  C   UNL     1       3.128  -6.767  23.837  0.00  0.00    +0.002 A 
ATOM     16  C   UNL     1       2.839  -5.578  22.998  0.00  0.00    +0.039 C 
ATOM     17  C   UNL     1       2.449  -4.359  23.888  0.00  0.00    +0.009 C 
ATOM     18  C   UNL     1       3.220  -4.084  25.249  0.00  0.00    +0.038 C 
ATOM     19  C   UNL     1       4.683  -4.434  25.191  0.00  0.00    -0.013 A 
ATOM     20  C   UNL     1       5.864  -3.635  25.198  0.00  0.00    +0.005 A 
ATOM     21  C   UNL     1       8.903  -1.229  23.465  0.00  0.00    +0.068 C 
ATOM     22  C   UNL     1      10.077  -1.907  22.773  0.00  0.00    +0.025 C 
ATOM     23  C   UNL     1       8.262  -0.162  22.568  0.00  0.00    +0.025 C 
ATOM     24  C   UNL     1       6.366  -2.481  25.844  0.00  0.00    +0.034 A 
ATOM     25  C   UNL     1       9.320  -0.555  24.781  0.00  0.00    +0.230 C 
ATOM     26  O   UNL     1      10.295   0.166  24.939  0.00  0.00    -0.274 OA
ENDROOT
BRANCH   1  28
ATOM     27  C   UNL     1       7.543   0.342  27.740  0.00  0.00    +0.025 C 
ATOM     28  C   UNL     1       8.582  -0.612  27.149  0.00  0.00    +0.110 C 
ENDBRANCH   1  28
TORSDOF 1
ENDMDL
