MODEL 1
REMARK VINA RESULT:      -7.0      0.000      0.000
REMARK  Name = 
REMARK  11 active torsions:
REMARK  status: ('A' for Active; 'I' for Inactive)
REMARK    1  A    between atoms: N_10  and  C_11
REMARK    2  A    between atoms: C_14  and  C_16
REMARK    3  A    between atoms: C_16  and  O_17
REMARK    4  A    between atoms: O_17  and  P_18
REMARK    5  A    between atoms: P_18  and  O_19
REMARK    6  A    between atoms: P_18  and  C_21
REMARK    7  A    between atoms: C_21  and  P_22
REMARK    8  A    between atoms: P_22  and  O_23
REMARK    9  A    between atoms: P_22  and  O_24
REMARK   10  A    between atoms: C_26  and  O_28
REMARK   11  A    between atoms: C_29  and  O_31
REMARK                            x       y       z     vdW  Elec       q    Type
REMARK                         _______ _______ _______ _____ _____    ______ ____
ROOT
ATOM      1  C   UNL     1       7.503  -2.970  24.293  0.00  0.00    +0.253 C 
ATOM      2  C   UNL     1       8.113  -4.216  23.634  0.00  0.00    +0.195 C 
ATOM      3  C   UNL     1       8.585  -5.079  24.807  0.00  0.00    +0.178 C 
ATOM      4  C   UNL     1       8.071  -4.365  26.069  0.00  0.00    +0.178 C 
ATOM      5  O   UNL     1       7.058  -3.441  25.607  0.00  0.00    -0.346 OA
ENDROOT
BRANCH   1  13
ATOM      6  N   UNL     1      10.881   2.060  23.836  0.00  0.00    -0.341 N 
ATOM      7  H   UNL     1      10.637   2.275  24.797  0.00  0.00    +0.144 HD
ATOM      8  H   UNL     1      10.950   2.831  23.183  0.00  0.00    +0.144 HD
ATOM      9  C   UNL     1      10.159   0.994  23.308  0.00  0.00    +0.147 A 
ATOM     10  C   UNL     1       9.532   0.018  24.101  0.00  0.00    +0.147 A 
ATOM     11  N   UNL     1       9.430  -0.129  25.471  0.00  0.00    -0.231 NA
ATOM     12  C   UNL     1       8.698  -1.214  25.631  0.00  0.00    +0.203 A 
ATOM     13  N   UNL     1       8.363  -1.805  24.439  0.00  0.00    -0.286 N 
ATOM     14  C   UNL     1       8.842  -0.990  23.443  0.00  0.00    +0.167 A 
ATOM     15  N   UNL     1       8.689  -1.109  22.112  0.00  0.00    -0.216 NA
ATOM     16  C   UNL     1       9.335  -0.124  21.461  0.00  0.00    +0.225 A 
ATOM     17  N   UNL     1      10.046   0.906  21.967  0.00  0.00    -0.219 NA
ENDBRANCH   1  13
BRANCH   2  18
ATOM     18  O   UNL     1       7.104  -4.941  22.892  0.00  0.00    -0.385 OA
ATOM     19  H   UNL     1       7.529  -5.669  22.407  0.00  0.00    +0.210 HD
ENDBRANCH   2  18
BRANCH   3  20
ATOM     20  O   UNL     1      10.009  -5.144  24.816  0.00  0.00    -0.386 OA
ATOM     21  H   UNL     1      10.338  -4.641  25.581  0.00  0.00    +0.210 HD
ENDBRANCH   3  20
BRANCH   4  22
ATOM     22  C   UNL     1       7.517  -5.360  27.130  0.00  0.00    +0.204 C 
BRANCH  22  23
ATOM     23  O   UNL     1       6.575  -6.315  26.604  0.00  0.00    -0.305 OA
BRANCH  23  24
ATOM     24  P   UNL     1       5.042  -6.361  27.147  0.00  0.00    +0.342 P 
ATOM     25  O   UNL     1       4.587  -5.104  27.811  0.00  0.00    -0.258 OA
BRANCH  24  26
ATOM     26  O   UNL     1       5.073  -7.576  28.209  0.00  0.00    -0.324 OA
ATOM     27  H   UNL     1       4.973  -7.267  29.130  0.00  0.00    +0.220 HD
ENDBRANCH  24  26
BRANCH  24  28
ATOM     28  C   UNL     1       3.958  -6.978  25.865  0.00  0.00    +0.253 C 
BRANCH  28  29
ATOM     29  P   UNL     1       3.782  -6.256  24.193  0.00  0.00    +0.339 P 
ATOM     30  O   UNL     1       3.634  -5.645  22.778  0.00  0.00    -0.258 OA
BRANCH  29  31
ATOM     31  O   UNL     1       5.064  -7.226  23.824  0.00  0.00    -0.324 OA
ATOM     32  H   UNL     1       5.408  -7.125  22.917  0.00  0.00    +0.220 HD
ENDBRANCH  29  31
BRANCH  29  33
ATOM     33  O   UNL     1       4.693  -5.008  24.782  0.00  0.00    -0.324 OA
ATOM     34  H   UNL     1       5.476  -5.252  25.304  0.00  0.00    +0.220 HD
ENDBRANCH  29  33
ENDBRANCH  28  29
ENDBRANCH  24  28
ENDBRANCH  23  24
ENDBRANCH  22  23
ENDBRANCH   4  22
TORSDOF 11
ENDMDL
MODEL 2
REMARK VINA RESULT:      -6.8      1.018      1.474
REMARK  Name = 
REMARK  11 active torsions:
REMARK  status: ('A' for Active; 'I' for Inactive)
REMARK    1  A    between atoms: N_10  and  C_11
REMARK    2  A    between atoms: C_14  and  C_16
REMARK    3  A    between atoms: C_16  and  O_17
REMARK    4  A    between atoms: O_17  and  P_18
REMARK    5  A    between atoms: P_18  and  O_19
REMARK    6  A    between atoms: P_18  and  C_21
REMARK    7  A    between atoms: C_21  and  P_22
REMARK    8  A    between atoms: P_22  and  O_23
REMARK    9  A    between atoms: P_22  and  O_24
REMARK   10  A    between atoms: C_26  and  O_28
REMARK   11  A    between atoms: C_29  and  O_31
REMARK                            x       y       z     vdW  Elec       q    Type
REMARK                         _______ _______ _______ _____ _____    ______ ____
ROOT
ATOM      1  C   UNL     1       7.495  -3.182  23.785  0.00  0.00    +0.253 C 
ATOM      2  C   UNL     1       8.028  -4.568  23.390  0.00  0.00    +0.195 C 
ATOM      3  C   UNL     1       8.453  -5.207  24.714  0.00  0.00    +0.178 C 
ATOM      4  C   UNL     1       7.988  -4.229  25.806  0.00  0.00    +0.178 C 
ATOM      5  O   UNL     1       7.029  -3.357  25.163  0.00  0.00    -0.346 OA
ENDROOT
BRANCH   1  13
ATOM      6  N   UNL     1      10.660   1.994  24.116  0.00  0.00    -0.341 N 
ATOM      7  H   UNL     1      11.508   1.446  24.029  0.00  0.00    +0.144 HD
ATOM      8  H   UNL     1      10.678   2.795  24.735  0.00  0.00    +0.144 HD
ATOM      9  C   UNL     1       9.518   1.220  24.301  0.00  0.00    +0.147 A 
ATOM     10  C   UNL     1       9.436  -0.133  23.933  0.00  0.00    +0.147 A 
ATOM     11  N   UNL     1      10.365  -0.997  23.384  0.00  0.00    -0.231 NA
ATOM     12  C   UNL     1       9.728  -2.148  23.290  0.00  0.00    +0.203 A 
ATOM     13  N   UNL     1       8.422  -2.063  23.704  0.00  0.00    -0.286 N 
ATOM     14  C   UNL     1       8.237  -0.787  24.177  0.00  0.00    +0.167 A 
ATOM     15  N   UNL     1       7.147  -0.257  24.759  0.00  0.00    -0.216 NA
ATOM     16  C   UNL     1       7.344   1.040  25.060  0.00  0.00    +0.225 A 
ATOM     17  N   UNL     1       8.444   1.800  24.874  0.00  0.00    -0.219 NA
ENDBRANCH   1  13
BRANCH   2  18
ATOM     18  O   UNL     1       6.974  -5.364  22.798  0.00  0.00    -0.385 OA
ATOM     19  H   UNL     1       7.283  -6.282  22.709  0.00  0.00    +0.210 HD
ENDBRANCH   2  18
BRANCH   3  20
ATOM     20  O   UNL     1       9.871  -5.353  24.746  0.00  0.00    -0.386 OA
ATOM     21  H   UNL     1      10.100  -6.002  25.432  0.00  0.00    +0.210 HD
ENDBRANCH   3  20
BRANCH   4  22
ATOM     22  C   UNL     1       7.380  -4.960  27.038  0.00  0.00    +0.204 C 
BRANCH  22  23
ATOM     23  O   UNL     1       6.661  -6.165  26.711  0.00  0.00    -0.305 OA
BRANCH  23  24
ATOM     24  P   UNL     1       5.096  -6.340  27.123  0.00  0.00    +0.342 P 
ATOM     25  O   UNL     1       4.462  -5.104  27.671  0.00  0.00    -0.258 OA
BRANCH  24  26
ATOM     26  O   UNL     1       5.149  -7.491  28.254  0.00  0.00    -0.324 OA
ATOM     27  H   UNL     1       6.064  -7.742  28.485  0.00  0.00    +0.220 HD
ENDBRANCH  24  26
BRANCH  24  28
ATOM     28  C   UNL     1       4.198  -7.128  25.793  0.00  0.00    +0.253 C 
BRANCH  28  29
ATOM     29  P   UNL     1       3.673  -6.309  24.243  0.00  0.00    +0.339 P 
ATOM     30  O   UNL     1       3.230  -5.616  22.931  0.00  0.00    -0.258 OA
BRANCH  29  31
ATOM     31  O   UNL     1       4.817  -7.271  23.545  0.00  0.00    -0.324 OA
ATOM     32  H   UNL     1       5.714  -7.179  23.917  0.00  0.00    +0.220 HD
ENDBRANCH  29  31
BRANCH  29  33
ATOM     33  O   UNL     1       4.723  -5.109  24.680  0.00  0.00    -0.324 OA
ATOM     34  H   UNL     1       4.339  -4.227  24.825  0.00  0.00    +0.220 HD
ENDBRANCH  29  33
ENDBRANCH  28  29
ENDBRANCH  24  28
ENDBRANCH  23  24
ENDBRANCH  22  23
ENDBRANCH   4  22
TORSDOF 11
ENDMDL
MODEL 3
REMARK VINA RESULT:      -6.8      2.116      3.029
REMARK  Name = 
REMARK  11 active torsions:
REMARK  status: ('A' for Active; 'I' for Inactive)
REMARK    1  A    between atoms: N_10  and  C_11
REMARK    2  A    between atoms: C_14  and  C_16
REMARK    3  A    between atoms: C_16  and  O_17
REMARK    4  A    between atoms: O_17  and  P_18
REMARK    5  A    between atoms: P_18  and  O_19
REMARK    6  A    between atoms: P_18  and  C_21
REMARK    7  A    between atoms: C_21  and  P_22
REMARK    8  A    between atoms: P_22  and  O_23
REMARK    9  A    between atoms: P_22  and  O_24
REMARK   10  A    between atoms: C_26  and  O_28
REMARK   11  A    between atoms: C_29  and  O_31
REMARK                            x       y       z     vdW  Elec       q    Type
REMARK                         _______ _______ _______ _____ _____    ______ ____
ROOT
ATOM      1  C   UNL     1       7.818  -0.717  23.071  0.00  0.00    +0.253 C 
ATOM      2  C   UNL     1       8.376  -1.980  22.399  0.00  0.00    +0.195 C 
ATOM      3  C   UNL     1       9.179  -2.678  23.500  0.00  0.00    +0.178 C 
ATOM      4  C   UNL     1       8.899  -1.872  24.780  0.00  0.00    +0.178 C 
ATOM      5  O   UNL     1       7.727  -1.076  24.489  0.00  0.00    -0.346 OA
ENDROOT
BRANCH   1  13
ATOM      6  N   UNL     1      10.540   4.708  23.360  0.00  0.00    -0.341 N 
ATOM      7  H   UNL     1      11.332   4.303  22.873  0.00  0.00    +0.144 HD
ATOM      8  H   UNL     1      10.730   5.386  24.088  0.00  0.00    +0.144 HD
ATOM      9  C   UNL     1       9.598   3.765  23.762  0.00  0.00    +0.147 A 
ATOM     10  C   UNL     1       9.475   2.496  23.172  0.00  0.00    +0.147 A 
ATOM     11  N   UNL     1      10.193   1.874  22.168  0.00  0.00    -0.231 NA
ATOM     12  C   UNL     1       9.643   0.681  22.062  0.00  0.00    +0.203 A 
ATOM     13  N   UNL     1       8.576   0.515  22.910  0.00  0.00    -0.286 N 
ATOM     14  C   UNL     1       8.494   1.654  23.673  0.00  0.00    +0.167 A 
ATOM     15  N   UNL     1       7.660   1.923  24.693  0.00  0.00    -0.216 NA
ATOM     16  C   UNL     1       7.868   3.164  25.171  0.00  0.00    +0.225 A 
ATOM     17  N   UNL     1       8.773   4.087  24.779  0.00  0.00    -0.219 NA
ENDBRANCH   1  13
BRANCH   2  18
ATOM     18  O   UNL     1       7.297  -2.848  21.979  0.00  0.00    -0.385 OA
ATOM     19  H   UNL     1       7.111  -3.488  22.688  0.00  0.00    +0.210 HD
ENDBRANCH   2  18
BRANCH   3  20
ATOM     20  O   UNL     1      10.568  -2.642  23.182  0.00  0.00    -0.386 OA
ATOM     21  H   UNL     1      10.710  -3.137  22.357  0.00  0.00    +0.210 HD
ENDBRANCH   3  20
BRANCH   4  22
ATOM     22  C   UNL     1       8.693  -2.785  26.023  0.00  0.00    +0.204 C 
BRANCH  22  23
ATOM     23  O   UNL     1       8.265  -4.124  25.705  0.00  0.00    -0.305 OA
BRANCH  23  24
ATOM     24  P   UNL     1       7.051  -4.829  26.527  0.00  0.00    +0.342 P 
ATOM     25  O   UNL     1       6.349  -3.924  27.485  0.00  0.00    -0.258 OA
BRANCH  24  26
ATOM     26  O   UNL     1       7.799  -6.017  27.324  0.00  0.00    -0.324 OA
ATOM     27  H   UNL     1       8.469  -5.680  27.950  0.00  0.00    +0.220 HD
ENDBRANCH  24  26
BRANCH  24  28
ATOM     28  C   UNL     1       5.983  -5.715  25.399  0.00  0.00    +0.253 C 
BRANCH  28  29
ATOM     29  P   UNL     1       5.365  -5.069  23.802  0.00  0.00    +0.339 P 
ATOM     30  O   UNL     1       4.843  -4.522  22.451  0.00  0.00    -0.258 OA
BRANCH  29  31
ATOM     31  O   UNL     1       6.891  -5.397  23.272  0.00  0.00    -0.324 OA
ATOM     32  H   UNL     1       7.466  -5.844  23.922  0.00  0.00    +0.220 HD
ENDBRANCH  29  31
BRANCH  29  33
ATOM     33  O   UNL     1       5.730  -3.578  24.418  0.00  0.00    -0.324 OA
ATOM     34  H   UNL     1       5.572  -2.817  23.834  0.00  0.00    +0.220 HD
ENDBRANCH  29  33
ENDBRANCH  28  29
ENDBRANCH  24  28
ENDBRANCH  23  24
ENDBRANCH  22  23
ENDBRANCH   4  22
TORSDOF 11
ENDMDL
MODEL 4
REMARK VINA RESULT:      -6.6      4.704      7.671
REMARK  Name = 
REMARK  11 active torsions:
REMARK  status: ('A' for Active; 'I' for Inactive)
REMARK    1  A    between atoms: N_10  and  C_11
REMARK    2  A    between atoms: C_14  and  C_16
REMARK    3  A    between atoms: C_16  and  O_17
REMARK    4  A    between atoms: O_17  and  P_18
REMARK    5  A    between atoms: P_18  and  O_19
REMARK    6  A    between atoms: P_18  and  C_21
REMARK    7  A    between atoms: C_21  and  P_22
REMARK    8  A    between atoms: P_22  and  O_23
REMARK    9  A    between atoms: P_22  and  O_24
REMARK   10  A    between atoms: C_26  and  O_28
REMARK   11  A    between atoms: C_29  and  O_31
REMARK                            x       y       z     vdW  Elec       q    Type
REMARK                         _______ _______ _______ _____ _____    ______ ____
ROOT
ATOM      1  C   UNL     1       6.737  -2.121  24.296  0.00  0.00    +0.253 C 
ATOM      2  C   UNL     1       7.998  -2.341  25.146  0.00  0.00    +0.195 C 
ATOM      3  C   UNL     1       9.147  -2.337  24.135  0.00  0.00    +0.178 C 
ATOM      4  C   UNL     1       8.506  -1.949  22.792  0.00  0.00    +0.178 C 
ATOM      5  O   UNL     1       7.217  -1.383  23.125  0.00  0.00    -0.346 OA
ENDROOT
BRANCH   1  13
ATOM      6  N   UNL     1       3.683  -7.331  23.616  0.00  0.00    -0.341 N 
ATOM      7  H   UNL     1       3.172  -6.897  22.855  0.00  0.00    +0.144 HD
ATOM      8  H   UNL     1       3.176  -7.959  24.227  0.00  0.00    +0.144 HD
ATOM      9  C   UNL     1       4.473  -6.436  24.332  0.00  0.00    +0.147 A 
ATOM     10  C   UNL     1       4.913  -5.208  23.811  0.00  0.00    +0.147 A 
ATOM     11  N   UNL     1       4.684  -4.586  22.598  0.00  0.00    -0.231 NA
ATOM     12  C   UNL     1       5.328  -3.440  22.689  0.00  0.00    +0.203 A 
ATOM     13  N   UNL     1       6.001  -3.306  23.878  0.00  0.00    -0.286 N 
ATOM     14  C   UNL     1       5.694  -4.410  24.635  0.00  0.00    +0.167 A 
ATOM     15  N   UNL     1       6.051  -4.687  25.901  0.00  0.00    -0.216 NA
ATOM     16  C   UNL     1       5.578  -5.886  26.285  0.00  0.00    +0.225 A 
ATOM     17  N   UNL     1       4.820  -6.764  25.593  0.00  0.00    -0.219 NA
ENDBRANCH   1  13
BRANCH   2  18
ATOM     18  O   UNL     1       8.180  -1.244  26.072  0.00  0.00    -0.385 OA
ATOM     19  H   UNL     1       7.593  -1.374  26.837  0.00  0.00    +0.210 HD
ENDBRANCH   2  18
BRANCH   3  20
ATOM     20  O   UNL     1       9.724  -3.638  24.055  0.00  0.00    -0.386 OA
ATOM     21  H   UNL     1       9.011  -4.287  23.932  0.00  0.00    +0.210 HD
ENDBRANCH   3  20
BRANCH   4  22
ATOM     22  C   UNL     1       9.388  -0.958  21.977  0.00  0.00    +0.204 C 
BRANCH  22  23
ATOM     23  O   UNL     1       9.734   0.244  22.691  0.00  0.00    -0.305 OA
BRANCH  23  24
ATOM     24  P   UNL     1       9.162   1.691  22.215  0.00  0.00    +0.342 P 
ATOM     25  O   UNL     1       8.031   1.616  21.243  0.00  0.00    -0.258 OA
BRANCH  24  26
ATOM     26  O   UNL     1      10.450   2.377  21.524  0.00  0.00    -0.324 OA
ATOM     27  H   UNL     1      10.290   2.609  20.588  0.00  0.00    +0.220 HD
ENDBRANCH  24  26
BRANCH  24  28
ATOM     28  C   UNL     1       8.871   2.733  23.639  0.00  0.00    +0.253 C 
BRANCH  28  29
ATOM     29  P   UNL     1       8.050   2.201  25.186  0.00  0.00    +0.339 P 
ATOM     30  O   UNL     1       7.356   1.751  26.494  0.00  0.00    -0.258 OA
BRANCH  29  31
ATOM     31  O   UNL     1       9.371   1.228  25.353  0.00  0.00    -0.324 OA
ATOM     32  H   UNL     1       9.636   1.049  26.275  0.00  0.00    +0.220 HD
ENDBRANCH  29  31
BRANCH  29  33
ATOM     33  O   UNL     1       7.206   1.157  24.220  0.00  0.00    -0.324 OA
ATOM     34  H   UNL     1       6.665   0.489  24.673  0.00  0.00    +0.220 HD
ENDBRANCH  29  33
ENDBRANCH  28  29
ENDBRANCH  24  28
ENDBRANCH  23  24
ENDBRANCH  22  23
ENDBRANCH   4  22
TORSDOF 11
ENDMDL
MODEL 5
REMARK VINA RESULT:      -6.5      4.953      8.008
REMARK  Name = 
REMARK  11 active torsions:
REMARK  status: ('A' for Active; 'I' for Inactive)
REMARK    1  A    between atoms: N_10  and  C_11
REMARK    2  A    between atoms: C_14  and  C_16
REMARK    3  A    between atoms: C_16  and  O_17
REMARK    4  A    between atoms: O_17  and  P_18
REMARK    5  A    between atoms: P_18  and  O_19
REMARK    6  A    between atoms: P_18  and  C_21
REMARK    7  A    between atoms: C_21  and  P_22
REMARK    8  A    between atoms: P_22  and  O_23
REMARK    9  A    between atoms: P_22  and  O_24
REMARK   10  A    between atoms: C_26  and  O_28
REMARK   11  A    between atoms: C_29  and  O_31
REMARK                            x       y       z     vdW  Elec       q    Type
REMARK                         _______ _______ _______ _____ _____    ______ ____
ROOT
ATOM      1  C   UNL     1       8.371  -5.041  26.347  0.00  0.00    +0.253 C 
ATOM      2  C   UNL     1       9.085  -5.131  24.990  0.00  0.00    +0.195 C 
ATOM      3  C   UNL     1       8.823  -3.775  24.328  0.00  0.00    +0.178 C 
ATOM      4  C   UNL     1       8.124  -2.927  25.404  0.00  0.00    +0.178 C 
ATOM      5  O   UNL     1       8.367  -3.609  26.656  0.00  0.00    -0.346 OA
ENDROOT
BRANCH   1  13
ATOM      6  N   UNL     1       2.851  -7.150  27.763  0.00  0.00    -0.341 N 
ATOM      7  H   UNL     1       2.512  -6.766  26.888  0.00  0.00    +0.144 HD
ATOM      8  H   UNL     1       2.239  -7.098  28.568  0.00  0.00    +0.144 HD
ATOM      9  C   UNL     1       4.151  -6.759  28.072  0.00  0.00    +0.147 A 
ATOM     10  C   UNL     1       5.070  -6.308  27.110  0.00  0.00    +0.147 A 
ATOM     11  N   UNL     1       4.953  -6.105  25.748  0.00  0.00    -0.231 NA
ATOM     12  C   UNL     1       6.132  -5.642  25.383  0.00  0.00    +0.203 A 
ATOM     13  N   UNL     1       7.020  -5.579  26.427  0.00  0.00    -0.286 N 
ATOM     14  C   UNL     1       6.333  -5.948  27.557  0.00  0.00    +0.167 A 
ATOM     15  N   UNL     1       6.758  -5.963  28.833  0.00  0.00    -0.216 NA
ATOM     16  C   UNL     1       5.797  -6.417  29.657  0.00  0.00    +0.225 A 
ATOM     17  N   UNL     1       4.538  -6.807  29.363  0.00  0.00    -0.219 NA
ENDBRANCH   1  13
BRANCH   2  18
ATOM     18  O   UNL     1      10.509  -5.297  25.178  0.00  0.00    -0.385 OA
ATOM     19  H   UNL     1      10.662  -5.952  25.882  0.00  0.00    +0.210 HD
ENDBRANCH   2  18
BRANCH   3  20
ATOM     20  O   UNL     1       7.973  -3.946  23.197  0.00  0.00    -0.386 OA
ATOM     21  H   UNL     1       7.895  -4.896  23.008  0.00  0.00    +0.210 HD
ENDBRANCH   3  20
BRANCH   4  22
ATOM     22  C   UNL     1       8.638  -1.458  25.428  0.00  0.00    +0.204 C 
BRANCH  22  23
ATOM     23  O   UNL     1       9.391  -1.079  24.259  0.00  0.00    -0.305 OA
BRANCH  23  24
ATOM     24  P   UNL     1       8.666  -0.343  23.002  0.00  0.00    +0.342 P 
ATOM     25  O   UNL     1       7.376  -0.968  22.584  0.00  0.00    -0.258 OA
BRANCH  24  26
ATOM     26  O   UNL     1       9.762  -0.478  21.826  0.00  0.00    -0.324 OA
ATOM     27  H   UNL     1      10.170  -1.365  21.798  0.00  0.00    +0.220 HD
ENDBRANCH  24  26
BRANCH  24  28
ATOM     28  C   UNL     1       8.597   1.422  23.284  0.00  0.00    +0.253 C 
BRANCH  28  29
ATOM     29  P   UNL     1      10.046   2.539  23.346  0.00  0.00    +0.339 P 
ATOM     30  O   UNL     1      11.271   3.483  23.397  0.00  0.00    -0.258 OA
BRANCH  29  31
ATOM     31  O   UNL     1      10.163   2.199  21.736  0.00  0.00    -0.324 OA
ATOM     32  H   UNL     1       9.380   2.439  21.207  0.00  0.00    +0.220 HD
ENDBRANCH  29  31
BRANCH  29  33
ATOM     33  O   UNL     1      10.883   1.205  23.850  0.00  0.00    -0.324 OA
ATOM     34  H   UNL     1      10.936   0.464  23.223  0.00  0.00    +0.220 HD
ENDBRANCH  29  33
ENDBRANCH  28  29
ENDBRANCH  24  28
ENDBRANCH  23  24
ENDBRANCH  22  23
ENDBRANCH   4  22
TORSDOF 11
ENDMDL
MODEL 6
REMARK VINA RESULT:      -6.5      1.997      3.613
REMARK  Name = 
REMARK  11 active torsions:
REMARK  status: ('A' for Active; 'I' for Inactive)
REMARK    1  A    between atoms: N_10  and  C_11
REMARK    2  A    between atoms: C_14  and  C_16
REMARK    3  A    between atoms: C_16  and  O_17
REMARK    4  A    between atoms: O_17  and  P_18
REMARK    5  A    between atoms: P_18  and  O_19
REMARK    6  A    between atoms: P_18  and  C_21
REMARK    7  A    between atoms: C_21  and  P_22
REMARK    8  A    between atoms: P_22  and  O_23
REMARK    9  A    between atoms: P_22  and  O_24
REMARK   10  A    between atoms: C_26  and  O_28
REMARK   11  A    between atoms: C_29  and  O_31
REMARK                            x       y       z     vdW  Elec       q    Type
REMARK                         _______ _______ _______ _____ _____    ______ ____
ROOT
ATOM      1  C   UNL     1       7.651  -0.942  22.991  0.00  0.00    +0.253 C 
ATOM      2  C   UNL     1       8.218  -2.247  22.413  0.00  0.00    +0.195 C 
ATOM      3  C   UNL     1       8.900  -2.930  23.601  0.00  0.00    +0.178 C 
ATOM      4  C   UNL     1       8.542  -2.067  24.824  0.00  0.00    +0.178 C 
ATOM      5  O   UNL     1       7.428  -1.244  24.407  0.00  0.00    -0.346 OA
ENDROOT
BRANCH   1  13
ATOM      6  N   UNL     1      10.598   4.358  23.370  0.00  0.00    -0.341 N 
ATOM      7  H   UNL     1      11.381   3.923  22.895  0.00  0.00    +0.144 HD
ATOM      8  H   UNL     1      10.804   5.023  24.107  0.00  0.00    +0.144 HD
ATOM      9  C   UNL     1       9.609   3.455  23.748  0.00  0.00    +0.147 A 
ATOM     10  C   UNL     1       9.443   2.196  23.146  0.00  0.00    +0.147 A 
ATOM     11  N   UNL     1      10.152   1.550  22.151  0.00  0.00    -0.231 NA
ATOM     12  C   UNL     1       9.553   0.383  22.026  0.00  0.00    +0.203 A 
ATOM     13  N   UNL     1       8.465   0.257  22.852  0.00  0.00    -0.286 N 
ATOM     14  C   UNL     1       8.417   1.393  23.622  0.00  0.00    +0.167 A 
ATOM     15  N   UNL     1       7.577   1.692  24.629  0.00  0.00    -0.216 NA
ATOM     16  C   UNL     1       7.829   2.919  25.120  0.00  0.00    +0.225 A 
ATOM     17  N   UNL     1       8.779   3.805  24.752  0.00  0.00    -0.219 NA
ENDBRANCH   1  13
BRANCH   2  18
ATOM     18  O   UNL     1       7.148  -3.094  21.932  0.00  0.00    -0.385 OA
ATOM     19  H   UNL     1       6.507  -2.549  21.443  0.00  0.00    +0.210 HD
ENDBRANCH   2  18
BRANCH   3  20
ATOM     20  O   UNL     1      10.310  -2.952  23.402  0.00  0.00    -0.386 OA
ATOM     21  H   UNL     1      10.489  -3.148  22.467  0.00  0.00    +0.210 HD
ENDBRANCH   3  20
BRANCH   4  22
ATOM     22  C   UNL     1       8.199  -2.926  26.076  0.00  0.00    +0.204 C 
BRANCH  22  23
ATOM     23  O   UNL     1       7.831  -4.286  25.773  0.00  0.00    -0.305 OA
BRANCH  23  24
ATOM     24  P   UNL     1       6.295  -4.672  25.397  0.00  0.00    +0.342 P 
ATOM     25  O   UNL     1       6.087  -5.038  23.964  0.00  0.00    -0.258 OA
BRANCH  24  26
ATOM     26  O   UNL     1       5.488  -3.321  25.754  0.00  0.00    -0.324 OA
ATOM     27  H   UNL     1       5.109  -3.341  26.654  0.00  0.00    +0.220 HD
ENDBRANCH  24  26
BRANCH  24  28
ATOM     28  C   UNL     1       5.652  -5.847  26.582  0.00  0.00    +0.253 C 
BRANCH  28  29
ATOM     29  P   UNL     1       6.036  -5.860  28.371  0.00  0.00    +0.339 P 
ATOM     30  O   UNL     1       6.362  -5.872  29.884  0.00  0.00    -0.258 OA
BRANCH  29  31
ATOM     31  O   UNL     1       7.583  -6.129  27.865  0.00  0.00    -0.324 OA
ATOM     32  H   UNL     1       8.050  -5.339  27.535  0.00  0.00    +0.220 HD
ENDBRANCH  29  31
BRANCH  29  33
ATOM     33  O   UNL     1       5.576  -7.448  28.320  0.00  0.00    -0.324 OA
ATOM     34  H   UNL     1       5.541  -7.862  27.441  0.00  0.00    +0.220 HD
ENDBRANCH  29  33
ENDBRANCH  28  29
ENDBRANCH  24  28
ENDBRANCH  23  24
ENDBRANCH  22  23
ENDBRANCH   4  22
TORSDOF 11
ENDMDL
MODEL 7
REMARK VINA RESULT:      -6.4      2.964      4.261
REMARK  Name = 
REMARK  11 active torsions:
REMARK  status: ('A' for Active; 'I' for Inactive)
REMARK    1  A    between atoms: N_10  and  C_11
REMARK    2  A    between atoms: C_14  and  C_16
REMARK    3  A    between atoms: C_16  and  O_17
REMARK    4  A    between atoms: O_17  and  P_18
REMARK    5  A    between atoms: P_18  and  O_19
REMARK    6  A    between atoms: P_18  and  C_21
REMARK    7  A    between atoms: C_21  and  P_22
REMARK    8  A    between atoms: P_22  and  O_23
REMARK    9  A    between atoms: P_22  and  O_24
REMARK   10  A    between atoms: C_26  and  O_28
REMARK   11  A    between atoms: C_29  and  O_31
REMARK                            x       y       z     vdW  Elec       q    Type
REMARK                         _______ _______ _______ _____ _____    ______ ____
ROOT
ATOM      1  C   UNL     1       8.325  -0.036  22.490  0.00  0.00    +0.253 C 
ATOM      2  C   UNL     1       9.834  -0.321  22.492  0.00  0.00    +0.195 C 
ATOM      3  C   UNL     1      10.126  -0.836  23.904  0.00  0.00    +0.178 C 
ATOM      4  C   UNL     1       8.750  -0.978  24.577  0.00  0.00    +0.178 C 
ATOM      5  O   UNL     1       7.785  -0.952  23.499  0.00  0.00    -0.346 OA
ENDROOT
BRANCH   1  13
ATOM      6  N   UNL     1       7.639   5.896  23.613  0.00  0.00    -0.341 N 
ATOM      7  H   UNL     1       6.751   5.856  23.125  0.00  0.00    +0.144 HD
ATOM      8  H   UNL     1       8.205   6.727  23.494  0.00  0.00    +0.144 HD
ATOM      9  C   UNL     1       8.392   4.732  23.489  0.00  0.00    +0.147 A 
ATOM     10  C   UNL     1       7.835   3.484  23.162  0.00  0.00    +0.147 A 
ATOM     11  N   UNL     1       6.540   3.102  22.866  0.00  0.00    -0.231 NA
ATOM     12  C   UNL     1       6.629   1.812  22.610  0.00  0.00    +0.203 A 
ATOM     13  N   UNL     1       7.904   1.329  22.771  0.00  0.00    -0.286 N 
ATOM     14  C   UNL     1       8.702   2.405  23.069  0.00  0.00    +0.167 A 
ATOM     15  N   UNL     1      10.037   2.442  23.234  0.00  0.00    -0.216 NA
ATOM     16  C   UNL     1      10.450   3.684  23.547  0.00  0.00    +0.225 A 
ATOM     17  N   UNL     1       9.724   4.815  23.679  0.00  0.00    -0.219 NA
ENDBRANCH   1  13
BRANCH   2  18
ATOM     18  O   UNL     1      10.153  -1.359  21.536  0.00  0.00    -0.385 OA
ATOM     19  H   UNL     1      11.101  -1.570  21.600  0.00  0.00    +0.210 HD
ENDBRANCH   2  18
BRANCH   3  20
ATOM     20  O   UNL     1      10.929   0.109  24.606  0.00  0.00    -0.386 OA
ATOM     21  H   UNL     1      10.755   0.994  24.244  0.00  0.00    +0.210 HD
ENDBRANCH   3  20
BRANCH   4  22
ATOM     22  C   UNL     1       8.638  -2.274  25.431  0.00  0.00    +0.204 C 
BRANCH  22  23
ATOM     23  O   UNL     1       9.193  -3.445  24.800  0.00  0.00    -0.305 OA
BRANCH  23  24
ATOM     24  P   UNL     1       8.463  -4.893  24.938  0.00  0.00    +0.342 P 
ATOM     25  O   UNL     1       7.562  -5.016  26.122  0.00  0.00    -0.258 OA
BRANCH  24  26
ATOM     26  O   UNL     1       9.707  -5.911  25.071  0.00  0.00    -0.324 OA
ATOM     27  H   UNL     1       9.579  -6.726  24.547  0.00  0.00    +0.220 HD
ENDBRANCH  24  26
BRANCH  24  28
ATOM     28  C   UNL     1       7.730  -5.359  23.374  0.00  0.00    +0.253 C 
BRANCH  28  29
ATOM     29  P   UNL     1       6.556  -4.338  22.412  0.00  0.00    +0.339 P 
ATOM     30  O   UNL     1       5.563  -3.474  21.597  0.00  0.00    -0.258 OA
BRANCH  29  31
ATOM     31  O   UNL     1       7.876  -3.392  22.125  0.00  0.00    -0.324 OA
ATOM     32  H   UNL     1       8.732  -3.801  22.351  0.00  0.00    +0.220 HD
ENDBRANCH  29  31
BRANCH  29  33
ATOM     33  O   UNL     1       6.178  -3.644  23.864  0.00  0.00    -0.324 OA
ATOM     34  H   UNL     1       6.821  -3.764  24.583  0.00  0.00    +0.220 HD
ENDBRANCH  29  33
ENDBRANCH  28  29
ENDBRANCH  24  28
ENDBRANCH  23  24
ENDBRANCH  22  23
ENDBRANCH   4  22
TORSDOF 11
ENDMDL
MODEL 8
REMARK VINA RESULT:      -6.3      6.360      8.854
REMARK  Name = 
REMARK  11 active torsions:
REMARK  status: ('A' for Active; 'I' for Inactive)
REMARK    1  A    between atoms: N_10  and  C_11
REMARK    2  A    between atoms: C_14  and  C_16
REMARK    3  A    between atoms: C_16  and  O_17
REMARK    4  A    between atoms: O_17  and  P_18
REMARK    5  A    between atoms: P_18  and  O_19
REMARK    6  A    between atoms: P_18  and  C_21
REMARK    7  A    between atoms: C_21  and  P_22
REMARK    8  A    between atoms: P_22  and  O_23
REMARK    9  A    between atoms: P_22  and  O_24
REMARK   10  A    between atoms: C_26  and  O_28
REMARK   11  A    between atoms: C_29  and  O_31
REMARK                            x       y       z     vdW  Elec       q    Type
REMARK                         _______ _______ _______ _____ _____    ______ ____
ROOT
ATOM      1  C   UNL     1       9.799   1.123  23.816  0.00  0.00    +0.253 C 
ATOM      2  C   UNL     1      10.105   1.822  22.483  0.00  0.00    +0.195 C 
ATOM      3  C   UNL     1       8.731   2.069  21.855  0.00  0.00    +0.178 C 
ATOM      4  C   UNL     1       7.713   1.655  22.931  0.00  0.00    +0.178 C 
ATOM      5  O   UNL     1       8.458   1.595  24.169  0.00  0.00    -0.346 OA
ENDROOT
BRANCH   1  13
ATOM      6  N   UNL     1       9.248  -4.865  24.691  0.00  0.00    -0.341 N 
ATOM      7  H   UNL     1       9.407  -4.995  23.698  0.00  0.00    +0.144 HD
ATOM      8  H   UNL     1       8.577  -5.473  25.145  0.00  0.00    +0.144 HD
ATOM      9  C   UNL     1       9.070  -3.533  25.053  0.00  0.00    +0.147 A 
ATOM     10  C   UNL     1       9.524  -2.455  24.276  0.00  0.00    +0.147 A 
ATOM     11  N   UNL     1      10.168  -2.406  23.054  0.00  0.00    -0.231 NA
ATOM     12  C   UNL     1      10.314  -1.119  22.810  0.00  0.00    +0.203 A 
ATOM     13  N   UNL     1       9.842  -0.332  23.830  0.00  0.00    -0.286 N 
ATOM     14  C   UNL     1       9.277  -1.176  24.755  0.00  0.00    +0.167 A 
ATOM     15  N   UNL     1       8.616  -0.865  25.884  0.00  0.00    -0.216 NA
ATOM     16  C   UNL     1       8.237  -1.975  26.543  0.00  0.00    +0.225 A 
ATOM     17  N   UNL     1       8.415  -3.270  26.203  0.00  0.00    -0.219 NA
ENDBRANCH   1  13
BRANCH   2  18
ATOM     18  O   UNL     1      10.753   3.094  22.717  0.00  0.00    -0.385 OA
ATOM     19  H   UNL     1      11.699   2.942  22.886  0.00  0.00    +0.210 HD
ENDBRANCH   2  18
BRANCH   3  20
ATOM     20  O   UNL     1       8.580   1.263  20.689  0.00  0.00    -0.386 OA
ATOM     21  H   UNL     1       8.083   1.769  20.024  0.00  0.00    +0.210 HD
ENDBRANCH   3  20
BRANCH   4  22
ATOM     22  C   UNL     1       6.509   2.639  23.019  0.00  0.00    +0.204 C 
BRANCH  22  23
ATOM     23  O   UNL     1       6.713   3.737  23.929  0.00  0.00    -0.305 OA
BRANCH  23  24
ATOM     24  P   UNL     1       6.530   5.277  23.435  0.00  0.00    +0.342 P 
ATOM     25  O   UNL     1       5.695   6.119  24.342  0.00  0.00    -0.258 OA
BRANCH  24  26
ATOM     26  O   UNL     1       5.806   5.110  22.002  0.00  0.00    -0.324 OA
ATOM     27  H   UNL     1       4.844   4.967  22.086  0.00  0.00    +0.220 HD
ENDBRANCH  24  26
BRANCH  24  28
ATOM     28  C   UNL     1       8.119   5.973  23.002  0.00  0.00    +0.253 C 
BRANCH  28  29
ATOM     29  P   UNL     1       9.494   6.273  24.171  0.00  0.00    +0.339 P 
ATOM     30  O   UNL     1      10.658   6.526  25.160  0.00  0.00    -0.258 OA
BRANCH  29  31
ATOM     31  O   UNL     1      10.450   5.935  22.870  0.00  0.00    -0.324 OA
ATOM     32  H   UNL     1      10.649   6.699  22.297  0.00  0.00    +0.220 HD
ENDBRANCH  29  31
BRANCH  29  33
ATOM     33  O   UNL     1       9.277   4.697  24.621  0.00  0.00    -0.324 OA
ATOM     34  H   UNL     1       8.462   4.266  24.313  0.00  0.00    +0.220 HD
ENDBRANCH  29  33
ENDBRANCH  28  29
ENDBRANCH  24  28
ENDBRANCH  23  24
ENDBRANCH  22  23
ENDBRANCH   4  22
TORSDOF 11
ENDMDL
MODEL 9
REMARK VINA RESULT:      -6.2      3.248      4.930
REMARK  Name = 
REMARK  11 active torsions:
REMARK  status: ('A' for Active; 'I' for Inactive)
REMARK    1  A    between atoms: N_10  and  C_11
REMARK    2  A    between atoms: C_14  and  C_16
REMARK    3  A    between atoms: C_16  and  O_17
REMARK    4  A    between atoms: O_17  and  P_18
REMARK    5  A    between atoms: P_18  and  O_19
REMARK    6  A    between atoms: P_18  and  C_21
REMARK    7  A    between atoms: C_21  and  P_22
REMARK    8  A    between atoms: P_22  and  O_23
REMARK    9  A    between atoms: P_22  and  O_24
REMARK   10  A    between atoms: C_26  and  O_28
REMARK   11  A    between atoms: C_29  and  O_31
REMARK                            x       y       z     vdW  Elec       q    Type
REMARK                         _______ _______ _______ _____ _____    ______ ____
ROOT
ATOM      1  C   UNL     1       8.652   1.078  22.839  0.00  0.00    +0.253 C 
ATOM      2  C   UNL     1      10.051   0.449  22.761  0.00  0.00    +0.195 C 
ATOM      3  C   UNL     1      10.231  -0.256  24.108  0.00  0.00    +0.178 C 
ATOM      4  C   UNL     1       8.869  -0.137  24.813  0.00  0.00    +0.178 C 
ATOM      5  O   UNL     1       7.924   0.220  23.777  0.00  0.00    -0.346 OA
ENDROOT
BRANCH   1  13
ATOM      6  N   UNL     1       9.360   6.937  24.289  0.00  0.00    -0.341 N 
ATOM      7  H   UNL     1       8.389   7.086  24.035  0.00  0.00    +0.144 HD
ATOM      8  H   UNL     1      10.024   7.666  24.059  0.00  0.00    +0.144 HD
ATOM      9  C   UNL     1       9.833   5.675  23.943  0.00  0.00    +0.147 A 
ATOM     10  C   UNL     1       8.995   4.569  23.725  0.00  0.00    +0.147 A 
ATOM     11  N   UNL     1       7.619   4.437  23.749  0.00  0.00    -0.231 NA
ATOM     12  C   UNL     1       7.405   3.174  23.437  0.00  0.00    +0.203 A 
ATOM     13  N   UNL     1       8.570   2.470  23.260  0.00  0.00    -0.286 N 
ATOM     14  C   UNL     1       9.600   3.368  23.384  0.00  0.00    +0.167 A 
ATOM     15  N   UNL     1      10.919   3.164  23.213  0.00  0.00    -0.216 NA
ATOM     16  C   UNL     1      11.617   4.289  23.454  0.00  0.00    +0.225 A 
ATOM     17  N   UNL     1      11.165   5.514  23.799  0.00  0.00    -0.219 NA
ENDBRANCH   1  13
BRANCH   2  18
ATOM     18  O   UNL     1      10.104  -0.535  21.702  0.00  0.00    -0.385 OA
ATOM     19  H   UNL     1       9.215  -0.910  21.573  0.00  0.00    +0.210 HD
ENDBRANCH   2  18
BRANCH   3  20
ATOM     20  O   UNL     1      11.243   0.401  24.866  0.00  0.00    -0.386 OA
ATOM     21  H   UNL     1      11.104   1.361  24.803  0.00  0.00    +0.210 HD
ENDBRANCH   3  20
BRANCH   4  22
ATOM     22  C   UNL     1       8.465  -1.449  25.547  0.00  0.00    +0.204 C 
BRANCH  22  23
ATOM     23  O   UNL     1       7.553  -2.282  24.804  0.00  0.00    -0.305 OA
BRANCH  23  24
ATOM     24  P   UNL     1       8.108  -3.398  23.757  0.00  0.00    +0.342 P 
ATOM     25  O   UNL     1       9.444  -3.962  24.110  0.00  0.00    -0.258 OA
BRANCH  24  26
ATOM     26  O   UNL     1       8.194  -2.578  22.370  0.00  0.00    -0.324 OA
ATOM     27  H   UNL     1       8.313  -1.619  22.512  0.00  0.00    +0.220 HD
ENDBRANCH  24  26
BRANCH  24  28
ATOM     28  C   UNL     1       6.836  -4.611  23.426  0.00  0.00    +0.253 C 
BRANCH  28  29
ATOM     29  P   UNL     1       6.371  -5.228  21.767  0.00  0.00    +0.339 P 
ATOM     30  O   UNL     1       5.977  -5.750  20.364  0.00  0.00    -0.258 OA
BRANCH  29  31
ATOM     31  O   UNL     1       5.352  -3.931  21.756  0.00  0.00    -0.324 OA
ATOM     32  H   UNL     1       4.750  -3.874  22.521  0.00  0.00    +0.220 HD
ENDBRANCH  29  31
BRANCH  29  33
ATOM     33  O   UNL     1       5.338  -6.233  22.578  0.00  0.00    -0.324 OA
ATOM     34  H   UNL     1       5.674  -7.120  22.792  0.00  0.00    +0.220 HD
ENDBRANCH  29  33
ENDBRANCH  28  29
ENDBRANCH  24  28
ENDBRANCH  23  24
ENDBRANCH  22  23
ENDBRANCH   4  22
TORSDOF 11
ENDMDL
