MODEL 1
REMARK VINA RESULT:      -6.5      0.000      0.000
REMARK  Name = 
REMARK  11 active torsions:
REMARK  status: ('A' for Active; 'I' for Inactive)
REMARK    1  A    between atoms: C_1  and  C_2
REMARK    2  A    between atoms: C_2  and  C_3
REMARK    3  A    between atoms: C_2  and  C_4
REMARK    4  A    between atoms: C_4  and  N_6
REMARK    5  A    between atoms: C_4  and  C_7
REMARK    6  A    between atoms: C_7  and  O_9
REMARK    7  A    between atoms: O_9  and  C_10
REMARK    8  A    between atoms: C_10  and  C_11
REMARK    9  A    between atoms: C_11  and  O_12
REMARK   10  A    between atoms: O_12  and  C_13
REMARK   11  A    between atoms: C_13  and  N_14
REMARK                            x       y       z     vdW  Elec       q    Type
REMARK                         _______ _______ _______ _____ _____    ______ ____
ROOT
ATOM      1  C   UNL     1       5.756  -5.604  22.729  0.00  0.00    +0.287 C 
ENDROOT
BRANCH   1   2
ATOM      2  N   UNL     1       5.403  -5.850  24.116  0.00  0.00    -0.292 N 
ATOM      3  C   UNL     1       6.150  -5.703  25.237  0.00  0.00    +0.148 A 
ATOM      4  N   UNL     1       7.414  -5.284  25.377  0.00  0.00    -0.312 N 
ATOM      5  H   UNL     1       8.003  -5.084  24.573  0.00  0.00    +0.170 HD
ATOM      6  C   UNL     1       7.941  -5.328  26.638  0.00  0.00    +0.195 A 
ATOM      7  N   UNL     1       7.312  -5.690  27.719  0.00  0.00    -0.176 NA
ATOM      8  C   UNL     1       5.967  -6.088  27.648  0.00  0.00    +0.302 A 
ATOM      9  O   UNL     1       5.326  -6.404  28.644  0.00  0.00    -0.263 OA
ATOM     10  N   UNL     1       9.246  -4.962  26.688  0.00  0.00    -0.329 N 
ATOM     11  H   UNL     1       9.554  -4.844  27.650  0.00  0.00    +0.145 HD
ATOM     12  H   UNL     1       9.494  -4.168  26.116  0.00  0.00    +0.145 HD
ATOM     13  C   UNL     1       5.388  -6.107  26.298  0.00  0.00    +0.172 A 
ATOM     14  N   UNL     1       4.140  -6.490  25.850  0.00  0.00    -0.229 NA
ATOM     15  C   UNL     1       4.183  -6.326  24.540  0.00  0.00    +0.203 A 
ENDBRANCH   1   2
BRANCH   1  16
ATOM     16  O   UNL     1       5.142  -4.393  22.285  0.00  0.00    -0.356 OA
BRANCH  16  17
ATOM     17  C   UNL     1       5.708  -3.244  22.920  0.00  0.00    +0.203 C 
BRANCH  17  18
ATOM     18  C   UNL     1       7.170  -3.132  22.486  0.00  0.00    +0.260 C 
BRANCH  18  19
ATOM     19  O   UNL     1       7.890  -2.234  23.354  0.00  0.00    -0.461 OA
BRANCH  19  20
ATOM     20  C   UNL     1       9.211  -2.535  23.522  0.00  0.00    +0.324 C 
ATOM     21  O   UNL     1       9.613  -3.535  24.108  0.00  0.00    -0.249 OA
BRANCH  20  22
ATOM     22  C   UNL     1      10.111  -1.420  22.944  0.00  0.00    +0.163 C 
BRANCH  22  24
ATOM     23  C   UNL     1       9.924   1.077  22.361  0.00  0.00    +0.009 C 
ATOM     24  C   UNL     1       9.681  -0.008  23.417  0.00  0.00    +0.010 C 
ATOM     25  C   UNL     1      10.373   0.385  24.729  0.00  0.00    +0.009 C 
ENDBRANCH  22  24
BRANCH  22  26
ATOM     26  N   UNL     1      10.133  -1.512  21.469  0.00  0.00    -0.318 NA
ATOM     27  H   UNL     1      10.264  -2.479  21.179  0.00  0.00    +0.119 HD
ATOM     28  H   UNL     1       9.227  -1.212  21.104  0.00  0.00    +0.119 HD
ENDBRANCH  22  26
ENDBRANCH  20  22
ENDBRANCH  19  20
ENDBRANCH  18  19
ENDBRANCH  17  18
ENDBRANCH  16  17
ENDBRANCH   1  16
TORSDOF 9
ENDMDL
MODEL 2
REMARK VINA RESULT:      -6.2      2.170      3.316
REMARK  Name = 
REMARK  11 active torsions:
REMARK  status: ('A' for Active; 'I' for Inactive)
REMARK    1  A    between atoms: C_1  and  C_2
REMARK    2  A    between atoms: C_2  and  C_3
REMARK    3  A    between atoms: C_2  and  C_4
REMARK    4  A    between atoms: C_4  and  N_6
REMARK    5  A    between atoms: C_4  and  C_7
REMARK    6  A    between atoms: C_7  and  O_9
REMARK    7  A    between atoms: O_9  and  C_10
REMARK    8  A    between atoms: C_10  and  C_11
REMARK    9  A    between atoms: C_11  and  O_12
REMARK   10  A    between atoms: O_12  and  C_13
REMARK   11  A    between atoms: C_13  and  N_14
REMARK                            x       y       z     vdW  Elec       q    Type
REMARK                         _______ _______ _______ _____ _____    ______ ____
ROOT
ATOM      1  C   UNL     1       5.624  -2.636  26.389  0.00  0.00    +0.287 C 
ENDROOT
BRANCH   1   2
ATOM      2  N   UNL     1       5.787  -3.335  25.126  0.00  0.00    -0.292 N 
ATOM      3  C   UNL     1       6.751  -4.206  24.740  0.00  0.00    +0.148 A 
ATOM      4  N   UNL     1       7.812  -4.668  25.415  0.00  0.00    -0.312 N 
ATOM      5  H   UNL     1       8.048  -4.322  26.340  0.00  0.00    +0.170 HD
ATOM      6  C   UNL     1       8.675  -5.475  24.726  0.00  0.00    +0.195 A 
ATOM      7  N   UNL     1       8.533  -5.877  23.496  0.00  0.00    -0.176 NA
ATOM      8  C   UNL     1       7.413  -5.472  22.751  0.00  0.00    +0.302 A 
ATOM      9  O   UNL     1       7.221  -5.852  21.602  0.00  0.00    -0.263 OA
ATOM     10  N   UNL     1       9.762  -5.839  25.451  0.00  0.00    -0.329 N 
ATOM     11  H   UNL     1      10.289  -6.567  24.974  0.00  0.00    +0.145 HD
ATOM     12  H   UNL     1       9.578  -6.082  26.414  0.00  0.00    +0.145 HD
ATOM     13  C   UNL     1       6.495  -4.557  23.443  0.00  0.00    +0.172 A 
ATOM     14  N   UNL     1       5.348  -3.923  23.011  0.00  0.00    -0.229 NA
ATOM     15  C   UNL     1       4.950  -3.199  24.042  0.00  0.00    +0.203 A 
ENDBRANCH   1   2
BRANCH   1  16
ATOM     16  O   UNL     1       6.905  -2.391  26.971  0.00  0.00    -0.356 OA
BRANCH  16  17
ATOM     17  C   UNL     1       7.431  -1.118  26.585  0.00  0.00    +0.203 C 
BRANCH  17  18
ATOM     18  C   UNL     1       8.789  -1.346  25.921  0.00  0.00    +0.260 C 
BRANCH  18  19
ATOM     19  O   UNL     1       8.667  -1.304  24.486  0.00  0.00    -0.461 OA
BRANCH  19  20
ATOM     20  C   UNL     1       9.715  -1.854  23.804  0.00  0.00    +0.324 C 
ATOM     21  O   UNL     1      10.141  -2.986  24.006  0.00  0.00    -0.249 OA
BRANCH  20  22
ATOM     22  C   UNL     1      10.323  -0.836  22.813  0.00  0.00    +0.163 C 
BRANCH  22  24
ATOM     23  C   UNL     1       9.549   1.353  21.709  0.00  0.00    +0.009 C 
ATOM     24  C   UNL     1       9.775   0.597  23.024  0.00  0.00    +0.010 C 
ATOM     25  C   UNL     1      10.685   1.422  23.943  0.00  0.00    +0.009 C 
ENDBRANCH  22  24
BRANCH  22  26
ATOM     26  N   UNL     1      10.105  -1.300  21.426  0.00  0.00    -0.318 NA
ATOM     27  H   UNL     1      10.992  -1.551  20.995  0.00  0.00    +0.119 HD
ATOM     28  H   UNL     1       9.534  -2.148  21.446  0.00  0.00    +0.119 HD
ENDBRANCH  22  26
ENDBRANCH  20  22
ENDBRANCH  19  20
ENDBRANCH  18  19
ENDBRANCH  17  18
ENDBRANCH  16  17
ENDBRANCH   1  16
TORSDOF 9
ENDMDL
MODEL 3
REMARK VINA RESULT:      -6.2      1.733      3.365
REMARK  Name = 
REMARK  11 active torsions:
REMARK  status: ('A' for Active; 'I' for Inactive)
REMARK    1  A    between atoms: C_1  and  C_2
REMARK    2  A    between atoms: C_2  and  C_3
REMARK    3  A    between atoms: C_2  and  C_4
REMARK    4  A    between atoms: C_4  and  N_6
REMARK    5  A    between atoms: C_4  and  C_7
REMARK    6  A    between atoms: C_7  and  O_9
REMARK    7  A    between atoms: O_9  and  C_10
REMARK    8  A    between atoms: C_10  and  C_11
REMARK    9  A    between atoms: C_11  and  O_12
REMARK   10  A    between atoms: O_12  and  C_13
REMARK   11  A    between atoms: C_13  and  N_14
REMARK                            x       y       z     vdW  Elec       q    Type
REMARK                         _______ _______ _______ _____ _____    ______ ____
ROOT
ATOM      1  C   UNL     1       7.114  -5.306  26.823  0.00  0.00    +0.287 C 
ENDROOT
BRANCH   1   2
ATOM      2  N   UNL     1       5.938  -5.797  26.127  0.00  0.00    -0.292 N 
ATOM      3  C   UNL     1       5.424  -5.423  24.929  0.00  0.00    +0.148 A 
ATOM      4  N   UNL     1       5.863  -4.509  24.054  0.00  0.00    -0.312 N 
ATOM      5  H   UNL     1       6.655  -3.908  24.262  0.00  0.00    +0.170 HD
ATOM      6  C   UNL     1       5.077  -4.280  22.959  0.00  0.00    +0.195 A 
ATOM      7  N   UNL     1       3.973  -4.904  22.662  0.00  0.00    -0.176 NA
ATOM      8  C   UNL     1       3.489  -5.913  23.511  0.00  0.00    +0.302 A 
ATOM      9  O   UNL     1       2.474  -6.551  23.255  0.00  0.00    -0.263 OA
ATOM     10  N   UNL     1       5.545  -3.288  22.161  0.00  0.00    -0.329 N 
ATOM     11  H   UNL     1       5.037  -3.260  21.280  0.00  0.00    +0.145 HD
ATOM     12  H   UNL     1       6.544  -3.285  22.016  0.00  0.00    +0.145 HD
ATOM     13  C   UNL     1       4.279  -6.144  24.727  0.00  0.00    +0.172 A 
ATOM     14  N   UNL     1       4.078  -6.998  25.793  0.00  0.00    -0.229 NA
ATOM     15  C   UNL     1       5.087  -6.763  26.613  0.00  0.00    +0.203 A 
ENDBRANCH   1   2
BRANCH   1  16
ATOM     16  O   UNL     1       8.198  -5.176  25.901  0.00  0.00    -0.356 OA
BRANCH  16  17
ATOM     17  C   UNL     1       8.714  -3.842  25.868  0.00  0.00    +0.203 C 
BRANCH  17  18
ATOM     18  C   UNL     1       9.453  -3.651  24.544  0.00  0.00    +0.260 C 
BRANCH  18  19
ATOM     19  O   UNL     1       8.551  -3.186  23.521  0.00  0.00    -0.461 OA
BRANCH  19  20
ATOM     20  C   UNL     1       8.438  -1.828  23.430  0.00  0.00    +0.324 C 
ATOM     21  O   UNL     1       7.381  -1.220  23.559  0.00  0.00    -0.249 OA
BRANCH  20  22
ATOM     22  C   UNL     1       9.797  -1.184  23.074  0.00  0.00    +0.163 C 
BRANCH  22  24
ATOM     23  C   UNL     1       9.998   1.157  22.031  0.00  0.00    +0.009 C 
ATOM     24  C   UNL     1       9.810   0.346  23.319  0.00  0.00    +0.010 C 
ATOM     25  C   UNL     1      10.880   0.748  24.342  0.00  0.00    +0.009 C 
ENDBRANCH  22  24
BRANCH  22  26
ATOM     26  N   UNL     1      10.154  -1.511  21.677  0.00  0.00    -0.318 NA
ATOM     27  H   UNL     1       9.917  -0.735  21.062  0.00  0.00    +0.119 HD
ATOM     28  H   UNL     1      11.165  -1.642  21.615  0.00  0.00    +0.119 HD
ENDBRANCH  22  26
ENDBRANCH  20  22
ENDBRANCH  19  20
ENDBRANCH  18  19
ENDBRANCH  17  18
ENDBRANCH  16  17
ENDBRANCH   1  16
TORSDOF 9
ENDMDL
MODEL 4
REMARK VINA RESULT:      -6.1      2.035      3.539
REMARK  Name = 
REMARK  11 active torsions:
REMARK  status: ('A' for Active; 'I' for Inactive)
REMARK    1  A    between atoms: C_1  and  C_2
REMARK    2  A    between atoms: C_2  and  C_3
REMARK    3  A    between atoms: C_2  and  C_4
REMARK    4  A    between atoms: C_4  and  N_6
REMARK    5  A    between atoms: C_4  and  C_7
REMARK    6  A    between atoms: C_7  and  O_9
REMARK    7  A    between atoms: O_9  and  C_10
REMARK    8  A    between atoms: C_10  and  C_11
REMARK    9  A    between atoms: C_11  and  O_12
REMARK   10  A    between atoms: O_12  and  C_13
REMARK   11  A    between atoms: C_13  and  N_14
REMARK                            x       y       z     vdW  Elec       q    Type
REMARK                         _______ _______ _______ _____ _____    ______ ____
ROOT
ATOM      1  C   UNL     1       9.066  -3.429  24.125  0.00  0.00    +0.287 C 
ENDROOT
BRANCH   1   2
ATOM      2  N   UNL     1       8.331  -4.198  25.114  0.00  0.00    -0.292 N 
ATOM      3  C   UNL     1       7.229  -4.972  24.961  0.00  0.00    +0.148 A 
ATOM      4  N   UNL     1       6.521  -5.250  23.859  0.00  0.00    -0.312 N 
ATOM      5  H   UNL     1       6.725  -4.808  22.967  0.00  0.00    +0.170 HD
ATOM      6  C   UNL     1       5.388  -5.997  24.029  0.00  0.00    +0.195 A 
ATOM      7  N   UNL     1       4.964  -6.505  25.150  0.00  0.00    -0.176 NA
ATOM      8  C   UNL     1       5.693  -6.297  26.333  0.00  0.00    +0.302 A 
ATOM      9  O   UNL     1       5.352  -6.785  27.404  0.00  0.00    -0.263 OA
ATOM     10  N   UNL     1       4.684  -6.170  22.882  0.00  0.00    -0.329 N 
ATOM     11  H   UNL     1       3.949  -6.863  23.009  0.00  0.00    +0.145 HD
ATOM     12  H   UNL     1       5.237  -6.359  22.059  0.00  0.00    +0.145 HD
ATOM     13  C   UNL     1       6.885  -5.450  26.196  0.00  0.00    +0.172 A 
ATOM     14  N   UNL     1       7.788  -4.994  27.135  0.00  0.00    -0.229 NA
ATOM     15  C   UNL     1       8.639  -4.247  26.454  0.00  0.00    +0.203 A 
ENDBRANCH   1   2
BRANCH   1  16
ATOM     16  O   UNL     1       8.164  -2.934  23.134  0.00  0.00    -0.356 OA
BRANCH  16  17
ATOM     17  C   UNL     1       8.770  -1.931  22.314  0.00  0.00    +0.203 C 
BRANCH  17  18
ATOM     18  C   UNL     1      10.062  -1.478  22.994  0.00  0.00    +0.260 C 
BRANCH  18  19
ATOM     19  O   UNL     1      10.364  -0.111  22.653  0.00  0.00    -0.461 OA
BRANCH  19  20
ATOM     20  C   UNL     1      10.585   0.711  23.721  0.00  0.00    +0.324 C 
ATOM     21  O   UNL     1      10.814   0.308  24.856  0.00  0.00    -0.249 OA
BRANCH  20  22
ATOM     22  C   UNL     1      10.436   2.195  23.316  0.00  0.00    +0.163 C 
BRANCH  22  24
ATOM     23  C   UNL     1       7.955   2.331  23.975  0.00  0.00    +0.009 C 
ATOM     24  C   UNL     1       9.356   2.931  24.148  0.00  0.00    +0.010 C 
ATOM     25  C   UNL     1       9.318   4.431  23.828  0.00  0.00    +0.009 C 
ENDBRANCH  22  24
BRANCH  22  26
ATOM     26  N   UNL     1      10.161   2.291  21.866  0.00  0.00    -0.318 NA
ATOM     27  H   UNL     1      10.641   1.545  21.367  0.00  0.00    +0.119 HD
ATOM     28  H   UNL     1       9.160   2.158  21.709  0.00  0.00    +0.119 HD
ENDBRANCH  22  26
ENDBRANCH  20  22
ENDBRANCH  19  20
ENDBRANCH  18  19
ENDBRANCH  17  18
ENDBRANCH  16  17
ENDBRANCH   1  16
TORSDOF 9
ENDMDL
MODEL 5
REMARK VINA RESULT:      -5.9      1.895      3.574
REMARK  Name = 
REMARK  11 active torsions:
REMARK  status: ('A' for Active; 'I' for Inactive)
REMARK    1  A    between atoms: C_1  and  C_2
REMARK    2  A    between atoms: C_2  and  C_3
REMARK    3  A    between atoms: C_2  and  C_4
REMARK    4  A    between atoms: C_4  and  N_6
REMARK    5  A    between atoms: C_4  and  C_7
REMARK    6  A    between atoms: C_7  and  O_9
REMARK    7  A    between atoms: O_9  and  C_10
REMARK    8  A    between atoms: C_10  and  C_11
REMARK    9  A    between atoms: C_11  and  O_12
REMARK   10  A    between atoms: O_12  and  C_13
REMARK   11  A    between atoms: C_13  and  N_14
REMARK                            x       y       z     vdW  Elec       q    Type
REMARK                         _______ _______ _______ _____ _____    ______ ____
ROOT
ATOM      1  C   UNL     1       8.893  -3.819  25.511  0.00  0.00    +0.287 C 
ENDROOT
BRANCH   1   2
ATOM      2  N   UNL     1       7.764  -4.728  25.602  0.00  0.00    -0.292 N 
ATOM      3  C   UNL     1       6.976  -5.227  24.619  0.00  0.00    +0.148 A 
ATOM      4  N   UNL     1       7.025  -5.029  23.295  0.00  0.00    -0.312 N 
ATOM      5  H   UNL     1       7.676  -4.370  22.877  0.00  0.00    +0.170 HD
ATOM      6  C   UNL     1       6.029  -5.598  22.551  0.00  0.00    +0.195 A 
ATOM      7  N   UNL     1       5.071  -6.355  23.002  0.00  0.00    -0.176 NA
ATOM      8  C   UNL     1       4.996  -6.647  24.374  0.00  0.00    +0.302 A 
ATOM      9  O   UNL     1       4.133  -7.383  24.839  0.00  0.00    -0.263 OA
ATOM     10  N   UNL     1       6.102  -5.289  21.232  0.00  0.00    -0.329 N 
ATOM     11  H   UNL     1       5.456  -5.858  20.689  0.00  0.00    +0.145 HD
ATOM     12  H   UNL     1       7.031  -5.298  20.836  0.00  0.00    +0.145 HD
ATOM     13  C   UNL     1       6.019  -6.004  25.211  0.00  0.00    +0.172 A 
ATOM     14  N   UNL     1       6.214  -6.017  26.577  0.00  0.00    -0.229 NA
ATOM     15  C   UNL     1       7.266  -5.242  26.777  0.00  0.00    +0.203 A 
ENDBRANCH   1   2
BRANCH   1  16
ATOM     16  O   UNL     1       9.440  -3.863  24.192  0.00  0.00    -0.356 OA
BRANCH  16  17
ATOM     17  C   UNL     1       9.789  -2.561  23.715  0.00  0.00    +0.203 C 
BRANCH  17  18
ATOM     18  C   UNL     1       8.522  -1.900  23.170  0.00  0.00    +0.260 C 
BRANCH  18  19
ATOM     19  O   UNL     1       8.320  -0.610  23.780  0.00  0.00    -0.461 OA
BRANCH  19  20
ATOM     20  C   UNL     1       8.197   0.427  22.901  0.00  0.00    +0.324 C 
ATOM     21  O   UNL     1       7.127   0.798  22.428  0.00  0.00    -0.249 OA
BRANCH  20  22
ATOM     22  C   UNL     1       9.581   1.009  22.535  0.00  0.00    +0.163 C 
BRANCH  22  24
ATOM     23  C   UNL     1      11.071   0.805  24.620  0.00  0.00    +0.009 C 
ATOM     24  C   UNL     1      10.249   1.741  23.726  0.00  0.00    +0.010 C 
ATOM     25  C   UNL     1       9.220   2.496  24.577  0.00  0.00    +0.009 C 
ENDBRANCH  22  24
BRANCH  22  26
ATOM     26  N   UNL     1       9.455   1.894  21.357  0.00  0.00    -0.318 NA
ATOM     27  H   UNL     1       9.498   1.347  20.500  0.00  0.00    +0.119 HD
ATOM     28  H   UNL     1       8.537   2.343  21.377  0.00  0.00    +0.119 HD
ENDBRANCH  22  26
ENDBRANCH  20  22
ENDBRANCH  19  20
ENDBRANCH  18  19
ENDBRANCH  17  18
ENDBRANCH  16  17
ENDBRANCH   1  16
TORSDOF 9
ENDMDL
MODEL 6
REMARK VINA RESULT:      -5.9      1.864      2.467
REMARK  Name = 
REMARK  11 active torsions:
REMARK  status: ('A' for Active; 'I' for Inactive)
REMARK    1  A    between atoms: C_1  and  C_2
REMARK    2  A    between atoms: C_2  and  C_3
REMARK    3  A    between atoms: C_2  and  C_4
REMARK    4  A    between atoms: C_4  and  N_6
REMARK    5  A    between atoms: C_4  and  C_7
REMARK    6  A    between atoms: C_7  and  O_9
REMARK    7  A    between atoms: O_9  and  C_10
REMARK    8  A    between atoms: C_10  and  C_11
REMARK    9  A    between atoms: C_11  and  O_12
REMARK   10  A    between atoms: O_12  and  C_13
REMARK   11  A    between atoms: C_13  and  N_14
REMARK                            x       y       z     vdW  Elec       q    Type
REMARK                         _______ _______ _______ _____ _____    ______ ____
ROOT
ATOM      1  C   UNL     1       6.514  -3.169  22.442  0.00  0.00    +0.287 C 
ENDROOT
BRANCH   1   2
ATOM      2  N   UNL     1       5.970  -4.059  23.452  0.00  0.00    -0.292 N 
ATOM      3  C   UNL     1       6.555  -4.559  24.568  0.00  0.00    +0.148 A 
ATOM      4  N   UNL     1       7.789  -4.365  25.051  0.00  0.00    -0.312 N 
ATOM      5  H   UNL     1       8.485  -3.829  24.540  0.00  0.00    +0.170 HD
ATOM      6  C   UNL     1       8.135  -5.084  26.162  0.00  0.00    +0.195 A 
ATOM      7  N   UNL     1       7.361  -5.897  26.821  0.00  0.00    -0.176 NA
ATOM      8  C   UNL     1       6.037  -6.102  26.398  0.00  0.00    +0.302 A 
ATOM      9  O   UNL     1       5.262  -6.831  27.006  0.00  0.00    -0.263 OA
ATOM     10  N   UNL     1       9.422  -4.893  26.545  0.00  0.00    -0.329 N 
ATOM     11  H   UNL     1       9.593  -5.305  27.460  0.00  0.00    +0.145 HD
ATOM     12  H   UNL     1       9.750  -3.940  26.498  0.00  0.00    +0.145 HD
ATOM     13  C   UNL     1       5.651  -5.388  25.173  0.00  0.00    +0.172 A 
ATOM     14  N   UNL     1       4.476  -5.396  24.449  0.00  0.00    -0.229 NA
ATOM     15  C   UNL     1       4.702  -4.592  23.425  0.00  0.00    +0.203 A 
ENDBRANCH   1   2
BRANCH   1  16
ATOM     16  O   UNL     1       7.941  -3.218  22.477  0.00  0.00    -0.356 OA
BRANCH  16  17
ATOM     17  C   UNL     1       8.525  -1.935  22.239  0.00  0.00    +0.203 C 
BRANCH  17  18
ATOM     18  C   UNL     1       9.748  -1.793  23.146  0.00  0.00    +0.260 C 
BRANCH  18  19
ATOM     19  O   UNL     1      10.485  -0.597  22.823  0.00  0.00    -0.461 OA
BRANCH  19  20
ATOM     20  C   UNL     1      10.294   0.445  23.685  0.00  0.00    +0.324 C 
ATOM     21  O   UNL     1      10.331   0.336  24.906  0.00  0.00    -0.249 OA
BRANCH  20  22
ATOM     22  C   UNL     1       9.957   1.742  22.916  0.00  0.00    +0.163 C 
BRANCH  22  24
ATOM     23  C   UNL     1       7.715   2.918  22.465  0.00  0.00    +0.009 C 
ATOM     24  C   UNL     1       8.742   2.490  23.521  0.00  0.00    +0.010 C 
ATOM     25  C   UNL     1       9.179   3.711  24.340  0.00  0.00    +0.009 C 
ENDBRANCH  22  24
BRANCH  22  26
ATOM     26  N   UNL     1       9.745   1.434  21.486  0.00  0.00    -0.318 NA
ATOM     27  H   UNL     1       9.371   0.493  21.380  0.00  0.00    +0.119 HD
ATOM     28  H   UNL     1       9.045   2.076  21.109  0.00  0.00    +0.119 HD
ENDBRANCH  22  26
ENDBRANCH  20  22
ENDBRANCH  19  20
ENDBRANCH  18  19
ENDBRANCH  17  18
ENDBRANCH  16  17
ENDBRANCH   1  16
TORSDOF 9
ENDMDL
MODEL 7
REMARK VINA RESULT:      -5.8      2.225      4.232
REMARK  Name = 
REMARK  11 active torsions:
REMARK  status: ('A' for Active; 'I' for Inactive)
REMARK    1  A    between atoms: C_1  and  C_2
REMARK    2  A    between atoms: C_2  and  C_3
REMARK    3  A    between atoms: C_2  and  C_4
REMARK    4  A    between atoms: C_4  and  N_6
REMARK    5  A    between atoms: C_4  and  C_7
REMARK    6  A    between atoms: C_7  and  O_9
REMARK    7  A    between atoms: O_9  and  C_10
REMARK    8  A    between atoms: C_10  and  C_11
REMARK    9  A    between atoms: C_11  and  O_12
REMARK   10  A    between atoms: O_12  and  C_13
REMARK   11  A    between atoms: C_13  and  N_14
REMARK                            x       y       z     vdW  Elec       q    Type
REMARK                         _______ _______ _______ _____ _____    ______ ____
ROOT
ATOM      1  C   UNL     1       7.525  -3.607  26.459  0.00  0.00    +0.287 C 
ENDROOT
BRANCH   1   2
ATOM      2  N   UNL     1       7.368  -4.111  25.106  0.00  0.00    -0.292 N 
ATOM      3  C   UNL     1       6.237  -4.335  24.394  0.00  0.00    +0.148 A 
ATOM      4  N   UNL     1       4.955  -4.146  24.736  0.00  0.00    -0.312 N 
ATOM      5  H   UNL     1       4.690  -3.855  25.672  0.00  0.00    +0.170 HD
ATOM      6  C   UNL     1       4.012  -4.555  23.834  0.00  0.00    +0.195 A 
ATOM      7  N   UNL     1       4.244  -5.061  22.657  0.00  0.00    -0.176 NA
ATOM      8  C   UNL     1       5.566  -5.233  22.217  0.00  0.00    +0.302 A 
ATOM      9  O   UNL     1       5.832  -5.673  21.103  0.00  0.00    -0.263 OA
ATOM     10  N   UNL     1       2.741  -4.403  24.282  0.00  0.00    -0.329 N 
ATOM     11  H   UNL     1       2.071  -4.555  23.532  0.00  0.00    +0.145 HD
ATOM     12  H   UNL     1       2.557  -3.543  24.778  0.00  0.00    +0.145 HD
ATOM     13  C   UNL     1       6.606  -4.857  23.184  0.00  0.00    +0.172 A 
ATOM     14  N   UNL     1       7.981  -4.943  23.119  0.00  0.00    -0.229 NA
ATOM     15  C   UNL     1       8.406  -4.490  24.286  0.00  0.00    +0.203 A 
ENDBRANCH   1   2
BRANCH   1  16
ATOM     16  O   UNL     1       8.682  -2.771  26.528  0.00  0.00    -0.356 OA
BRANCH  16  17
ATOM     17  C   UNL     1       8.339  -1.383  26.510  0.00  0.00    +0.203 C 
BRANCH  17  18
ATOM     18  C   UNL     1       9.174  -0.701  25.426  0.00  0.00    +0.260 C 
BRANCH  18  19
ATOM     19  O   UNL     1       8.322  -0.113  24.423  0.00  0.00    -0.461 OA
BRANCH  19  20
ATOM     20  C   UNL     1       8.398  -0.697  23.191  0.00  0.00    +0.324 C 
ATOM     21  O   UNL     1       7.528  -1.427  22.728  0.00  0.00    -0.249 OA
BRANCH  20  22
ATOM     22  C   UNL     1       9.745  -0.373  22.508  0.00  0.00    +0.163 C 
BRANCH  22  24
ATOM     23  C   UNL     1      10.340   2.112  22.786  0.00  0.00    +0.009 C 
ATOM     24  C   UNL     1       9.758   1.035  21.862  0.00  0.00    +0.010 C 
ATOM     25  C   UNL     1       8.360   1.457  21.394  0.00  0.00    +0.009 C 
ENDBRANCH  22  24
BRANCH  22  26
ATOM     26  N   UNL     1      10.068  -1.425  21.519  0.00  0.00    -0.318 NA
ATOM     27  H   UNL     1       9.213  -1.851  21.167  0.00  0.00    +0.119 HD
ATOM     28  H   UNL     1      10.538  -0.995  20.720  0.00  0.00    +0.119 HD
ENDBRANCH  22  26
ENDBRANCH  20  22
ENDBRANCH  19  20
ENDBRANCH  18  19
ENDBRANCH  17  18
ENDBRANCH  16  17
ENDBRANCH   1  16
TORSDOF 9
ENDMDL
MODEL 8
REMARK VINA RESULT:      -5.8      4.029      8.608
REMARK  Name = 
REMARK  11 active torsions:
REMARK  status: ('A' for Active; 'I' for Inactive)
REMARK    1  A    between atoms: C_1  and  C_2
REMARK    2  A    between atoms: C_2  and  C_3
REMARK    3  A    between atoms: C_2  and  C_4
REMARK    4  A    between atoms: C_4  and  N_6
REMARK    5  A    between atoms: C_4  and  C_7
REMARK    6  A    between atoms: C_7  and  O_9
REMARK    7  A    between atoms: O_9  and  C_10
REMARK    8  A    between atoms: C_10  and  C_11
REMARK    9  A    between atoms: C_11  and  O_12
REMARK   10  A    between atoms: O_12  and  C_13
REMARK   11  A    between atoms: C_13  and  N_14
REMARK                            x       y       z     vdW  Elec       q    Type
REMARK                         _______ _______ _______ _____ _____    ______ ____
ROOT
ATOM      1  C   UNL     1       9.946   1.010  22.301  0.00  0.00    +0.287 C 
ENDROOT
BRANCH   1   2
ATOM      2  N   UNL     1       9.474   2.207  22.976  0.00  0.00    -0.292 N 
ATOM      3  C   UNL     1      10.135   3.355  23.262  0.00  0.00    +0.148 A 
ATOM      4  N   UNL     1      11.399   3.708  22.994  0.00  0.00    -0.312 N 
ATOM      5  H   UNL     1      12.057   3.058  22.575  0.00  0.00    +0.170 HD
ATOM      6  C   UNL     1      11.820   4.909  23.493  0.00  0.00    +0.195 A 
ATOM      7  N   UNL     1      11.094   5.762  24.156  0.00  0.00    -0.176 NA
ATOM      8  C   UNL     1       9.745   5.476  24.422  0.00  0.00    +0.302 A 
ATOM      9  O   UNL     1       9.014   6.264  25.012  0.00  0.00    -0.263 OA
ATOM     10  N   UNL     1      13.130   5.161  23.249  0.00  0.00    -0.329 N 
ATOM     11  H   UNL     1      13.365   6.124  23.480  0.00  0.00    +0.145 HD
ATOM     12  H   UNL     1      13.454   4.910  22.326  0.00  0.00    +0.145 HD
ATOM     13  C   UNL     1       9.275   4.167  23.949  0.00  0.00    +0.172 A 
ATOM     14  N   UNL     1       8.053   3.539  24.080  0.00  0.00    -0.229 NA
ATOM     15  C   UNL     1       8.207   2.368  23.488  0.00  0.00    +0.203 A 
ENDBRANCH   1   2
BRANCH   1  16
ATOM     16  O   UNL     1       8.841   0.153  22.014  0.00  0.00    -0.356 OA
BRANCH  16  17
ATOM     17  C   UNL     1       9.246  -1.211  21.874  0.00  0.00    +0.203 C 
BRANCH  17  18
ATOM     18  C   UNL     1      10.359  -1.483  22.887  0.00  0.00    +0.260 C 
BRANCH  18  19
ATOM     19  O   UNL     1      10.233  -2.810  23.436  0.00  0.00    -0.461 OA
BRANCH  19  20
ATOM     20  C   UNL     1       9.326  -2.928  24.450  0.00  0.00    +0.324 C 
ATOM     21  O   UNL     1       9.031  -2.013  25.211  0.00  0.00    -0.249 OA
BRANCH  20  22
ATOM     22  C   UNL     1       8.788  -4.374  24.545  0.00  0.00    +0.163 C 
BRANCH  22  24
ATOM     23  C   UNL     1       7.932  -5.219  26.816  0.00  0.00    +0.009 C 
ATOM     24  C   UNL     1       7.583  -4.495  25.510  0.00  0.00    +0.010 C 
ATOM     25  C   UNL     1       6.388  -5.186  24.840  0.00  0.00    +0.009 C 
ENDBRANCH  22  24
BRANCH  22  26
ATOM     26  N   UNL     1       9.885  -5.288  24.930  0.00  0.00    -0.318 NA
ATOM     27  H   UNL     1      10.597  -4.783  25.453  0.00  0.00    +0.119 HD
ATOM     28  H   UNL     1       9.512  -6.008  25.553  0.00  0.00    +0.119 HD
ENDBRANCH  22  26
ENDBRANCH  20  22
ENDBRANCH  19  20
ENDBRANCH  18  19
ENDBRANCH  17  18
ENDBRANCH  16  17
ENDBRANCH   1  16
TORSDOF 9
ENDMDL
MODEL 9
REMARK VINA RESULT:      -5.7      4.187      8.824
REMARK  Name = 
REMARK  11 active torsions:
REMARK  status: ('A' for Active; 'I' for Inactive)
REMARK    1  A    between atoms: C_1  and  C_2
REMARK    2  A    between atoms: C_2  and  C_3
REMARK    3  A    between atoms: C_2  and  C_4
REMARK    4  A    between atoms: C_4  and  N_6
REMARK    5  A    between atoms: C_4  and  C_7
REMARK    6  A    between atoms: C_7  and  O_9
REMARK    7  A    between atoms: O_9  and  C_10
REMARK    8  A    between atoms: C_10  and  C_11
REMARK    9  A    between atoms: C_11  and  O_12
REMARK   10  A    between atoms: O_12  and  C_13
REMARK   11  A    between atoms: C_13  and  N_14
REMARK                            x       y       z     vdW  Elec       q    Type
REMARK                         _______ _______ _______ _____ _____    ______ ____
ROOT
ATOM      1  C   UNL     1      10.220   0.937  23.630  0.00  0.00    +0.287 C 
ENDROOT
BRANCH   1   2
ATOM      2  N   UNL     1       9.774   2.315  23.751  0.00  0.00    -0.292 N 
ATOM      3  C   UNL     1      10.478   3.465  23.617  0.00  0.00    +0.148 A 
ATOM      4  N   UNL     1      11.773   3.651  23.329  0.00  0.00    -0.312 N 
ATOM      5  H   UNL     1      12.419   2.871  23.245  0.00  0.00    +0.170 HD
ATOM      6  C   UNL     1      12.229   4.940  23.353  0.00  0.00    +0.195 A 
ATOM      7  N   UNL     1      11.513   6.003  23.577  0.00  0.00    -0.176 NA
ATOM      8  C   UNL     1      10.136   5.880  23.831  0.00  0.00    +0.302 A 
ATOM      9  O   UNL     1       9.416   6.855  24.013  0.00  0.00    -0.263 OA
ATOM     10  N   UNL     1      13.563   5.041  23.129  0.00  0.00    -0.329 N 
ATOM     11  H   UNL     1      13.835   6.011  22.986  0.00  0.00    +0.145 HD
ATOM     12  H   UNL     1      13.926   4.441  22.402  0.00  0.00    +0.145 HD
ATOM     13  C   UNL     1       9.625   4.504  23.870  0.00  0.00    +0.172 A 
ATOM     14  N   UNL     1       8.365   4.010  24.142  0.00  0.00    -0.229 NA
ATOM     15  C   UNL     1       8.490   2.697  24.064  0.00  0.00    +0.203 A 
ENDBRANCH   1   2
BRANCH   1  16
ATOM     16  O   UNL     1       9.143   0.123  23.163  0.00  0.00    -0.356 OA
BRANCH  16  17
ATOM     17  C   UNL     1       9.607  -0.970  22.366  0.00  0.00    +0.203 C 
BRANCH  17  18
ATOM     18  C   UNL     1      10.072  -2.081  23.309  0.00  0.00    +0.260 C 
BRANCH  18  19
ATOM     19  O   UNL     1       8.974  -2.558  24.111  0.00  0.00    -0.461 OA
BRANCH  19  20
ATOM     20  C   UNL     1       8.957  -3.909  24.316  0.00  0.00    +0.324 C 
ATOM     21  O   UNL     1       9.923  -4.551  24.713  0.00  0.00    -0.249 OA
BRANCH  20  22
ATOM     22  C   UNL     1       7.593  -4.512  23.912  0.00  0.00    +0.163 C 
BRANCH  22  24
ATOM     23  C   UNL     1       6.360  -3.475  21.908  0.00  0.00    +0.009 C 
ATOM     24  C   UNL     1       7.379  -4.520  22.377  0.00  0.00    +0.010 C 
ATOM     25  C   UNL     1       6.967  -5.907  21.869  0.00  0.00    +0.009 C 
ENDBRANCH  22  24
BRANCH  22  26
ATOM     26  N   UNL     1       6.504  -3.790  24.605  0.00  0.00    -0.318 NA
ATOM     27  H   UNL     1       6.878  -2.987  25.107  0.00  0.00    +0.119 HD
ATOM     28  H   UNL     1       5.850  -3.428  23.909  0.00  0.00    +0.119 HD
ENDBRANCH  22  26
ENDBRANCH  20  22
ENDBRANCH  19  20
ENDBRANCH  18  19
ENDBRANCH  17  18
ENDBRANCH  16  17
ENDBRANCH   1  16
TORSDOF 9
ENDMDL
