MODEL 1
REMARK VINA RESULT:      -6.3      0.000      0.000
REMARK  Name = 
REMARK  26 active torsions:
REMARK  status: ('A' for Active; 'I' for Inactive)
REMARK    1  A    between atoms: C_1  and  O_2
REMARK    2  A    between atoms: O_2  and  C_3
REMARK    3  A    between atoms: C_5  and  O_7
REMARK    4  A    between atoms: C_12  and  C_14
REMARK    5  A    between atoms: C_20  and  O_22
REMARK    6  A    between atoms: C_23  and  C_25
REMARK    7  A    between atoms: C_27  and  C_29
REMARK    8  A    between atoms: C_29  and  C_30
REMARK    9  A    between atoms: C_32  and  O_34
REMARK   10  A    between atoms: O_34  and  C_35
REMARK   11  A    between atoms: C_38  and  C_40
REMARK   12  A    between atoms: C_41  and  O_43
REMARK   13  A    between atoms: O_43  and  C_44
REMARK   14  A    between atoms: C_47  and  C_48
REMARK   15  A    between atoms: C_47  and  O_49
REMARK   16  A    between atoms: C_50  and  O_52
REMARK   17  A    between atoms: O_52  and  C_53
REMARK   18  A    between atoms: C_53  and  C_55
REMARK   19  A    between atoms: C_55  and  C_56
REMARK   20  A    between atoms: C_56  and  C_57
REMARK   21  A    between atoms: C_56  and  C_58
REMARK   22  A    between atoms: C_59  and  C_61
REMARK   23  A    between atoms: C_63  and  N_68
REMARK   24  A    between atoms: C_65  and  O_67
REMARK   25  A    between atoms: N_68  and  C_69
REMARK   26  A    between atoms: N_68  and  C_70
REMARK                            x       y       z     vdW  Elec       q    Type
REMARK                         _______ _______ _______ _____ _____    ______ ____
ROOT
ATOM      1  C   UNL     1       7.174  -1.077  25.850  0.00  0.00    +0.281 C 
ATOM      2  C   UNL     1       7.530  -2.476  26.706  0.00  0.00    +0.190 C 
ATOM      3  C   UNL     1       6.166  -3.370  26.678  0.00  0.00    +0.121 C 
ATOM      4  C   UNL     1       5.430  -2.126  27.587  0.00  0.00    +0.169 C 
ATOM      5  C   UNL     1       6.177  -0.469  27.686  0.00  0.00    +0.149 C 
ATOM      6  C   UNL     1       5.952   0.792  28.522  0.00  0.00    +0.041 C 
ATOM      7  O   UNL     1       7.406  -0.249  26.977  0.00  0.00    -0.343 OA
ENDROOT
BRANCH   3   8
ATOM      8  N   UNL     1       5.620  -4.867  25.892  0.00  0.00    -0.301 NA
ATOM      9  C   UNL     1       5.519  -6.119  26.616  0.00  0.00    +0.105 C 
ATOM     10  C   UNL     1       5.349  -5.292  24.418  0.00  0.00    +0.105 C 
ENDBRANCH   3   8
BRANCH   2  11
ATOM     11  O   UNL     1       8.927  -2.824  26.498  0.00  0.00    -0.385 OA
ATOM     12  H   UNL     1       8.957  -3.794  26.433  0.00  0.00    +0.210 HD
ENDBRANCH   2  11
BRANCH   4  13
ATOM     13  O   UNL     1       4.155  -1.936  26.919  0.00  0.00    -0.344 OA
BRANCH  13  14
ATOM     14  C   UNL     1       3.113  -1.607  27.825  0.00  0.00    +0.254 C 
ATOM     15  O   UNL     1       2.881  -2.492  28.889  0.00  0.00    -0.345 OA
ATOM     16  C   UNL     1       2.931  -3.822  28.448  0.00  0.00    +0.162 C 
ATOM     17  C   UNL     1       2.791  -4.547  29.765  0.00  0.00    +0.042 C 
ATOM     18  C   UNL     1       2.057  -4.148  27.165  0.00  0.00    +0.236 C 
ATOM     19  C   UNL     1       1.961  -2.916  26.216  0.00  0.00    +0.107 C 
ATOM     20  C   UNL     1       0.737  -2.949  25.254  0.00  0.00    +0.045 C 
ATOM     21  C   UNL     1       1.883  -1.614  27.025  0.00  0.00    +0.099 C 
BRANCH  19  22
ATOM     22  O   UNL     1       3.017  -2.948  25.236  0.00  0.00    -0.385 OA
ATOM     23  H   UNL     1       3.018  -2.070  24.811  0.00  0.00    +0.210 HD
ENDBRANCH  19  22
BRANCH  18  24
ATOM     24  O   UNL     1       2.366  -5.393  26.387  0.00  0.00    -0.456 OA
BRANCH  24  25
ATOM     25  C   UNL     1       1.639  -6.564  26.358  0.00  0.00    +0.308 C 
ATOM     26  O   UNL     1       1.549  -7.402  27.251  0.00  0.00    -0.251 OA
BRANCH  25  27
ATOM     27  C   UNL     1       0.871  -6.775  25.098  0.00  0.00    +0.123 C 
BRANCH  27  28
ATOM     28  C   UNL     1       1.745  -7.089  23.850  0.00  0.00    -0.007 C 
ATOM     29  C   UNL     1       1.746  -5.852  22.963  0.00  0.00    +0.008 C 
ATOM     30  C   UNL     1       1.266  -8.255  22.989  0.00  0.00    +0.008 C 
ENDBRANCH  27  28
ENDBRANCH  25  27
ENDBRANCH  24  25
ENDBRANCH  18  24
ENDBRANCH  13  14
ENDBRANCH   4  13
BRANCH   1  31
ATOM     31  O   UNL     1       5.770  -0.533  25.250  0.00  0.00    -0.343 OA
BRANCH  31  33
ATOM     32  C   UNL     1       6.849   0.004  22.970  0.00  0.00    +0.176 C 
ATOM     33  C   UNL     1       5.511   0.682  24.358  0.00  0.00    +0.156 C 
ATOM     34  C   UNL     1       4.487   2.179  25.391  0.00  0.00    +0.028 C 
ATOM     35  C   UNL     1       3.994   4.028  25.486  0.00  0.00    +0.012 C 
ATOM     36  C   UNL     1       2.622   5.404  25.500  0.00  0.00    +0.019 C 
ATOM     37  C   UNL     1       1.249   5.900  24.778  0.00  0.00    +0.010 C 
ATOM     38  C   UNL     1       3.356   6.782  25.590  0.00  0.00    +0.140 C 
ATOM     39  C   UNL     1       4.039   6.831  24.253  0.00  0.00    +0.004 C 
ATOM     40  C   UNL     1       5.165   6.139  24.120  0.00  0.00    -0.002 C 
ATOM     41  C   UNL     1       5.193   5.036  23.185  0.00  0.00    -0.004 C 
ATOM     42  C   UNL     1       5.973   4.029  23.569  0.00  0.00    -0.023 C 
ATOM     43  C   UNL     1       6.428   2.900  22.770  0.00  0.00    +0.071 C 
ATOM     44  C   UNL     1       7.891   2.727  23.287  0.00  0.00    +0.177 C 
ATOM     45  C   UNL     1       8.187   2.017  24.661  0.00  0.00    +0.052 C 
ATOM     46  O   UNL     1       8.699   2.627  22.143  0.00  0.00    -0.461 OA
ATOM     47  C   UNL     1       9.636   1.704  22.065  0.00  0.00    +0.310 C 
ATOM     48  O   UNL     1      10.768   1.832  22.357  0.00  0.00    -0.251 OA
ATOM     49  C   UNL     1       9.006   0.478  21.456  0.00  0.00    +0.154 C 
ATOM     50  C   UNL     1       8.457  -0.256  22.605  0.00  0.00    +0.156 C 
BRANCH  50  51
ATOM     51  O   UNL     1       9.326  -0.651  23.682  0.00  0.00    -0.389 OA
ATOM     52  H   UNL     1       9.987   0.072  23.823  0.00  0.00    +0.210 HD
ENDBRANCH  50  51
BRANCH  32  54
ATOM     53  C   UNL     1       5.816  -2.835  22.027  0.00  0.00    +0.194 C 
ATOM     54  O   UNL     1       6.761  -1.608  22.399  0.00  0.00    -0.375 OA
ENDBRANCH  32  54
BRANCH  38  55
ATOM     55  O   UNL     1       4.149   6.756  26.762  0.00  0.00    -0.387 OA
ATOM     56  H   UNL     1       3.848   5.955  27.243  0.00  0.00    +0.210 HD
ENDBRANCH  38  55
BRANCH  34  57
ATOM     57  C   UNL     1       3.147   2.061  26.630  0.00  0.00    +0.076 C 
BRANCH  57  58
ATOM     58  C   UNL     1       1.417   1.952  26.481  0.00  0.00    +0.223 C 
ATOM     59  O   UNL     1       0.714   1.851  25.462  0.00  0.00    -0.301 OA
ENDBRANCH  57  58
ENDBRANCH  34  57
ENDBRANCH  31  33
ENDBRANCH   1  31
TORSDOF 16
ENDMDL
MODEL 2
REMARK VINA RESULT:      -5.5      2.679      8.777
REMARK  Name = 
REMARK  26 active torsions:
REMARK  status: ('A' for Active; 'I' for Inactive)
REMARK    1  A    between atoms: C_1  and  O_2
REMARK    2  A    between atoms: O_2  and  C_3
REMARK    3  A    between atoms: C_5  and  O_7
REMARK    4  A    between atoms: C_12  and  C_14
REMARK    5  A    between atoms: C_20  and  O_22
REMARK    6  A    between atoms: C_23  and  C_25
REMARK    7  A    between atoms: C_27  and  C_29
REMARK    8  A    between atoms: C_29  and  C_30
REMARK    9  A    between atoms: C_32  and  O_34
REMARK   10  A    between atoms: O_34  and  C_35
REMARK   11  A    between atoms: C_38  and  C_40
REMARK   12  A    between atoms: C_41  and  O_43
REMARK   13  A    between atoms: O_43  and  C_44
REMARK   14  A    between atoms: C_47  and  C_48
REMARK   15  A    between atoms: C_47  and  O_49
REMARK   16  A    between atoms: C_50  and  O_52
REMARK   17  A    between atoms: O_52  and  C_53
REMARK   18  A    between atoms: C_53  and  C_55
REMARK   19  A    between atoms: C_55  and  C_56
REMARK   20  A    between atoms: C_56  and  C_57
REMARK   21  A    between atoms: C_56  and  C_58
REMARK   22  A    between atoms: C_59  and  C_61
REMARK   23  A    between atoms: C_63  and  N_68
REMARK   24  A    between atoms: C_65  and  O_67
REMARK   25  A    between atoms: N_68  and  C_69
REMARK   26  A    between atoms: N_68  and  C_70
REMARK                            x       y       z     vdW  Elec       q    Type
REMARK                         _______ _______ _______ _____ _____    ______ ____
ROOT
ATOM      1  C   UNL     1       6.449   0.532  27.973  0.00  0.00    +0.281 C 
ATOM      2  C   UNL     1       7.028   1.690  29.040  0.00  0.00    +0.190 C 
ATOM      3  C   UNL     1       6.257   3.074  28.651  0.00  0.00    +0.121 C 
ATOM      4  C   UNL     1       7.061   3.002  27.145  0.00  0.00    +0.169 C 
ATOM      5  C   UNL     1       7.827   1.456  26.565  0.00  0.00    +0.149 C 
ATOM      6  C   UNL     1       8.771   1.053  25.432  0.00  0.00    +0.041 C 
ATOM      7  O   UNL     1       7.733   0.305  27.418  0.00  0.00    -0.343 OA
ENDROOT
BRANCH   3   8
ATOM      8  N   UNL     1       4.998   4.098  29.374  0.00  0.00    -0.301 NA
ATOM      9  C   UNL     1       3.787   3.538  29.940  0.00  0.00    +0.105 C 
ATOM     10  C   UNL     1       4.728   5.632  29.417  0.00  0.00    +0.105 C 
ENDBRANCH   3   8
BRANCH   2  11
ATOM     11  O   UNL     1       7.315   1.063  30.320  0.00  0.00    -0.385 OA
ATOM     12  H   UNL     1       7.162   0.110  30.195  0.00  0.00    +0.210 HD
ENDBRANCH   2  11
BRANCH   4  13
ATOM     13  O   UNL     1       6.007   3.293  26.191  0.00  0.00    -0.344 OA
BRANCH  13  14
ATOM     14  C   UNL     1       6.038   4.641  25.746  0.00  0.00    +0.254 C 
ATOM     15  O   UNL     1       4.889   5.418  25.962  0.00  0.00    -0.345 OA
ATOM     16  C   UNL     1       3.732   4.684  25.662  0.00  0.00    +0.162 C 
ATOM     17  C   UNL     1       2.671   5.669  26.095  0.00  0.00    +0.042 C 
ATOM     18  C   UNL     1       3.734   3.953  24.254  0.00  0.00    +0.236 C 
ATOM     19  C   UNL     1       5.173   3.521  23.841  0.00  0.00    +0.107 C 
ATOM     20  C   UNL     1       5.356   3.303  22.311  0.00  0.00    +0.045 C 
ATOM     21  C   UNL     1       6.202   4.567  24.290  0.00  0.00    +0.099 C 
BRANCH  19  22
ATOM     22  O   UNL     1       5.448   2.181  24.293  0.00  0.00    -0.385 OA
ATOM     23  H   UNL     1       5.870   1.723  23.542  0.00  0.00    +0.210 HD
ENDBRANCH  19  22
BRANCH  18  24
ATOM     24  O   UNL     1       2.759   2.836  24.028  0.00  0.00    -0.456 OA
BRANCH  24  25
ATOM     25  C   UNL     1       1.546   2.902  23.378  0.00  0.00    +0.308 C 
ATOM     26  O   UNL     1       0.565   2.188  23.567  0.00  0.00    -0.251 OA
BRANCH  25  27
ATOM     27  C   UNL     1       1.454   3.992  22.366  0.00  0.00    +0.123 C 
BRANCH  27  28
ATOM     28  C   UNL     1       1.977   3.612  20.951  0.00  0.00    -0.007 C 
ATOM     29  C   UNL     1       1.604   4.741  20.001  0.00  0.00    +0.008 C 
ATOM     30  C   UNL     1       1.403   2.325  20.362  0.00  0.00    +0.008 C 
ENDBRANCH  27  28
ENDBRANCH  25  27
ENDBRANCH  24  25
ENDBRANCH  18  24
ENDBRANCH  13  14
ENDBRANCH   4  13
BRANCH   1  31
ATOM     31  O   UNL     1       5.485   0.675  26.678  0.00  0.00    -0.343 OA
BRANCH  31  33
ATOM     32  C   UNL     1       3.126  -0.199  27.243  0.00  0.00    +0.176 C 
ATOM     33  C   UNL     1       4.690  -0.407  25.945  0.00  0.00    +0.156 C 
ATOM     34  C   UNL     1       5.908  -1.494  24.644  0.00  0.00    +0.028 C 
ATOM     35  C   UNL     1       6.150  -3.094  23.617  0.00  0.00    +0.012 C 
ATOM     36  C   UNL     1       6.390  -3.969  21.899  0.00  0.00    +0.019 C 
ATOM     37  C   UNL     1       5.856  -4.017  20.361  0.00  0.00    +0.010 C 
ATOM     38  C   UNL     1       6.463  -5.507  22.174  0.00  0.00    +0.140 C 
ATOM     39  C   UNL     1       5.061  -5.783  22.635  0.00  0.00    +0.004 C 
ATOM     40  C   UNL     1       4.765  -5.480  23.895  0.00  0.00    -0.002 C 
ATOM     41  C   UNL     1       3.779  -4.453  24.148  0.00  0.00    -0.004 C 
ATOM     42  C   UNL     1       4.021  -3.737  25.243  0.00  0.00    -0.023 C 
ATOM     43  C   UNL     1       3.120  -2.818  25.922  0.00  0.00    +0.071 C 
ATOM     44  C   UNL     1       3.456  -3.107  27.420  0.00  0.00    +0.177 C 
ATOM     45  C   UNL     1       4.749  -2.512  28.090  0.00  0.00    +0.052 C 
ATOM     46  O   UNL     1       2.223  -3.279  28.069  0.00  0.00    -0.461 OA
ATOM     47  C   UNL     1       1.993  -2.698  29.229  0.00  0.00    +0.310 C 
ATOM     48  O   UNL     1       2.158  -3.172  30.292  0.00  0.00    -0.251 OA
ATOM     49  C   UNL     1       1.400  -1.343  28.940  0.00  0.00    +0.154 C 
ATOM     50  C   UNL     1       2.566  -0.461  28.794  0.00  0.00    +0.156 C 
BRANCH  50  51
ATOM     51  O   UNL     1       3.515  -0.348  29.870  0.00  0.00    -0.389 OA
ATOM     52  H   UNL     1       3.979  -1.217  29.962  0.00  0.00    +0.210 HD
ENDBRANCH  50  51
BRANCH  32  54
ATOM     53  C   UNL     1       1.400   2.454  27.219  0.00  0.00    +0.194 C 
ATOM     54  O   UNL     1       2.489   1.353  27.590  0.00  0.00    -0.375 OA
ENDBRANCH  32  54
BRANCH  38  55
ATOM     55  O   UNL     1       7.534  -5.718  23.075  0.00  0.00    -0.387 OA
ATOM     56  H   UNL     1       7.350  -5.106  23.821  0.00  0.00    +0.210 HD
ENDBRANCH  38  55
BRANCH  34  57
ATOM     57  C   UNL     1       7.285  -0.948  23.572  0.00  0.00    +0.076 C 
BRANCH  57  58
ATOM     58  C   UNL     1       7.380   0.223  22.290  0.00  0.00    +0.223 C 
ATOM     59  O   UNL     1       8.346   0.903  21.907  0.00  0.00    -0.301 OA
ENDBRANCH  57  58
ENDBRANCH  34  57
ENDBRANCH  31  33
ENDBRANCH   1  31
TORSDOF 16
ENDMDL
MODEL 3
REMARK VINA RESULT:      -5.3      2.630      6.295
REMARK  Name = 
REMARK  26 active torsions:
REMARK  status: ('A' for Active; 'I' for Inactive)
REMARK    1  A    between atoms: C_1  and  O_2
REMARK    2  A    between atoms: O_2  and  C_3
REMARK    3  A    between atoms: C_5  and  O_7
REMARK    4  A    between atoms: C_12  and  C_14
REMARK    5  A    between atoms: C_20  and  O_22
REMARK    6  A    between atoms: C_23  and  C_25
REMARK    7  A    between atoms: C_27  and  C_29
REMARK    8  A    between atoms: C_29  and  C_30
REMARK    9  A    between atoms: C_32  and  O_34
REMARK   10  A    between atoms: O_34  and  C_35
REMARK   11  A    between atoms: C_38  and  C_40
REMARK   12  A    between atoms: C_41  and  O_43
REMARK   13  A    between atoms: O_43  and  C_44
REMARK   14  A    between atoms: C_47  and  C_48
REMARK   15  A    between atoms: C_47  and  O_49
REMARK   16  A    between atoms: C_50  and  O_52
REMARK   17  A    between atoms: O_52  and  C_53
REMARK   18  A    between atoms: C_53  and  C_55
REMARK   19  A    between atoms: C_55  and  C_56
REMARK   20  A    between atoms: C_56  and  C_57
REMARK   21  A    between atoms: C_56  and  C_58
REMARK   22  A    between atoms: C_59  and  C_61
REMARK   23  A    between atoms: C_63  and  N_68
REMARK   24  A    between atoms: C_65  and  O_67
REMARK   25  A    between atoms: N_68  and  C_69
REMARK   26  A    between atoms: N_68  and  C_70
REMARK                            x       y       z     vdW  Elec       q    Type
REMARK                         _______ _______ _______ _____ _____    ______ ____
ROOT
ATOM      1  C   UNL     1       4.594  -1.914  25.096  0.00  0.00    +0.281 C 
ATOM      2  C   UNL     1       3.410  -2.630  26.046  0.00  0.00    +0.190 C 
ATOM      3  C   UNL     1       2.966  -1.496  27.130  0.00  0.00    +0.121 C 
ATOM      4  C   UNL     1       4.555  -1.586  27.752  0.00  0.00    +0.169 C 
ATOM      5  C   UNL     1       5.899  -2.342  26.784  0.00  0.00    +0.149 C 
ATOM      6  C   UNL     1       7.338  -2.783  27.056  0.00  0.00    +0.041 C 
ATOM      7  O   UNL     1       5.574  -2.861  25.486  0.00  0.00    -0.343 OA
ENDROOT
BRANCH   3   8
ATOM      8  N   UNL     1       1.542  -0.474  27.420  0.00  0.00    -0.301 NA
ATOM      9  C   UNL     1       0.653  -0.700  28.541  0.00  0.00    +0.105 C 
ATOM     10  C   UNL     1       0.803   0.627  26.602  0.00  0.00    +0.105 C 
ENDBRANCH   3   8
BRANCH   2  11
ATOM     11  O   UNL     1       2.637  -3.555  25.233  0.00  0.00    -0.385 OA
ATOM     12  H   UNL     1       1.937  -3.025  24.812  0.00  0.00    +0.210 HD
ENDBRANCH   2  11
BRANCH   4  13
ATOM     13  O   UNL     1       4.930  -0.192  27.911  0.00  0.00    -0.344 OA
BRANCH  13  14
ATOM     14  C   UNL     1       4.465   0.356  29.134  0.00  0.00    +0.254 C 
ATOM     15  O   UNL     1       3.707   1.535  29.066  0.00  0.00    -0.345 OA
ATOM     16  C   UNL     1       4.272   2.435  28.150  0.00  0.00    +0.162 C 
ATOM     17  C   UNL     1       3.226   3.524  28.164  0.00  0.00    +0.042 C 
ATOM     18  C   UNL     1       5.826   2.702  28.327  0.00  0.00    +0.236 C 
ATOM     19  C   UNL     1       6.559   1.443  28.880  0.00  0.00    +0.107 C 
ATOM     20  C   UNL     1       7.916   1.753  29.578  0.00  0.00    +0.045 C 
ATOM     21  C   UNL     1       5.673   0.702  29.891  0.00  0.00    +0.099 C 
BRANCH  19  22
ATOM     22  O   UNL     1       7.045   0.624  27.799  0.00  0.00    -0.385 OA
ATOM     23  H   UNL     1       6.259   0.363  27.284  0.00  0.00    +0.210 HD
ENDBRANCH  19  22
BRANCH  18  24
ATOM     24  O   UNL     1       6.585   3.295  27.176  0.00  0.00    -0.456 OA
BRANCH  24  25
ATOM     25  C   UNL     1       6.744   4.631  26.878  0.00  0.00    +0.308 C 
ATOM     26  O   UNL     1       5.934   5.533  27.070  0.00  0.00    -0.251 OA
BRANCH  25  27
ATOM     27  C   UNL     1       8.070   4.971  26.289  0.00  0.00    +0.123 C 
BRANCH  27  28
ATOM     28  C   UNL     1       8.379   6.494  26.220  0.00  0.00    -0.007 C 
ATOM     29  C   UNL     1       9.415   6.707  25.126  0.00  0.00    +0.008 C 
ATOM     30  C   UNL     1       8.947   7.108  27.498  0.00  0.00    +0.008 C 
ENDBRANCH  27  28
ENDBRANCH  25  27
ENDBRANCH  24  25
ENDBRANCH  18  24
ENDBRANCH  13  14
ENDBRANCH   4  13
BRANCH   1  31
ATOM     31  O   UNL     1       5.350  -0.488  25.246  0.00  0.00    -0.343 OA
BRANCH  31  33
ATOM     32  C   UNL     1       7.342  -0.673  23.618  0.00  0.00    +0.176 C 
ATOM     33  C   UNL     1       5.759   0.504  24.156  0.00  0.00    +0.156 C 
ATOM     34  C   UNL     1       4.788   2.336  24.392  0.00  0.00    +0.028 C 
ATOM     35  C   UNL     1       4.744   4.206  23.975  0.00  0.00    +0.012 C 
ATOM     36  C   UNL     1       3.843   5.730  23.174  0.00  0.00    +0.019 C 
ATOM     37  C   UNL     1       3.030   6.234  21.856  0.00  0.00    +0.010 C 
ATOM     38  C   UNL     1       4.780   6.968  23.364  0.00  0.00    +0.140 C 
ATOM     39  C   UNL     1       5.930   6.597  22.472  0.00  0.00    +0.004 C 
ATOM     40  C   UNL     1       6.820   5.736  22.955  0.00  0.00    -0.002 C 
ATOM     41  C   UNL     1       6.961   4.450  22.309  0.00  0.00    -0.004 C 
ATOM     42  C   UNL     1       7.264   3.462  23.146  0.00  0.00    -0.023 C 
ATOM     43  C   UNL     1       7.723   2.121  22.811  0.00  0.00    +0.071 C 
ATOM     44  C   UNL     1       8.774   1.866  23.938  0.00  0.00    +0.177 C 
ATOM     45  C   UNL     1       8.323   1.470  25.393  0.00  0.00    +0.052 C 
ATOM     46  O   UNL     1       9.923   1.379  23.294  0.00  0.00    -0.461 OA
ATOM     47  C   UNL     1      10.570   0.339  23.779  0.00  0.00    +0.310 C 
ATOM     48  O   UNL     1      11.487   0.367  24.514  0.00  0.00    -0.251 OA
ATOM     49  C   UNL     1       9.968  -0.892  23.152  0.00  0.00    +0.154 C 
ATOM     50  C   UNL     1       8.852  -1.244  24.041  0.00  0.00    +0.156 C 
BRANCH  50  51
ATOM     51  O   UNL     1       9.101  -1.492  25.437  0.00  0.00    -0.389 OA
ATOM     52  H   UNL     1       8.649  -2.336  25.683  0.00  0.00    +0.210 HD
ENDBRANCH  50  51
BRANCH  32  54
ATOM     53  C   UNL     1       6.836  -3.474  22.234  0.00  0.00    +0.194 C 
ATOM     54  O   UNL     1       7.115  -2.344  23.322  0.00  0.00    -0.375 OA
ENDBRANCH  32  54
BRANCH  38  55
ATOM     55  O   UNL     1       5.009   7.108  24.753  0.00  0.00    -0.387 OA
ATOM     56  H   UNL     1       5.959   7.348  24.821  0.00  0.00    +0.210 HD
ENDBRANCH  38  55
BRANCH  34  57
ATOM     57  C   UNL     1       3.078   2.714  24.919  0.00  0.00    +0.076 C 
BRANCH  57  58
ATOM     58  C   UNL     1       1.591   2.893  24.035  0.00  0.00    +0.223 C 
ATOM     59  O   UNL     1       1.408   3.127  22.829  0.00  0.00    -0.301 OA
ENDBRANCH  57  58
ENDBRANCH  34  57
ENDBRANCH  31  33
ENDBRANCH   1  31
TORSDOF 16
ENDMDL
MODEL 4
REMARK VINA RESULT:      -5.1      2.585      9.480
REMARK  Name = 
REMARK  26 active torsions:
REMARK  status: ('A' for Active; 'I' for Inactive)
REMARK    1  A    between atoms: C_1  and  O_2
REMARK    2  A    between atoms: O_2  and  C_3
REMARK    3  A    between atoms: C_5  and  O_7
REMARK    4  A    between atoms: C_12  and  C_14
REMARK    5  A    between atoms: C_20  and  O_22
REMARK    6  A    between atoms: C_23  and  C_25
REMARK    7  A    between atoms: C_27  and  C_29
REMARK    8  A    between atoms: C_29  and  C_30
REMARK    9  A    between atoms: C_32  and  O_34
REMARK   10  A    between atoms: O_34  and  C_35
REMARK   11  A    between atoms: C_38  and  C_40
REMARK   12  A    between atoms: C_41  and  O_43
REMARK   13  A    between atoms: O_43  and  C_44
REMARK   14  A    between atoms: C_47  and  C_48
REMARK   15  A    between atoms: C_47  and  O_49
REMARK   16  A    between atoms: C_50  and  O_52
REMARK   17  A    between atoms: O_52  and  C_53
REMARK   18  A    between atoms: C_53  and  C_55
REMARK   19  A    between atoms: C_55  and  C_56
REMARK   20  A    between atoms: C_56  and  C_57
REMARK   21  A    between atoms: C_56  and  C_58
REMARK   22  A    between atoms: C_59  and  C_61
REMARK   23  A    between atoms: C_63  and  N_68
REMARK   24  A    between atoms: C_65  and  O_67
REMARK   25  A    between atoms: N_68  and  C_69
REMARK   26  A    between atoms: N_68  and  C_70
REMARK                            x       y       z     vdW  Elec       q    Type
REMARK                         _______ _______ _______ _____ _____    ______ ____
ROOT
ATOM      1  C   UNL     1       5.629   0.630  28.075  0.00  0.00    +0.281 C 
ATOM      2  C   UNL     1       6.286   1.962  28.858  0.00  0.00    +0.190 C 
ATOM      3  C   UNL     1       6.425   3.121  27.718  0.00  0.00    +0.121 C 
ATOM      4  C   UNL     1       7.553   2.102  26.938  0.00  0.00    +0.169 C 
ATOM      5  C   UNL     1       7.658   0.332  27.348  0.00  0.00    +0.149 C 
ATOM      6  C   UNL     1       8.624  -0.814  27.042  0.00  0.00    +0.041 C 
ATOM      7  O   UNL     1       6.763  -0.174  28.350  0.00  0.00    -0.343 OA
ENDROOT
BRANCH   3   8
ATOM      8  N   UNL     1       5.626   4.661  27.339  0.00  0.00    -0.301 NA
ATOM      9  C   UNL     1       4.262   4.716  26.851  0.00  0.00    +0.105 C 
ATOM     10  C   UNL     1       6.104   6.138  27.209  0.00  0.00    +0.105 C 
ENDBRANCH   3   8
BRANCH   2  11
ATOM     11  O   UNL     1       5.805   1.999  30.229  0.00  0.00    -0.385 OA
ATOM     12  H   UNL     1       6.591   2.123  30.789  0.00  0.00    +0.210 HD
ENDBRANCH   2  11
BRANCH   4  13
ATOM     13  O   UNL     1       7.141   2.154  25.547  0.00  0.00    -0.344 OA
BRANCH  13  14
ATOM     14  C   UNL     1       8.244   2.251  24.659  0.00  0.00    +0.254 C 
ATOM     15  O   UNL     1       8.912   3.483  24.594  0.00  0.00    -0.345 OA
ATOM     16  C   UNL     1       7.995   4.544  24.572  0.00  0.00    +0.162 C 
ATOM     17  C   UNL     1       8.942   5.719  24.637  0.00  0.00    +0.042 C 
ATOM     18  C   UNL     1       6.825   4.412  23.508  0.00  0.00    +0.236 C 
ATOM     19  C   UNL     1       6.442   2.921  23.268  0.00  0.00    +0.107 C 
ATOM     20  C   UNL     1       5.728   2.659  21.910  0.00  0.00    +0.045 C 
ATOM     21  C   UNL     1       7.689   2.027  23.320  0.00  0.00    +0.099 C 
BRANCH  19  22
ATOM     22  O   UNL     1       5.383   2.520  24.159  0.00  0.00    -0.385 OA
ATOM     23  H   UNL     1       4.894   1.814  23.697  0.00  0.00    +0.210 HD
ENDBRANCH  19  22
BRANCH  18  24
ATOM     24  O   UNL     1       5.596   5.253  23.691  0.00  0.00    -0.456 OA
BRANCH  24  25
ATOM     25  C   UNL     1       5.134   6.252  22.861  0.00  0.00    +0.308 C 
ATOM     26  O   UNL     1       5.806   7.098  22.277  0.00  0.00    -0.251 OA
BRANCH  25  27
ATOM     27  C   UNL     1       3.658   6.244  22.658  0.00  0.00    +0.123 C 
BRANCH  27  28
ATOM     28  C   UNL     1       2.959   4.902  23.020  0.00  0.00    -0.007 C 
ATOM     29  C   UNL     1       2.388   4.317  21.736  0.00  0.00    +0.008 C 
ATOM     30  C   UNL     1       1.805   5.010  24.014  0.00  0.00    +0.008 C 
ENDBRANCH  27  28
ENDBRANCH  25  27
ENDBRANCH  24  25
ENDBRANCH  18  24
ENDBRANCH  13  14
ENDBRANCH   4  13
BRANCH   1  31
ATOM     31  O   UNL     1       5.337   0.367  26.503  0.00  0.00    -0.343 OA
BRANCH  31  33
ATOM     32  C   UNL     1       3.090  -0.729  27.141  0.00  0.00    +0.176 C 
ATOM     33  C   UNL     1       4.661  -0.834  25.838  0.00  0.00    +0.156 C 
ATOM     34  C   UNL     1       5.984  -1.850  24.583  0.00  0.00    +0.028 C 
ATOM     35  C   UNL     1       6.395  -3.467  23.640  0.00  0.00    +0.012 C 
ATOM     36  C   UNL     1       6.720  -4.402  21.968  0.00  0.00    +0.019 C 
ATOM     37  C   UNL     1       6.186  -4.592  20.441  0.00  0.00    +0.010 C 
ATOM     38  C   UNL     1       6.963  -5.906  22.324  0.00  0.00    +0.140 C 
ATOM     39  C   UNL     1       5.602  -6.308  22.815  0.00  0.00    +0.004 C 
ATOM     40  C   UNL     1       5.282  -5.972  24.060  0.00  0.00    -0.002 C 
ATOM     41  C   UNL     1       4.190  -5.047  24.269  0.00  0.00    -0.004 C 
ATOM     42  C   UNL     1       4.358  -4.251  25.322  0.00  0.00    -0.023 C 
ATOM     43  C   UNL     1       3.365  -3.400  25.961  0.00  0.00    +0.071 C 
ATOM     44  C   UNL     1       3.739  -3.569  27.469  0.00  0.00    +0.177 C 
ATOM     45  C   UNL     1       4.963  -2.800  28.091  0.00  0.00    +0.052 C 
ATOM     46  O   UNL     1       2.536  -3.839  28.139  0.00  0.00    -0.461 OA
ATOM     47  C   UNL     1       2.249  -3.225  29.269  0.00  0.00    +0.310 C 
ATOM     48  O   UNL     1       2.472  -3.620  30.354  0.00  0.00    -0.251 OA
ATOM     49  C   UNL     1       1.510  -1.961  28.916  0.00  0.00    +0.154 C 
ATOM     50  C   UNL     1       2.571  -0.965  28.709  0.00  0.00    +0.156 C 
BRANCH  50  51
ATOM     51  O   UNL     1       3.508  -0.691  29.767  0.00  0.00    -0.389 OA
ATOM     52  H   UNL     1       3.575  -1.499  30.334  0.00  0.00    +0.210 HD
ENDBRANCH  50  51
BRANCH  32  54
ATOM     53  C   UNL     1       1.702   2.090  26.759  0.00  0.00    +0.194 C 
ATOM     54  O   UNL     1       2.289   0.761  27.412  0.00  0.00    -0.375 OA
ENDBRANCH  32  54
BRANCH  38  55
ATOM     55  O   UNL     1       8.055  -5.950  23.223  0.00  0.00    -0.387 OA
ATOM     56  H   UNL     1       8.056  -5.066  23.650  0.00  0.00    +0.210 HD
ENDBRANCH  38  55
BRANCH  34  57
ATOM     57  C   UNL     1       7.287  -1.216  23.468  0.00  0.00    +0.076 C 
BRANCH  57  58
ATOM     58  C   UNL     1       9.004  -1.483  23.399  0.00  0.00    +0.223 C 
ATOM     59  O   UNL     1       9.938  -0.674  23.524  0.00  0.00    -0.301 OA
ENDBRANCH  57  58
ENDBRANCH  34  57
ENDBRANCH  31  33
ENDBRANCH   1  31
TORSDOF 16
ENDMDL
MODEL 5
REMARK VINA RESULT:      -4.8      2.144      3.195
REMARK  Name = 
REMARK  26 active torsions:
REMARK  status: ('A' for Active; 'I' for Inactive)
REMARK    1  A    between atoms: C_1  and  O_2
REMARK    2  A    between atoms: O_2  and  C_3
REMARK    3  A    between atoms: C_5  and  O_7
REMARK    4  A    between atoms: C_12  and  C_14
REMARK    5  A    between atoms: C_20  and  O_22
REMARK    6  A    between atoms: C_23  and  C_25
REMARK    7  A    between atoms: C_27  and  C_29
REMARK    8  A    between atoms: C_29  and  C_30
REMARK    9  A    between atoms: C_32  and  O_34
REMARK   10  A    between atoms: O_34  and  C_35
REMARK   11  A    between atoms: C_38  and  C_40
REMARK   12  A    between atoms: C_41  and  O_43
REMARK   13  A    between atoms: O_43  and  C_44
REMARK   14  A    between atoms: C_47  and  C_48
REMARK   15  A    between atoms: C_47  and  O_49
REMARK   16  A    between atoms: C_50  and  O_52
REMARK   17  A    between atoms: O_52  and  C_53
REMARK   18  A    between atoms: C_53  and  C_55
REMARK   19  A    between atoms: C_55  and  C_56
REMARK   20  A    between atoms: C_56  and  C_57
REMARK   21  A    between atoms: C_56  and  C_58
REMARK   22  A    between atoms: C_59  and  C_61
REMARK   23  A    between atoms: C_63  and  N_68
REMARK   24  A    between atoms: C_65  and  O_67
REMARK   25  A    between atoms: N_68  and  C_69
REMARK   26  A    between atoms: N_68  and  C_70
REMARK                            x       y       z     vdW  Elec       q    Type
REMARK                         _______ _______ _______ _____ _____    ______ ____
ROOT
ATOM      1  C   UNL     1       8.250   0.145  24.473  0.00  0.00    +0.281 C 
ATOM      2  C   UNL     1       9.143  -1.259  24.256  0.00  0.00    +0.190 C 
ATOM      3  C   UNL     1       8.054  -2.472  24.201  0.00  0.00    +0.121 C 
ATOM      4  C   UNL     1       7.672  -2.092  25.822  0.00  0.00    +0.169 C 
ATOM      5  C   UNL     1       8.157  -0.496  26.550  0.00  0.00    +0.149 C 
ATOM      6  C   UNL     1       8.186   0.110  27.954  0.00  0.00    +0.041 C 
ATOM      7  O   UNL     1       8.871   0.427  25.716  0.00  0.00    -0.343 OA
ENDROOT
BRANCH   3   8
ATOM      8  N   UNL     1       7.404  -3.568  22.963  0.00  0.00    -0.301 NA
ATOM      9  C   UNL     1       6.383  -3.146  22.026  0.00  0.00    +0.105 C 
ATOM     10  C   UNL     1       7.524  -5.097  22.687  0.00  0.00    +0.105 C 
ENDBRANCH   3   8
BRANCH   2  11
ATOM     11  O   UNL     1      10.313  -0.964  23.444  0.00  0.00    -0.385 OA
ATOM     12  H   UNL     1      10.117  -1.303  22.553  0.00  0.00    +0.210 HD
ENDBRANCH   2  11
BRANCH   4  13
ATOM     13  O   UNL     1       6.221  -2.098  25.832  0.00  0.00    -0.344 OA
BRANCH  13  14
ATOM     14  C   UNL     1       5.690  -2.451  27.100  0.00  0.00    +0.254 C 
ATOM     15  O   UNL     1       6.080  -3.685  27.642  0.00  0.00    -0.345 OA
ATOM     16  C   UNL     1       6.069  -4.684  26.657  0.00  0.00    +0.162 C 
ATOM     17  C   UNL     1       6.639  -5.841  27.443  0.00  0.00    +0.042 C 
ATOM     18  C   UNL     1       4.741  -4.775  25.793  0.00  0.00    +0.236 C 
ATOM     19  C   UNL     1       4.077  -3.375  25.625  0.00  0.00    +0.107 C 
ATOM     20  C   UNL     1       2.559  -3.429  25.284  0.00  0.00    +0.045 C 
ATOM     21  C   UNL     1       4.239  -2.542  26.904  0.00  0.00    +0.099 C 
BRANCH  19  22
ATOM     22  O   UNL     1       4.553  -2.729  24.428  0.00  0.00    -0.385 OA
ATOM     23  H   UNL     1       5.139  -2.009  24.724  0.00  0.00    +0.210 HD
ENDBRANCH  19  22
BRANCH  18  24
ATOM     24  O   UNL     1       4.791  -5.499  24.480  0.00  0.00    -0.456 OA
BRANCH  24  25
ATOM     25  C   UNL     1       3.984  -6.535  24.065  0.00  0.00    +0.308 C 
ATOM     26  O   UNL     1       3.941  -7.671  24.529  0.00  0.00    -0.251 OA
BRANCH  25  27
ATOM     27  C   UNL     1       3.060  -6.182  22.950  0.00  0.00    +0.123 C 
BRANCH  27  28
ATOM     28  C   UNL     1       1.567  -6.532  23.207  0.00  0.00    -0.007 C 
ATOM     29  C   UNL     1       1.209  -7.712  22.315  0.00  0.00    +0.008 C 
ATOM     30  C   UNL     1       0.568  -5.420  22.897  0.00  0.00    +0.008 C 
ENDBRANCH  27  28
ENDBRANCH  25  27
ENDBRANCH  24  25
ENDBRANCH  18  24
ENDBRANCH  13  14
ENDBRANCH   4  13
BRANCH   1  31
ATOM     31  O   UNL     1       6.671   0.358  24.770  0.00  0.00    -0.343 OA
BRANCH  31  33
ATOM     32  C   UNL     1       7.000   2.459  23.309  0.00  0.00    +0.176 C 
ATOM     33  C   UNL     1       5.866   1.658  24.810  0.00  0.00    +0.156 C 
ATOM     34  C   UNL     1       4.699   1.777  26.537  0.00  0.00    +0.028 C 
ATOM     35  C   UNL     1       3.708   2.888  27.743  0.00  0.00    +0.012 C 
ATOM     36  C   UNL     1       2.027   3.371  28.588  0.00  0.00    +0.019 C 
ATOM     37  C   UNL     1       0.443   3.632  28.312  0.00  0.00    +0.010 C 
ATOM     38  C   UNL     1       2.314   4.600  29.511  0.00  0.00    +0.140 C 
ATOM     39  C   UNL     1       2.633   5.656  28.492  0.00  0.00    +0.004 C 
ATOM     40  C   UNL     1       3.855   5.648  27.970  0.00  0.00    -0.002 C 
ATOM     41  C   UNL     1       4.002   5.389  26.555  0.00  0.00    -0.004 C 
ATOM     42  C   UNL     1       5.114   4.725  26.246  0.00  0.00    -0.023 C 
ATOM     43  C   UNL     1       5.695   4.529  24.926  0.00  0.00    +0.071 C 
ATOM     44  C   UNL     1       7.220   4.654  25.240  0.00  0.00    +0.177 C 
ATOM     45  C   UNL     1       8.015   3.462  25.891  0.00  0.00    +0.052 C 
ATOM     46  O   UNL     1       7.742   5.538  24.281  0.00  0.00    -0.461 OA
ATOM     47  C   UNL     1       8.871   5.259  23.661  0.00  0.00    +0.310 C 
ATOM     48  O   UNL     1       9.947   5.610  23.979  0.00  0.00    -0.251 OA
ATOM     49  C   UNL     1       8.518   4.477  22.423  0.00  0.00    +0.154 C 
ATOM     50  C   UNL     1       8.486   3.078  22.874  0.00  0.00    +0.156 C 
BRANCH  50  51
ATOM     51  O   UNL     1       9.653   2.500  23.489  0.00  0.00    -0.389 OA
ATOM     52  H   UNL     1      10.115   1.948  22.810  0.00  0.00    +0.210 HD
ENDBRANCH  50  51
BRANCH  32  54
ATOM     53  C   UNL     1       8.334   0.796  20.970  0.00  0.00    +0.194 C 
ATOM     54  O   UNL     1       7.274   1.575  21.868  0.00  0.00    -0.375 OA
ENDBRANCH  32  54
BRANCH  38  55
ATOM     55  O   UNL     1       3.319   4.208  30.427  0.00  0.00    -0.387 OA
ATOM     56  H   UNL     1       3.590   3.314  30.124  0.00  0.00    +0.210 HD
ENDBRANCH  38  55
BRANCH  34  57
ATOM     57  C   UNL     1       3.770   0.481  27.431  0.00  0.00    +0.076 C 
BRANCH  57  58
ATOM     58  C   UNL     1       2.069   0.153  27.587  0.00  0.00    +0.223 C 
ATOM     59  O   UNL     1       1.151   0.320  26.768  0.00  0.00    -0.301 OA
ENDBRANCH  57  58
ENDBRANCH  34  57
ENDBRANCH  31  33
ENDBRANCH   1  31
TORSDOF 16
ENDMDL
MODEL 6
REMARK VINA RESULT:      -4.5      2.554      8.774
REMARK  Name = 
REMARK  26 active torsions:
REMARK  status: ('A' for Active; 'I' for Inactive)
REMARK    1  A    between atoms: C_1  and  O_2
REMARK    2  A    between atoms: O_2  and  C_3
REMARK    3  A    between atoms: C_5  and  O_7
REMARK    4  A    between atoms: C_12  and  C_14
REMARK    5  A    between atoms: C_20  and  O_22
REMARK    6  A    between atoms: C_23  and  C_25
REMARK    7  A    between atoms: C_27  and  C_29
REMARK    8  A    between atoms: C_29  and  C_30
REMARK    9  A    between atoms: C_32  and  O_34
REMARK   10  A    between atoms: O_34  and  C_35
REMARK   11  A    between atoms: C_38  and  C_40
REMARK   12  A    between atoms: C_41  and  O_43
REMARK   13  A    between atoms: O_43  and  C_44
REMARK   14  A    between atoms: C_47  and  C_48
REMARK   15  A    between atoms: C_47  and  O_49
REMARK   16  A    between atoms: C_50  and  O_52
REMARK   17  A    between atoms: O_52  and  C_53
REMARK   18  A    between atoms: C_53  and  C_55
REMARK   19  A    between atoms: C_55  and  C_56
REMARK   20  A    between atoms: C_56  and  C_57
REMARK   21  A    between atoms: C_56  and  C_58
REMARK   22  A    between atoms: C_59  and  C_61
REMARK   23  A    between atoms: C_63  and  N_68
REMARK   24  A    between atoms: C_65  and  O_67
REMARK   25  A    between atoms: N_68  and  C_69
REMARK   26  A    between atoms: N_68  and  C_70
REMARK                            x       y       z     vdW  Elec       q    Type
REMARK                         _______ _______ _______ _____ _____    ______ ____
ROOT
ATOM      1  C   UNL     1       5.828   1.245  28.321  0.00  0.00    +0.281 C 
ATOM      2  C   UNL     1       6.439   2.768  28.673  0.00  0.00    +0.190 C 
ATOM      3  C   UNL     1       6.551   3.541  27.241  0.00  0.00    +0.121 C 
ATOM      4  C   UNL     1       7.715   2.372  26.795  0.00  0.00    +0.169 C 
ATOM      5  C   UNL     1       7.870   0.806  27.711  0.00  0.00    +0.149 C 
ATOM      6  C   UNL     1       8.872  -0.348  27.756  0.00  0.00    +0.041 C 
ATOM      7  O   UNL     1       6.983   0.593  28.819  0.00  0.00    -0.343 OA
ENDROOT
BRANCH   3   8
ATOM      8  N   UNL     1       5.709   4.874  26.424  0.00  0.00    -0.301 NA
ATOM      9  C   UNL     1       4.654   5.626  27.073  0.00  0.00    +0.105 C 
ATOM     10  C   UNL     1       5.673   5.411  24.961  0.00  0.00    +0.105 C 
ENDBRANCH   3   8
BRANCH   2  11
ATOM     11  O   UNL     1       5.946   3.194  29.973  0.00  0.00    -0.385 OA
ATOM     12  H   UNL     1       5.001   2.965  29.993  0.00  0.00    +0.210 HD
ENDBRANCH   2  11
BRANCH   4  13
ATOM     13  O   UNL     1       7.312   1.997  25.452  0.00  0.00    -0.344 OA
BRANCH  13  14
ATOM     14  C   UNL     1       7.990   2.745  24.455  0.00  0.00    +0.254 C 
ATOM     15  O   UNL     1       7.345   2.904  23.218  0.00  0.00    -0.345 OA
ATOM     16  C   UNL     1       6.758   1.699  22.807  0.00  0.00    +0.162 C 
ATOM     17  C   UNL     1       6.039   2.163  21.562  0.00  0.00    +0.042 C 
ATOM     18  C   UNL     1       7.705   0.427  22.856  0.00  0.00    +0.236 C 
ATOM     19  C   UNL     1       8.749   0.541  24.008  0.00  0.00    +0.107 C 
ATOM     20  C   UNL     1      10.013  -0.345  23.809  0.00  0.00    +0.045 C 
ATOM     21  C   UNL     1       9.218   1.994  24.170  0.00  0.00    +0.099 C 
BRANCH  19  22
ATOM     22  O   UNL     1       8.240  -0.061  25.214  0.00  0.00    -0.385 OA
ATOM     23  H   UNL     1       8.396   0.587  25.925  0.00  0.00    +0.210 HD
ENDBRANCH  19  22
BRANCH  18  24
ATOM     24  O   UNL     1       7.074  -0.934  22.846  0.00  0.00    -0.456 OA
BRANCH  24  25
ATOM     25  C   UNL     1       7.543  -2.069  22.220  0.00  0.00    +0.308 C 
ATOM     26  O   UNL     1       8.643  -2.225  21.699  0.00  0.00    -0.251 OA
BRANCH  25  27
ATOM     27  C   UNL     1       6.586  -3.211  22.230  0.00  0.00    +0.123 C 
BRANCH  27  28
ATOM     28  C   UNL     1       7.206  -4.582  21.835  0.00  0.00    -0.007 C 
ATOM     29  C   UNL     1       6.148  -5.366  21.072  0.00  0.00    +0.008 C 
ATOM     30  C   UNL     1       7.656  -5.460  23.001  0.00  0.00    +0.008 C 
ENDBRANCH  27  28
ENDBRANCH  25  27
ENDBRANCH  24  25
ENDBRANCH  18  24
ENDBRANCH  13  14
ENDBRANCH   4  13
BRANCH   1  31
ATOM     31  O   UNL     1       5.555   0.519  26.898  0.00  0.00    -0.343 OA
BRANCH  31  33
ATOM     32  C   UNL     1       2.997   0.847  26.948  0.00  0.00    +0.176 C 
ATOM     33  C   UNL     1       4.475  -0.500  26.529  0.00  0.00    +0.156 C 
ATOM     34  C   UNL     1       5.263  -2.428  26.397  0.00  0.00    +0.028 C 
ATOM     35  C   UNL     1       4.925  -4.315  26.388  0.00  0.00    +0.012 C 
ATOM     36  C   UNL     1       4.988  -6.030  25.479  0.00  0.00    +0.019 C 
ATOM     37  C   UNL     1       4.695  -6.781  24.064  0.00  0.00    +0.010 C 
ATOM     38  C   UNL     1       4.353  -7.085  26.444  0.00  0.00    +0.140 C 
ATOM     39  C   UNL     1       2.921  -6.630  26.463  0.00  0.00    +0.004 C 
ATOM     40  C   UNL     1       2.621  -5.599  27.246  0.00  0.00    -0.002 C 
ATOM     41  C   UNL     1       2.152  -4.377  26.632  0.00  0.00    -0.004 C 
ATOM     42  C   UNL     1       2.532  -3.276  27.275  0.00  0.00    -0.023 C 
ATOM     43  C   UNL     1       2.035  -1.920  27.088  0.00  0.00    +0.071 C 
ATOM     44  C   UNL     1       2.012  -1.395  28.560  0.00  0.00    +0.177 C 
ATOM     45  C   UNL     1       3.334  -0.933  29.276  0.00  0.00    +0.052 C 
ATOM     46  O   UNL     1       0.751  -0.803  28.741  0.00  0.00    -0.461 OA
ATOM     47  C   UNL     1       0.643   0.367  29.336  0.00  0.00    +0.310 C 
ATOM     48  O   UNL     1       0.445   0.553  30.480  0.00  0.00    -0.251 OA
ATOM     49  C   UNL     1       0.738   1.423  28.265  0.00  0.00    +0.154 C 
ATOM     50  C   UNL     1       2.179   1.683  28.139  0.00  0.00    +0.156 C 
BRANCH  50  51
ATOM     51  O   UNL     1       2.932   2.103  29.292  0.00  0.00    -0.389 OA
ATOM     52  H   UNL     1       2.619   3.005  29.550  0.00  0.00    +0.210 HD
ENDBRANCH  50  51
BRANCH  32  54
ATOM     53  C   UNL     1       2.371   3.482  25.310  0.00  0.00    +0.194 C 
ATOM     54  O   UNL     1       3.054   2.427  26.288  0.00  0.00    -0.375 OA
ENDBRANCH  32  54
BRANCH  38  55
ATOM     55  O   UNL     1       5.097  -7.050  27.647  0.00  0.00    -0.387 OA
ATOM     56  H   UNL     1       5.131  -6.098  27.886  0.00  0.00    +0.210 HD
ENDBRANCH  38  55
BRANCH  34  57
ATOM     57  C   UNL     1       6.870  -3.011  25.746  0.00  0.00    +0.076 C 
BRANCH  57  58
ATOM     58  C   UNL     1       8.162  -3.929  26.463  0.00  0.00    +0.223 C 
ATOM     59  O   UNL     1       8.113  -4.949  27.170  0.00  0.00    -0.301 OA
ENDBRANCH  57  58
ENDBRANCH  34  57
ENDBRANCH  31  33
ENDBRANCH   1  31
TORSDOF 16
ENDMDL
MODEL 7
REMARK VINA RESULT:      -4.5      2.526      5.684
REMARK  Name = 
REMARK  26 active torsions:
REMARK  status: ('A' for Active; 'I' for Inactive)
REMARK    1  A    between atoms: C_1  and  O_2
REMARK    2  A    between atoms: O_2  and  C_3
REMARK    3  A    between atoms: C_5  and  O_7
REMARK    4  A    between atoms: C_12  and  C_14
REMARK    5  A    between atoms: C_20  and  O_22
REMARK    6  A    between atoms: C_23  and  C_25
REMARK    7  A    between atoms: C_27  and  C_29
REMARK    8  A    between atoms: C_29  and  C_30
REMARK    9  A    between atoms: C_32  and  O_34
REMARK   10  A    between atoms: O_34  and  C_35
REMARK   11  A    between atoms: C_38  and  C_40
REMARK   12  A    between atoms: C_41  and  O_43
REMARK   13  A    between atoms: O_43  and  C_44
REMARK   14  A    between atoms: C_47  and  C_48
REMARK   15  A    between atoms: C_47  and  O_49
REMARK   16  A    between atoms: C_50  and  O_52
REMARK   17  A    between atoms: O_52  and  C_53
REMARK   18  A    between atoms: C_53  and  C_55
REMARK   19  A    between atoms: C_55  and  C_56
REMARK   20  A    between atoms: C_56  and  C_57
REMARK   21  A    between atoms: C_56  and  C_58
REMARK   22  A    between atoms: C_59  and  C_61
REMARK   23  A    between atoms: C_63  and  N_68
REMARK   24  A    between atoms: C_65  and  O_67
REMARK   25  A    between atoms: N_68  and  C_69
REMARK   26  A    between atoms: N_68  and  C_70
REMARK                            x       y       z     vdW  Elec       q    Type
REMARK                         _______ _______ _______ _____ _____    ______ ____
ROOT
ATOM      1  C   UNL     1       7.631   1.684  26.186  0.00  0.00    +0.281 C 
ATOM      2  C   UNL     1       8.817   0.658  25.590  0.00  0.00    +0.190 C 
ATOM      3  C   UNL     1       8.032  -0.677  25.078  0.00  0.00    +0.121 C 
ATOM      4  C   UNL     1       7.589  -0.940  26.707  0.00  0.00    +0.169 C 
ATOM      5  C   UNL     1       7.705   0.396  27.938  0.00  0.00    +0.149 C 
ATOM      6  C   UNL     1       7.608   0.502  29.461  0.00  0.00    +0.041 C 
ATOM      7  O   UNL     1       8.183   1.674  27.491  0.00  0.00    -0.343 OA
ENDROOT
BRANCH   3   8
ATOM      8  N   UNL     1       7.637  -1.423  23.515  0.00  0.00    -0.301 NA
ATOM      9  C   UNL     1       8.550  -2.328  22.847  0.00  0.00    +0.105 C 
ATOM     10  C   UNL     1       6.514  -1.211  22.456  0.00  0.00    +0.105 C 
ENDBRANCH   3   8
BRANCH   2  11
ATOM     11  O   UNL     1       9.882   1.450  24.994  0.00  0.00    -0.385 OA
ATOM     12  H   UNL     1      10.481   1.689  25.722  0.00  0.00    +0.210 HD
ENDBRANCH   2  11
BRANCH   4  13
ATOM     13  O   UNL     1       6.177  -1.264  26.620  0.00  0.00    -0.344 OA
BRANCH  13  14
ATOM     14  C   UNL     1       5.779  -2.216  27.594  0.00  0.00    +0.254 C 
ATOM     15  O   UNL     1       6.477  -3.433  27.631  0.00  0.00    -0.345 OA
ATOM     16  C   UNL     1       6.694  -3.918  26.333  0.00  0.00    +0.162 C 
ATOM     17  C   UNL     1       7.552  -5.123  26.637  0.00  0.00    +0.042 C 
ATOM     18  C   UNL     1       5.412  -3.963  25.398  0.00  0.00    +0.236 C 
ATOM     19  C   UNL     1       4.416  -2.816  25.747  0.00  0.00    +0.107 C 
ATOM     20  C   UNL     1       2.953  -3.085  25.289  0.00  0.00    +0.045 C 
ATOM     21  C   UNL     1       4.393  -2.561  27.260  0.00  0.00    +0.099 C 
BRANCH  19  22
ATOM     22  O   UNL     1       4.689  -1.648  24.949  0.00  0.00    -0.385 OA
ATOM     23  H   UNL     1       3.850  -1.419  24.508  0.00  0.00    +0.210 HD
ENDBRANCH  19  22
BRANCH  18  24
ATOM     24  O   UNL     1       5.613  -4.058  23.915  0.00  0.00    -0.456 OA
BRANCH  24  25
ATOM     25  C   UNL     1       6.033  -5.156  23.196  0.00  0.00    +0.308 C 
ATOM     26  O   UNL     1       7.192  -5.490  22.964  0.00  0.00    -0.251 OA
BRANCH  25  27
ATOM     27  C   UNL     1       4.925  -6.017  22.693  0.00  0.00    +0.123 C 
BRANCH  27  28
ATOM     28  C   UNL     1       3.685  -6.093  23.629  0.00  0.00    -0.007 C 
ATOM     29  C   UNL     1       3.923  -7.223  24.620  0.00  0.00    +0.008 C 
ATOM     30  C   UNL     1       2.355  -6.381  22.935  0.00  0.00    +0.008 C 
ENDBRANCH  27  28
ENDBRANCH  25  27
ENDBRANCH  24  25
ENDBRANCH  18  24
ENDBRANCH  13  14
ENDBRANCH   4  13
BRANCH   1  31
ATOM     31  O   UNL     1       6.048   1.439  26.431  0.00  0.00    -0.343 OA
BRANCH  31  33
ATOM     32  C   UNL     1       4.369   2.369  28.156  0.00  0.00    +0.176 C 
ATOM     33  C   UNL     1       4.876   2.389  26.176  0.00  0.00    +0.156 C 
ATOM     34  C   UNL     1       4.446   2.535  24.138  0.00  0.00    +0.028 C 
ATOM     35  C   UNL     1       3.177   3.017  22.786  0.00  0.00    +0.012 C 
ATOM     36  C   UNL     1       2.679   4.115  21.262  0.00  0.00    +0.019 C 
ATOM     37  C   UNL     1       2.671   5.637  20.684  0.00  0.00    +0.010 C 
ATOM     38  C   UNL     1       1.230   3.695  20.848  0.00  0.00    +0.140 C 
ATOM     39  C   UNL     1       0.443   4.175  22.034  0.00  0.00    +0.004 C 
ATOM     40  C   UNL     1       0.452   3.409  23.120  0.00  0.00    -0.002 C 
ATOM     41  C   UNL     1       1.048   3.930  24.330  0.00  0.00    -0.004 C 
ATOM     42  C   UNL     1       1.644   3.002  25.075  0.00  0.00    -0.023 C 
ATOM     43  C   UNL     1       2.108   3.128  26.449  0.00  0.00    +0.071 C 
ATOM     44  C   UNL     1       1.741   1.723  27.027  0.00  0.00    +0.177 C 
ATOM     45  C   UNL     1       2.633   0.463  26.721  0.00  0.00    +0.052 C 
ATOM     46  O   UNL     1       1.082   1.964  28.243  0.00  0.00    -0.461 OA
ATOM     47  C   UNL     1       1.386   1.264  29.317  0.00  0.00    +0.310 C 
ATOM     48  O   UNL     1       0.851   0.285  29.687  0.00  0.00    -0.251 OA
ATOM     49  C   UNL     1       2.494   1.997  30.029  0.00  0.00    +0.154 C 
ATOM     50  C   UNL     1       3.724   1.481  29.413  0.00  0.00    +0.156 C 
BRANCH  50  51
ATOM     51  O   UNL     1       3.995   0.067  29.435  0.00  0.00    -0.389 OA
ATOM     52  H   UNL     1       4.745  -0.111  28.815  0.00  0.00    +0.210 HD
ENDBRANCH  50  51
BRANCH  32  54
ATOM     53  C   UNL     1       6.397   3.744  30.160  0.00  0.00    +0.194 C 
ATOM     54  O   UNL     1       5.558   2.655  29.355  0.00  0.00    -0.375 OA
ENDBRANCH  32  54
BRANCH  38  55
ATOM     55  O   UNL     1       1.263   2.308  20.565  0.00  0.00    -0.387 OA
ATOM     56  H   UNL     1       0.940   1.883  21.389  0.00  0.00    +0.210 HD
ENDBRANCH  38  55
BRANCH  34  57
ATOM     57  C   UNL     1       5.562   2.573  22.690  0.00  0.00    +0.076 C 
BRANCH  57  58
ATOM     58  C   UNL     1       7.289   2.714  22.544  0.00  0.00    +0.223 C 
ATOM     59  O   UNL     1       8.150   1.827  22.425  0.00  0.00    -0.301 OA
ENDBRANCH  57  58
ENDBRANCH  34  57
ENDBRANCH  31  33
ENDBRANCH   1  31
TORSDOF 16
ENDMDL
MODEL 8
REMARK VINA RESULT:      -4.4      1.418      1.923
REMARK  Name = 
REMARK  26 active torsions:
REMARK  status: ('A' for Active; 'I' for Inactive)
REMARK    1  A    between atoms: C_1  and  O_2
REMARK    2  A    between atoms: O_2  and  C_3
REMARK    3  A    between atoms: C_5  and  O_7
REMARK    4  A    between atoms: C_12  and  C_14
REMARK    5  A    between atoms: C_20  and  O_22
REMARK    6  A    between atoms: C_23  and  C_25
REMARK    7  A    between atoms: C_27  and  C_29
REMARK    8  A    between atoms: C_29  and  C_30
REMARK    9  A    between atoms: C_32  and  O_34
REMARK   10  A    between atoms: O_34  and  C_35
REMARK   11  A    between atoms: C_38  and  C_40
REMARK   12  A    between atoms: C_41  and  O_43
REMARK   13  A    between atoms: O_43  and  C_44
REMARK   14  A    between atoms: C_47  and  C_48
REMARK   15  A    between atoms: C_47  and  O_49
REMARK   16  A    between atoms: C_50  and  O_52
REMARK   17  A    between atoms: O_52  and  C_53
REMARK   18  A    between atoms: C_53  and  C_55
REMARK   19  A    between atoms: C_55  and  C_56
REMARK   20  A    between atoms: C_56  and  C_57
REMARK   21  A    between atoms: C_56  and  C_58
REMARK   22  A    between atoms: C_59  and  C_61
REMARK   23  A    between atoms: C_63  and  N_68
REMARK   24  A    between atoms: C_65  and  O_67
REMARK   25  A    between atoms: N_68  and  C_69
REMARK   26  A    between atoms: N_68  and  C_70
REMARK                            x       y       z     vdW  Elec       q    Type
REMARK                         _______ _______ _______ _____ _____    ______ ____
ROOT
ATOM      1  C   UNL     1       7.280  -0.582  26.018  0.00  0.00    +0.281 C 
ATOM      2  C   UNL     1       7.646  -2.054  26.737  0.00  0.00    +0.190 C 
ATOM      3  C   UNL     1       6.344  -3.004  26.489  0.00  0.00    +0.121 C 
ATOM      4  C   UNL     1       5.465  -1.912  27.466  0.00  0.00    +0.169 C 
ATOM      5  C   UNL     1       6.104  -0.244  27.817  0.00  0.00    +0.149 C 
ATOM      6  C   UNL     1       5.739   0.897  28.767  0.00  0.00    +0.041 C 
ATOM      7  O   UNL     1       7.371   0.117  27.247  0.00  0.00    -0.343 OA
ENDROOT
BRANCH   3   8
ATOM      8  N   UNL     1       5.951  -4.422  25.495  0.00  0.00    -0.301 NA
ATOM      9  C   UNL     1       6.979  -5.296  24.967  0.00  0.00    +0.105 C 
ATOM     10  C   UNL     1       4.655  -4.952  24.810  0.00  0.00    +0.105 C 
ENDBRANCH   3   8
BRANCH   2  11
ATOM     11  O   UNL     1       9.073  -2.307  26.614  0.00  0.00    -0.385 OA
ATOM     12  H   UNL     1       9.160  -3.239  26.347  0.00  0.00    +0.210 HD
ENDBRANCH   2  11
BRANCH   4  13
ATOM     13  O   UNL     1       4.239  -1.706  26.715  0.00  0.00    -0.344 OA
BRANCH  13  14
ATOM     14  C   UNL     1       3.230  -1.077  27.489  0.00  0.00    +0.254 C 
ATOM     15  O   UNL     1       2.971  -1.604  28.763  0.00  0.00    -0.345 OA
ATOM     16  C   UNL     1       2.948  -3.005  28.724  0.00  0.00    +0.162 C 
ATOM     17  C   UNL     1       2.792  -3.312  30.195  0.00  0.00    +0.042 C 
ATOM     18  C   UNL     1       2.037  -3.641  27.590  0.00  0.00    +0.236 C 
ATOM     19  C   UNL     1       1.988  -2.730  26.326  0.00  0.00    +0.107 C 
ATOM     20  C   UNL     1       0.749  -2.974  25.416  0.00  0.00    +0.045 C 
ATOM     21  C   UNL     1       1.989  -1.248  26.726  0.00  0.00    +0.099 C 
BRANCH  19  22
ATOM     22  O   UNL     1       3.025  -3.098  25.396  0.00  0.00    -0.385 OA
ATOM     23  H   UNL     1       3.789  -2.529  25.604  0.00  0.00    +0.210 HD
ENDBRANCH  19  22
BRANCH  18  24
ATOM     24  O   UNL     1       2.271  -5.071  27.204  0.00  0.00    -0.456 OA
BRANCH  24  25
ATOM     25  C   UNL     1       1.613  -6.185  27.681  0.00  0.00    +0.308 C 
ATOM     26  O   UNL     1       0.783  -6.865  27.086  0.00  0.00    -0.251 OA
BRANCH  25  27
ATOM     27  C   UNL     1       2.009  -6.583  29.062  0.00  0.00    +0.123 C 
BRANCH  27  28
ATOM     28  C   UNL     1       3.455  -7.144  29.187  0.00  0.00    -0.007 C 
ATOM     29  C   UNL     1       4.050  -6.603  30.479  0.00  0.00    +0.008 C 
ATOM     30  C   UNL     1       4.409  -6.757  28.060  0.00  0.00    +0.008 C 
ENDBRANCH  27  28
ENDBRANCH  25  27
ENDBRANCH  24  25
ENDBRANCH  18  24
ENDBRANCH  13  14
ENDBRANCH   4  13
BRANCH   1  31
ATOM     31  O   UNL     1       5.900  -0.041  25.363  0.00  0.00    -0.343 OA
BRANCH  31  33
ATOM     32  C   UNL     1       7.289   0.532  23.266  0.00  0.00    +0.176 C 
ATOM     33  C   UNL     1       5.688   1.121  24.391  0.00  0.00    +0.156 C 
ATOM     34  C   UNL     1       4.383   2.545  25.184  0.00  0.00    +0.028 C 
ATOM     35  C   UNL     1       3.724   4.343  25.122  0.00  0.00    +0.012 C 
ATOM     36  C   UNL     1       2.255   5.588  24.858  0.00  0.00    +0.019 C 
ATOM     37  C   UNL     1       0.982   5.937  23.904  0.00  0.00    +0.010 C 
ATOM     38  C   UNL     1       2.843   7.030  25.008  0.00  0.00    +0.140 C 
ATOM     39  C   UNL     1       3.730   7.105  23.797  0.00  0.00    +0.004 C 
ATOM     40  C   UNL     1       4.918   6.515  23.876  0.00  0.00    -0.002 C 
ATOM     41  C   UNL     1       5.194   5.395  23.004  0.00  0.00    -0.004 C 
ATOM     42  C   UNL     1       5.983   4.474  23.550  0.00  0.00    -0.023 C 
ATOM     43  C   UNL     1       6.658   3.371  22.882  0.00  0.00    +0.071 C 
ATOM     44  C   UNL     1       8.027   3.346  23.635  0.00  0.00    +0.177 C 
ATOM     45  C   UNL     1       8.153   2.704  25.066  0.00  0.00    +0.052 C 
ATOM     46  O   UNL     1       9.016   3.290  22.640  0.00  0.00    -0.461 OA
ATOM     47  C   UNL     1      10.029   2.455  22.753  0.00  0.00    +0.310 C 
ATOM     48  O   UNL     1      11.083   2.694  23.217  0.00  0.00    -0.251 OA
ATOM     49  C   UNL     1       9.616   1.161  22.102  0.00  0.00    +0.154 C 
ATOM     50  C   UNL     1       8.950   0.410  23.176  0.00  0.00    +0.156 C 
BRANCH  50  51
ATOM     51  O   UNL     1       9.663   0.126  24.394  0.00  0.00    -0.389 OA
ATOM     52  H   UNL     1       9.308   0.719  25.102  0.00  0.00    +0.210 HD
ENDBRANCH  50  51
BRANCH  32  54
ATOM     53  C   UNL     1       6.687  -2.479  22.501  0.00  0.00    +0.194 C 
ATOM     54  O   UNL     1       7.435  -1.096  22.756  0.00  0.00    -0.375 OA
ENDBRANCH  32  54
BRANCH  38  55
ATOM     55  O   UNL     1       3.432   7.108  26.292  0.00  0.00    -0.387 OA
ATOM     56  H   UNL     1       4.399   7.108  26.118  0.00  0.00    +0.210 HD
ENDBRANCH  38  55
BRANCH  34  57
ATOM     57  C   UNL     1       2.873   2.339  26.194  0.00  0.00    +0.076 C 
BRANCH  57  58
ATOM     58  C   UNL     1       2.554   2.571  27.888  0.00  0.00    +0.223 C 
ATOM     59  O   UNL     1       3.098   3.339  28.699  0.00  0.00    -0.301 OA
ENDBRANCH  57  58
ENDBRANCH  34  57
ENDBRANCH  31  33
ENDBRANCH   1  31
TORSDOF 16
ENDMDL
MODEL 9
REMARK VINA RESULT:      -4.4      2.718      8.638
REMARK  Name = 
REMARK  26 active torsions:
REMARK  status: ('A' for Active; 'I' for Inactive)
REMARK    1  A    between atoms: C_1  and  O_2
REMARK    2  A    between atoms: O_2  and  C_3
REMARK    3  A    between atoms: C_5  and  O_7
REMARK    4  A    between atoms: C_12  and  C_14
REMARK    5  A    between atoms: C_20  and  O_22
REMARK    6  A    between atoms: C_23  and  C_25
REMARK    7  A    between atoms: C_27  and  C_29
REMARK    8  A    between atoms: C_29  and  C_30
REMARK    9  A    between atoms: C_32  and  O_34
REMARK   10  A    between atoms: O_34  and  C_35
REMARK   11  A    between atoms: C_38  and  C_40
REMARK   12  A    between atoms: C_41  and  O_43
REMARK   13  A    between atoms: O_43  and  C_44
REMARK   14  A    between atoms: C_47  and  C_48
REMARK   15  A    between atoms: C_47  and  O_49
REMARK   16  A    between atoms: C_50  and  O_52
REMARK   17  A    between atoms: O_52  and  C_53
REMARK   18  A    between atoms: C_53  and  C_55
REMARK   19  A    between atoms: C_55  and  C_56
REMARK   20  A    between atoms: C_56  and  C_57
REMARK   21  A    between atoms: C_56  and  C_58
REMARK   22  A    between atoms: C_59  and  C_61
REMARK   23  A    between atoms: C_63  and  N_68
REMARK   24  A    between atoms: C_65  and  O_67
REMARK   25  A    between atoms: N_68  and  C_69
REMARK   26  A    between atoms: N_68  and  C_70
REMARK                            x       y       z     vdW  Elec       q    Type
REMARK                         _______ _______ _______ _____ _____    ______ ____
ROOT
ATOM      1  C   UNL     1       5.663   4.471  26.827  0.00  0.00    +0.281 C 
ATOM      2  C   UNL     1       6.933   5.566  26.887  0.00  0.00    +0.190 C 
ATOM      3  C   UNL     1       7.807   5.304  25.535  0.00  0.00    +0.121 C 
ATOM      4  C   UNL     1       8.151   3.751  26.157  0.00  0.00    +0.169 C 
ATOM      5  C   UNL     1       7.154   3.038  27.502  0.00  0.00    +0.149 C 
ATOM      6  C   UNL     1       7.264   1.828  28.431  0.00  0.00    +0.041 C 
ATOM      7  O   UNL     1       6.074   3.827  28.021  0.00  0.00    -0.343 OA
ENDROOT
BRANCH   3   8
ATOM      8  N   UNL     1       8.109   6.159  24.007  0.00  0.00    -0.301 NA
ATOM      9  C   UNL     1       9.395   6.754  23.704  0.00  0.00    +0.105 C 
ATOM     10  C   UNL     1       7.209   6.653  22.835  0.00  0.00    +0.105 C 
ENDBRANCH   3   8
BRANCH   2  11
ATOM     11  O   UNL     1       6.484   6.788  27.534  0.00  0.00    -0.385 OA
ATOM     12  H   UNL     1       7.143   6.989  28.221  0.00  0.00    +0.210 HD
ENDBRANCH   2  11
BRANCH   4  13
ATOM     13  O   UNL     1       7.939   2.881  25.014  0.00  0.00    -0.344 OA
BRANCH  13  14
ATOM     14  C   UNL     1       8.567   3.369  23.839  0.00  0.00    +0.254 C 
ATOM     15  O   UNL     1       8.045   2.947  22.606  0.00  0.00    -0.345 OA
ATOM     16  C   UNL     1       7.751   1.576  22.637  0.00  0.00    +0.162 C 
ATOM     17  C   UNL     1       7.100   1.412  21.284  0.00  0.00    +0.042 C 
ATOM     18  C   UNL     1       8.914   0.640  23.174  0.00  0.00    +0.236 C 
ATOM     19  C   UNL     1       9.782   1.371  24.243  0.00  0.00    +0.107 C 
ATOM     20  C   UNL     1      11.207   0.772  24.421  0.00  0.00    +0.045 C 
ATOM     21  C   UNL     1       9.940   2.856  23.888  0.00  0.00    +0.099 C 
BRANCH  19  22
ATOM     22  O   UNL     1       9.268   1.125  25.567  0.00  0.00    -0.385 OA
ATOM     23  H   UNL     1       8.923   1.980  25.885  0.00  0.00    +0.210 HD
ENDBRANCH  19  22
BRANCH  18  24
ATOM     24  O   UNL     1       8.563  -0.744  23.633  0.00  0.00    -0.456 OA
BRANCH  24  25
ATOM     25  C   UNL     1       8.907  -1.937  23.034  0.00  0.00    +0.308 C 
ATOM     26  O   UNL     1       9.858  -2.141  22.285  0.00  0.00    -0.251 OA
BRANCH  25  27
ATOM     27  C   UNL     1       8.015  -3.078  23.387  0.00  0.00    +0.123 C 
BRANCH  27  28
ATOM     28  C   UNL     1       7.137  -3.604  22.215  0.00  0.00    -0.007 C 
ATOM     29  C   UNL     1       5.749  -2.999  22.370  0.00  0.00    +0.008 C 
ATOM     30  C   UNL     1       6.960  -5.119  22.156  0.00  0.00    +0.008 C 
ENDBRANCH  27  28
ENDBRANCH  25  27
ENDBRANCH  24  25
ENDBRANCH  18  24
ENDBRANCH  13  14
ENDBRANCH   4  13
BRANCH   1  31
ATOM     31  O   UNL     1       5.370   3.247  25.806  0.00  0.00    -0.343 OA
BRANCH  31  33
ATOM     32  C   UNL     1       2.863   3.854  25.779  0.00  0.00    +0.176 C 
ATOM     33  C   UNL     1       4.178   2.289  25.768  0.00  0.00    +0.156 C 
ATOM     34  C   UNL     1       4.760   0.334  26.211  0.00  0.00    +0.028 C 
ATOM     35  C   UNL     1       4.231  -1.421  26.770  0.00  0.00    +0.012 C 
ATOM     36  C   UNL     1       4.081  -3.325  26.415  0.00  0.00    +0.019 C 
ATOM     37  C   UNL     1       3.655  -4.424  25.291  0.00  0.00    +0.010 C 
ATOM     38  C   UNL     1       3.382  -3.970  27.656  0.00  0.00    +0.140 C 
ATOM     39  C   UNL     1       2.007  -3.377  27.552  0.00  0.00    +0.004 C 
ATOM     40  C   UNL     1       1.846  -2.134  27.994  0.00  0.00    -0.002 C 
ATOM     41  C   UNL     1       1.478  -1.104  27.047  0.00  0.00    -0.004 C 
ATOM     42  C   UNL     1       1.995   0.090  27.328  0.00  0.00    -0.023 C 
ATOM     43  C   UNL     1       1.631   1.375  26.749  0.00  0.00    +0.071 C 
ATOM     44  C   UNL     1       1.723   2.311  27.997  0.00  0.00    +0.177 C 
ATOM     45  C   UNL     1       3.114   2.817  28.530  0.00  0.00    +0.052 C 
ATOM     46  O   UNL     1       0.538   3.064  28.004  0.00  0.00    -0.461 OA
ATOM     47  C   UNL     1       0.574   4.363  28.223  0.00  0.00    +0.310 C 
ATOM     48  O   UNL     1       0.443   4.900  29.261  0.00  0.00    -0.251 OA
ATOM     49  C   UNL     1       0.732   5.037  26.885  0.00  0.00    +0.154 C 
ATOM     50  C   UNL     1       2.185   5.089  26.673  0.00  0.00    +0.156 C 
BRANCH  50  51
ATOM     51  O   UNL     1       3.024   5.746  27.641  0.00  0.00    -0.389 OA
ATOM     52  H   UNL     1       3.922   5.333  27.599  0.00  0.00    +0.210 HD
ENDBRANCH  50  51
BRANCH  32  54
ATOM     53  C   UNL     1       3.612   5.618  23.261  0.00  0.00    +0.194 C 
ATOM     54  O   UNL     1       3.053   5.151  24.677  0.00  0.00    -0.375 OA
ENDBRANCH  32  54
BRANCH  38  55
ATOM     55  O   UNL     1       4.175  -3.662  28.787  0.00  0.00    -0.387 OA
ATOM     56  H   UNL     1       3.569  -3.175  29.386  0.00  0.00    +0.210 HD
ENDBRANCH  38  55
BRANCH  34  57
ATOM     57  C   UNL     1       6.270  -0.588  25.750  0.00  0.00    +0.076 C 
BRANCH  57  58
ATOM     58  C   UNL     1       7.445  -1.460  26.690  0.00  0.00    +0.223 C 
ATOM     59  O   UNL     1       8.586  -1.123  27.044  0.00  0.00    -0.301 OA
ENDBRANCH  57  58
ENDBRANCH  34  57
ENDBRANCH  31  33
ENDBRANCH   1  31
TORSDOF 16
ENDMDL
