MODEL 1
REMARK VINA RESULT:      -6.8      0.000      0.000
REMARK  Name = 
REMARK  8 active torsions:
REMARK  status: ('A' for Active; 'I' for Inactive)
REMARK    1  A    between atoms: CA_2  and  N_3
REMARK    2  A    between atoms: CA_2  and  CB_16
REMARK    3  A    between atoms: CA_2  and  C_19
REMARK    4  A    between atoms: C_4  and  C_6
REMARK    5  A    between atoms: C_6  and  C_7
REMARK    6  A    between atoms: CB_16  and  CG1_17
REMARK    7  A    between atoms: CB_16  and  CG2_18
REMARK    8  A    between atoms: C_19  and  O_20
REMARK                            x       y       z     vdW  Elec       q    Type
REMARK                         _______ _______ _______ _____ _____    ______ ____
ROOT
ATOM      1  N   VAL A   1       8.009  -4.338  24.496  0.00  0.00    -0.302 N 
ATOM      2  H   VAL A   1       8.668  -5.023  24.142  0.00  0.00    +0.150 HD
ATOM      3  C   UNK A   0       8.479  -3.060  24.695  0.00  0.00    +0.218 C 
ATOM      4  O   UNK A   0       7.781  -2.211  25.244  0.00  0.00    -0.275 OA
ENDROOT
BRANCH   1   5
ATOM      5  CA  VAL A   1       6.720  -4.861  24.992  0.00  0.00    +0.184 C 
BRANCH   5   6
ATOM      6  CB  VAL A   1       5.876  -5.597  23.920  0.00  0.00    +0.014 C 
ATOM      7  CG2 VAL A   1       6.627  -5.726  22.590  0.00  0.00    +0.009 C 
ATOM      8  CG1 VAL A   1       4.546  -4.873  23.649  0.00  0.00    +0.009 C 
ENDBRANCH   5   6
BRANCH   5   9
ATOM      9  C   VAL A   1       6.875  -5.711  26.274  0.00  0.00    +0.326 C 
ATOM     10  OXT VAL A   1       5.953  -6.358  26.757  0.00  0.00    -0.249 OA
BRANCH   9  11
ATOM     11  O   VAL A   1       8.124  -5.784  26.783  0.00  0.00    -0.479 OA
ATOM     12  H   VAL A   1       8.546  -4.898  26.901  0.00  0.00    +0.295 HD
ENDBRANCH   9  11
ENDBRANCH   5   9
ENDBRANCH   1   5
BRANCH   3  13
ATOM     13  C   UNK A   0       9.821  -2.748  24.060  0.00  0.00    +0.133 C 
BRANCH  13  14
ATOM     14  C   UNK A   0       9.774  -1.652  23.047  0.00  0.00    -0.014 A 
ATOM     15  C   UNK A   0      10.076  -0.265  23.254  0.00  0.00    +0.003 A 
ATOM     16  C   UNK A   0       9.816   0.403  22.058  0.00  0.00    +0.047 A 
ATOM     17  C   UNK A   0       9.991   1.785  21.903  0.00  0.00    +0.026 A 
ATOM     18  C   UNK A   0      10.451   2.507  23.007  0.00  0.00    +0.002 A 
ATOM     19  C   UNK A   0      10.716   1.872  24.217  0.00  0.00    +0.001 A 
ATOM     20  N   UNK A   0       9.369  -0.534  21.158  0.00  0.00    -0.360 N 
ATOM     21  H   UNK A   0       9.079  -0.325  20.212  0.00  0.00    +0.165 HD
ATOM     22  C   UNK A   0      10.529   0.491  24.356  0.00  0.00    +0.010 A 
ATOM     23  C   UNK A   0       9.342  -1.773  21.739  0.00  0.00    +0.087 A 
ENDBRANCH  13  14
ENDBRANCH   3  13
TORSDOF 6
ENDMDL
MODEL 2
REMARK VINA RESULT:      -6.6      1.881      2.390
REMARK  Name = 
REMARK  8 active torsions:
REMARK  status: ('A' for Active; 'I' for Inactive)
REMARK    1  A    between atoms: CA_2  and  N_3
REMARK    2  A    between atoms: CA_2  and  CB_16
REMARK    3  A    between atoms: CA_2  and  C_19
REMARK    4  A    between atoms: C_4  and  C_6
REMARK    5  A    between atoms: C_6  and  C_7
REMARK    6  A    between atoms: CB_16  and  CG1_17
REMARK    7  A    between atoms: CB_16  and  CG2_18
REMARK    8  A    between atoms: C_19  and  O_20
REMARK                            x       y       z     vdW  Elec       q    Type
REMARK                         _______ _______ _______ _____ _____    ______ ____
ROOT
ATOM      1  N   VAL A   1       7.028  -4.193  24.323  0.00  0.00    -0.302 N 
ATOM      2  H   VAL A   1       6.538  -3.306  24.352  0.00  0.00    +0.150 HD
ATOM      3  C   UNK A   0       8.402  -4.151  24.322  0.00  0.00    +0.218 C 
ATOM      4  O   UNK A   0       9.064  -5.174  24.156  0.00  0.00    -0.275 OA
ENDROOT
BRANCH   1   5
ATOM      5  CA  VAL A   1       6.209  -5.386  24.022  0.00  0.00    +0.184 C 
BRANCH   5   6
ATOM      6  CB  VAL A   1       5.158  -5.728  25.110  0.00  0.00    +0.014 C 
ATOM      7  CG2 VAL A   1       5.802  -5.907  26.489  0.00  0.00    +0.009 C 
ATOM      8  CG1 VAL A   1       4.389  -7.016  24.770  0.00  0.00    +0.009 C 
ENDBRANCH   5   6
BRANCH   5   9
ATOM      9  C   VAL A   1       5.572  -5.333  22.615  0.00  0.00    +0.326 C 
ATOM     10  OXT VAL A   1       4.865  -4.405  22.240  0.00  0.00    -0.249 OA
BRANCH   9  11
ATOM     11  O   VAL A   1       5.922  -6.330  21.773  0.00  0.00    -0.479 OA
ATOM     12  H   VAL A   1       6.463  -6.018  21.007  0.00  0.00    +0.295 HD
ENDBRANCH   9  11
ENDBRANCH   5   9
ENDBRANCH   1   5
BRANCH   3  13
ATOM     13  C   UNK A   0       9.019  -2.816  24.695  0.00  0.00    +0.133 C 
BRANCH  13  14
ATOM     14  C   UNK A   0       9.255  -1.910  23.532  0.00  0.00    -0.014 A 
ATOM     15  C   UNK A   0       9.646  -0.531  23.571  0.00  0.00    +0.003 A 
ATOM     16  C   UNK A   0       9.666  -0.063  22.257  0.00  0.00    +0.047 A 
ATOM     17  C   UNK A   0       9.996   1.256  21.922  0.00  0.00    +0.026 A 
ATOM     18  C   UNK A   0      10.320   2.128  22.966  0.00  0.00    +0.002 A 
ATOM     19  C   UNK A   0      10.304   1.695  24.288  0.00  0.00    +0.001 A 
ATOM     20  N   UNK A   0       9.299  -1.111  21.448  0.00  0.00    -0.360 N 
ATOM     21  H   UNK A   0       9.202  -1.050  20.443  0.00  0.00    +0.165 HD
ATOM     22  C   UNK A   0       9.966   0.374  24.606  0.00  0.00    +0.010 A 
ATOM     23  C   UNK A   0       9.052  -2.227  22.201  0.00  0.00    +0.087 A 
ENDBRANCH  13  14
ENDBRANCH   3  13
TORSDOF 6
ENDMDL
MODEL 3
REMARK VINA RESULT:      -6.6      1.893      2.463
REMARK  Name = 
REMARK  8 active torsions:
REMARK  status: ('A' for Active; 'I' for Inactive)
REMARK    1  A    between atoms: CA_2  and  N_3
REMARK    2  A    between atoms: CA_2  and  CB_16
REMARK    3  A    between atoms: CA_2  and  C_19
REMARK    4  A    between atoms: C_4  and  C_6
REMARK    5  A    between atoms: C_6  and  C_7
REMARK    6  A    between atoms: CB_16  and  CG1_17
REMARK    7  A    between atoms: CB_16  and  CG2_18
REMARK    8  A    between atoms: C_19  and  O_20
REMARK                            x       y       z     vdW  Elec       q    Type
REMARK                         _______ _______ _______ _____ _____    ______ ____
ROOT
ATOM      1  N   VAL A   1       9.397  -2.684  23.844  0.00  0.00    -0.302 N 
ATOM      2  H   VAL A   1       9.968  -2.980  23.060  0.00  0.00    +0.150 HD
ATOM      3  C   UNK A   0       9.646  -1.436  24.365  0.00  0.00    +0.218 C 
ATOM      4  O   UNK A   0       9.088  -1.061  25.395  0.00  0.00    -0.275 OA
ENDROOT
BRANCH   1   5
ATOM      5  CA  VAL A   1       8.564  -3.726  24.479  0.00  0.00    +0.184 C 
BRANCH   5   6
ATOM      6  CB  VAL A   1       7.754  -4.592  23.481  0.00  0.00    +0.014 C 
ATOM      7  CG2 VAL A   1       7.250  -3.769  22.290  0.00  0.00    +0.009 C 
ATOM      8  CG1 VAL A   1       6.539  -5.249  24.156  0.00  0.00    +0.009 C 
ENDBRANCH   5   6
BRANCH   5   9
ATOM      9  C   VAL A   1       9.360  -4.602  25.473  0.00  0.00    +0.326 C 
ATOM     10  OXT VAL A   1       9.200  -4.543  26.687  0.00  0.00    -0.249 OA
BRANCH   9  11
ATOM     11  O   VAL A   1      10.181  -5.521  24.920  0.00  0.00    -0.479 OA
ATOM     12  H   VAL A   1       9.882  -5.820  24.026  0.00  0.00    +0.295 HD
ENDBRANCH   9  11
ENDBRANCH   5   9
ENDBRANCH   1   5
BRANCH   3  13
ATOM     13  C   UNK A   0      10.508  -0.527  23.510  0.00  0.00    +0.133 C 
BRANCH  13  14
ATOM     14  C   UNK A   0       9.739   0.501  22.748  0.00  0.00    -0.014 A 
ATOM     15  C   UNK A   0       9.208   1.735  23.249  0.00  0.00    +0.003 A 
ATOM     16  C   UNK A   0       8.494   2.335  22.212  0.00  0.00    +0.047 A 
ATOM     17  C   UNK A   0       7.827   3.560  22.354  0.00  0.00    +0.026 A 
ATOM     18  C   UNK A   0       7.896   4.194  23.597  0.00  0.00    +0.002 A 
ATOM     19  C   UNK A   0       8.596   3.620  24.655  0.00  0.00    +0.001 A 
ATOM     20  N   UNK A   0       8.580   1.501  21.124  0.00  0.00    -0.360 N 
ATOM     21  H   UNK A   0       8.129   1.673  20.235  0.00  0.00    +0.165 HD
ATOM     22  C   UNK A   0       9.252   2.393  24.497  0.00  0.00    +0.010 A 
ATOM     23  C   UNK A   0       9.327   0.396  21.432  0.00  0.00    +0.087 A 
ENDBRANCH  13  14
ENDBRANCH   3  13
TORSDOF 6
ENDMDL
MODEL 4
REMARK VINA RESULT:      -6.3      2.005      2.659
REMARK  Name = 
REMARK  8 active torsions:
REMARK  status: ('A' for Active; 'I' for Inactive)
REMARK    1  A    between atoms: CA_2  and  N_3
REMARK    2  A    between atoms: CA_2  and  CB_16
REMARK    3  A    between atoms: CA_2  and  C_19
REMARK    4  A    between atoms: C_4  and  C_6
REMARK    5  A    between atoms: C_6  and  C_7
REMARK    6  A    between atoms: CB_16  and  CG1_17
REMARK    7  A    between atoms: CB_16  and  CG2_18
REMARK    8  A    between atoms: C_19  and  O_20
REMARK                            x       y       z     vdW  Elec       q    Type
REMARK                         _______ _______ _______ _____ _____    ______ ____
ROOT
ATOM      1  N   VAL A   1       8.623  -2.715  25.264  0.00  0.00    -0.302 N 
ATOM      2  H   VAL A   1       9.626  -2.611  25.158  0.00  0.00    +0.150 HD
ATOM      3  C   UNK A   0       7.976  -1.787  26.046  0.00  0.00    +0.218 C 
ATOM      4  O   UNK A   0       6.787  -1.920  26.329  0.00  0.00    -0.275 OA
ENDROOT
BRANCH   1   5
ATOM      5  CA  VAL A   1       8.039  -3.984  24.783  0.00  0.00    +0.184 C 
BRANCH   5   6
ATOM      6  CB  VAL A   1       8.023  -4.135  23.241  0.00  0.00    +0.014 C 
ATOM      7  CG2 VAL A   1       7.591  -2.839  22.544  0.00  0.00    +0.009 C 
ATOM      8  CG1 VAL A   1       7.075  -5.258  22.790  0.00  0.00    +0.009 C 
ENDBRANCH   5   6
BRANCH   5   9
ATOM      9  C   VAL A   1       8.659  -5.223  25.468  0.00  0.00    +0.326 C 
ATOM     10  OXT VAL A   1       8.082  -5.856  26.344  0.00  0.00    -0.249 OA
BRANCH   9  11
ATOM     11  O   VAL A   1       9.846  -5.636  24.972  0.00  0.00    -0.479 OA
ATOM     12  H   VAL A   1       9.825  -6.569  24.645  0.00  0.00    +0.295 HD
ENDBRANCH   9  11
ENDBRANCH   5   9
ENDBRANCH   1   5
BRANCH   3  13
ATOM     13  C   UNK A   0       8.776  -0.543  26.386  0.00  0.00    +0.133 C 
BRANCH  13  14
ATOM     14  C   UNK A   0       9.359   0.149  25.199  0.00  0.00    -0.014 A 
ATOM     15  C   UNK A   0       8.653   0.671  24.065  0.00  0.00    +0.003 A 
ATOM     16  C   UNK A   0       9.604   1.152  23.165  0.00  0.00    +0.047 A 
ATOM     17  C   UNK A   0       9.265   1.726  21.932  0.00  0.00    +0.026 A 
ATOM     18  C   UNK A   0       7.908   1.814  21.610  0.00  0.00    +0.002 A 
ATOM     19  C   UNK A   0       6.934   1.339  22.483  0.00  0.00    +0.001 A 
ATOM     20  N   UNK A   0      10.840   0.929  23.722  0.00  0.00    -0.360 N 
ATOM     21  H   UNK A   0      11.718   1.155  23.274  0.00  0.00    +0.165 HD
ATOM     22  C   UNK A   0       7.291   0.763  23.709  0.00  0.00    +0.010 A 
ATOM     23  C   UNK A   0      10.707   0.329  24.945  0.00  0.00    +0.087 A 
ENDBRANCH  13  14
ENDBRANCH   3  13
TORSDOF 6
ENDMDL
MODEL 5
REMARK VINA RESULT:      -6.3      2.483      3.374
REMARK  Name = 
REMARK  8 active torsions:
REMARK  status: ('A' for Active; 'I' for Inactive)
REMARK    1  A    between atoms: CA_2  and  N_3
REMARK    2  A    between atoms: CA_2  and  CB_16
REMARK    3  A    between atoms: CA_2  and  C_19
REMARK    4  A    between atoms: C_4  and  C_6
REMARK    5  A    between atoms: C_6  and  C_7
REMARK    6  A    between atoms: CB_16  and  CG1_17
REMARK    7  A    between atoms: CB_16  and  CG2_18
REMARK    8  A    between atoms: C_19  and  O_20
REMARK                            x       y       z     vdW  Elec       q    Type
REMARK                         _______ _______ _______ _____ _____    ______ ____
ROOT
ATOM      1  N   VAL A   1       8.292  -2.725  22.783  0.00  0.00    -0.302 N 
ATOM      2  H   VAL A   1       8.108  -2.150  21.968  0.00  0.00    +0.150 HD
ATOM      3  C   UNK A   0       9.561  -2.677  23.312  0.00  0.00    +0.218 C 
ATOM      4  O   UNK A   0       9.897  -3.441  24.214  0.00  0.00    -0.275 OA
ENDROOT
BRANCH   1   5
ATOM      5  CA  VAL A   1       7.259  -3.724  23.128  0.00  0.00    +0.184 C 
BRANCH   5   6
ATOM      6  CB  VAL A   1       6.155  -3.197  24.080  0.00  0.00    +0.014 C 
ATOM      7  CG2 VAL A   1       6.037  -1.670  24.028  0.00  0.00    +0.009 C 
ATOM      8  CG1 VAL A   1       6.420  -3.606  25.539  0.00  0.00    +0.009 C 
ENDBRANCH   5   6
BRANCH   5   9
ATOM      9  C   VAL A   1       6.654  -4.411  21.883  0.00  0.00    +0.326 C 
ATOM     10  OXT VAL A   1       5.767  -3.901  21.209  0.00  0.00    -0.249 OA
BRANCH   9  11
ATOM     11  O   VAL A   1       7.233  -5.575  21.514  0.00  0.00    -0.479 OA
ATOM     12  H   VAL A   1       7.097  -5.789  20.559  0.00  0.00    +0.295 HD
ENDBRANCH   9  11
ENDBRANCH   5   9
ENDBRANCH   1   5
BRANCH   3  13
ATOM     13  C   UNK A   0      10.432  -1.535  22.823  0.00  0.00    +0.133 C 
BRANCH  13  14
ATOM     14  C   UNK A   0      10.113  -0.216  23.447  0.00  0.00    -0.014 A 
ATOM     15  C   UNK A   0       9.273   0.816  22.912  0.00  0.00    +0.003 A 
ATOM     16  C   UNK A   0       9.331   1.899  23.789  0.00  0.00    +0.047 A 
ATOM     17  C   UNK A   0       8.634   3.095  23.571  0.00  0.00    +0.026 A 
ATOM     18  C   UNK A   0       7.849   3.186  22.418  0.00  0.00    +0.002 A 
ATOM     19  C   UNK A   0       7.774   2.126  21.519  0.00  0.00    +0.001 A 
ATOM     20  N   UNK A   0      10.174   1.546  24.815  0.00  0.00    -0.360 N 
ATOM     21  H   UNK A   0      10.423   2.153  25.584  0.00  0.00    +0.165 HD
ATOM     22  C   UNK A   0       8.482   0.939  21.750  0.00  0.00    +0.010 A 
ATOM     23  C   UNK A   0      10.649   0.276  24.623  0.00  0.00    +0.087 A 
ENDBRANCH  13  14
ENDBRANCH   3  13
TORSDOF 6
ENDMDL
MODEL 6
REMARK VINA RESULT:      -6.1      1.791      2.396
REMARK  Name = 
REMARK  8 active torsions:
REMARK  status: ('A' for Active; 'I' for Inactive)
REMARK    1  A    between atoms: CA_2  and  N_3
REMARK    2  A    between atoms: CA_2  and  CB_16
REMARK    3  A    between atoms: CA_2  and  C_19
REMARK    4  A    between atoms: C_4  and  C_6
REMARK    5  A    between atoms: C_6  and  C_7
REMARK    6  A    between atoms: CB_16  and  CG1_17
REMARK    7  A    between atoms: CB_16  and  CG2_18
REMARK    8  A    between atoms: C_19  and  O_20
REMARK                            x       y       z     vdW  Elec       q    Type
REMARK                         _______ _______ _______ _____ _____    ______ ____
ROOT
ATOM      1  N   VAL A   1       8.642  -3.376  23.728  0.00  0.00    -0.302 N 
ATOM      2  H   VAL A   1       9.016  -3.717  22.849  0.00  0.00    +0.150 HD
ATOM      3  C   UNK A   0       9.195  -2.226  24.240  0.00  0.00    +0.218 C 
ATOM      4  O   UNK A   0       8.888  -1.824  25.361  0.00  0.00    -0.275 OA
ENDROOT
BRANCH   1   5
ATOM      5  CA  VAL A   1       7.744  -4.292  24.460  0.00  0.00    +0.184 C 
BRANCH   5   6
ATOM      6  CB  VAL A   1       6.685  -4.993  23.570  0.00  0.00    +0.014 C 
ATOM      7  CG2 VAL A   1       7.321  -5.673  22.353  0.00  0.00    +0.009 C 
ATOM      8  CG1 VAL A   1       5.623  -4.003  23.065  0.00  0.00    +0.009 C 
ENDBRANCH   5   6
BRANCH   5   9
ATOM      9  C   VAL A   1       8.513  -5.309  25.334  0.00  0.00    +0.326 C 
ATOM     10  OXT VAL A   1       8.028  -5.826  26.333  0.00  0.00    -0.249 OA
BRANCH   9  11
ATOM     11  O   VAL A   1       9.729  -5.678  24.874  0.00  0.00    -0.479 OA
ATOM     12  H   VAL A   1      10.103  -5.043  24.216  0.00  0.00    +0.295 HD
ENDBRANCH   9  11
ENDBRANCH   5   9
ENDBRANCH   1   5
BRANCH   3  13
ATOM     13  C   UNK A   0      10.063  -1.431  23.282  0.00  0.00    +0.133 C 
BRANCH  13  14
ATOM     14  C   UNK A   0      10.049   0.042  23.529  0.00  0.00    -0.014 A 
ATOM     15  C   UNK A   0       9.094   0.994  23.043  0.00  0.00    +0.003 A 
ATOM     16  C   UNK A   0       9.520   2.259  23.448  0.00  0.00    +0.047 A 
ATOM     17  C   UNK A   0       8.825   3.435  23.136  0.00  0.00    +0.026 A 
ATOM     18  C   UNK A   0       7.652   3.313  22.385  0.00  0.00    +0.002 A 
ATOM     19  C   UNK A   0       7.201   2.067  21.961  0.00  0.00    +0.001 A 
ATOM     20  N   UNK A   0      10.690   2.088  24.148  0.00  0.00    -0.360 N 
ATOM     21  H   UNK A   0      11.238   2.844  24.539  0.00  0.00    +0.165 HD
ATOM     22  C   UNK A   0       7.912   0.902  22.277  0.00  0.00    +0.010 A 
ATOM     23  C   UNK A   0      11.017   0.760  24.206  0.00  0.00    +0.087 A 
ENDBRANCH  13  14
ENDBRANCH   3  13
TORSDOF 6
ENDMDL
MODEL 7
REMARK VINA RESULT:      -6.1      2.654      6.843
REMARK  Name = 
REMARK  8 active torsions:
REMARK  status: ('A' for Active; 'I' for Inactive)
REMARK    1  A    between atoms: CA_2  and  N_3
REMARK    2  A    between atoms: CA_2  and  CB_16
REMARK    3  A    between atoms: CA_2  and  C_19
REMARK    4  A    between atoms: C_4  and  C_6
REMARK    5  A    between atoms: C_6  and  C_7
REMARK    6  A    between atoms: CB_16  and  CG1_17
REMARK    7  A    between atoms: CB_16  and  CG2_18
REMARK    8  A    between atoms: C_19  and  O_20
REMARK                            x       y       z     vdW  Elec       q    Type
REMARK                         _______ _______ _______ _____ _____    ______ ____
ROOT
ATOM      1  N   VAL A   1       9.195  -0.519  23.628  0.00  0.00    -0.302 N 
ATOM      2  H   VAL A   1       9.454  -0.425  24.604  0.00  0.00    +0.150 HD
ATOM      3  C   UNK A   0       9.435  -1.735  23.030  0.00  0.00    +0.218 C 
ATOM      4  O   UNK A   0       9.271  -1.885  21.821  0.00  0.00    -0.275 OA
ENDROOT
BRANCH   1   5
ATOM      5  CA  VAL A   1       8.841   0.727  22.919  0.00  0.00    +0.184 C 
BRANCH   5   6
ATOM      6  CB  VAL A   1       7.540   1.401  23.425  0.00  0.00    +0.014 C 
ATOM      7  CG2 VAL A   1       6.592   0.392  24.082  0.00  0.00    +0.009 C 
ATOM      8  CG1 VAL A   1       6.780   2.097  22.283  0.00  0.00    +0.009 C 
ENDBRANCH   5   6
BRANCH   5   9
ATOM      9  C   VAL A   1      10.014   1.732  22.858  0.00  0.00    +0.326 C 
ATOM     10  OXT VAL A   1      10.739   1.966  23.817  0.00  0.00    -0.249 OA
BRANCH   9  11
ATOM     11  O   VAL A   1      10.262   2.272  21.644  0.00  0.00    -0.479 OA
ATOM     12  H   VAL A   1      10.998   2.932  21.657  0.00  0.00    +0.295 HD
ENDBRANCH   9  11
ENDBRANCH   5   9
ENDBRANCH   1   5
BRANCH   3  13
ATOM     13  C   UNK A   0       9.751  -2.880  23.974  0.00  0.00    +0.133 C 
BRANCH  13  14
ATOM     14  C   UNK A   0       8.544  -3.530  24.567  0.00  0.00    -0.014 A 
ATOM     15  C   UNK A   0       7.627  -4.416  23.913  0.00  0.00    +0.003 A 
ATOM     16  C   UNK A   0       6.608  -4.709  24.820  0.00  0.00    +0.047 A 
ATOM     17  C   UNK A   0       5.528  -5.545  24.509  0.00  0.00    +0.026 A 
ATOM     18  C   UNK A   0       5.487  -6.102  23.228  0.00  0.00    +0.002 A 
ATOM     19  C   UNK A   0       6.484  -5.827  22.297  0.00  0.00    +0.001 A 
ATOM     20  N   UNK A   0       6.889  -4.027  25.979  0.00  0.00    -0.360 N 
ATOM     21  H   UNK A   0       6.301  -4.034  26.802  0.00  0.00    +0.165 HD
ATOM     22  C   UNK A   0       7.555  -4.984  22.622  0.00  0.00    +0.010 A 
ATOM     23  C   UNK A   0       8.051  -3.316  25.841  0.00  0.00    +0.087 A 
ENDBRANCH  13  14
ENDBRANCH   3  13
TORSDOF 6
ENDMDL
MODEL 8
REMARK VINA RESULT:      -6.0      3.714      7.897
REMARK  Name = 
REMARK  8 active torsions:
REMARK  status: ('A' for Active; 'I' for Inactive)
REMARK    1  A    between atoms: CA_2  and  N_3
REMARK    2  A    between atoms: CA_2  and  CB_16
REMARK    3  A    between atoms: CA_2  and  C_19
REMARK    4  A    between atoms: C_4  and  C_6
REMARK    5  A    between atoms: C_6  and  C_7
REMARK    6  A    between atoms: CB_16  and  CG1_17
REMARK    7  A    between atoms: CB_16  and  CG2_18
REMARK    8  A    between atoms: C_19  and  O_20
REMARK                            x       y       z     vdW  Elec       q    Type
REMARK                         _______ _______ _______ _____ _____    ______ ____
ROOT
ATOM      1  N   VAL A   1       9.505   3.666  23.452  0.00  0.00    -0.302 N 
ATOM      2  H   VAL A   1      10.167   3.615  22.686  0.00  0.00    +0.150 HD
ATOM      3  C   UNK A   0       9.403   2.562  24.267  0.00  0.00    +0.218 C 
ATOM      4  O   UNK A   0       8.532   2.497  25.132  0.00  0.00    -0.275 OA
ENDROOT
BRANCH   1   5
ATOM      5  CA  VAL A   1       8.562   4.803  23.430  0.00  0.00    +0.184 C 
BRANCH   5   6
ATOM      6  CB  VAL A   1       9.242   6.195  23.454  0.00  0.00    +0.014 C 
ATOM      7  CG2 VAL A   1      10.748   6.091  23.719  0.00  0.00    +0.009 C 
ATOM      8  CG1 VAL A   1       8.629   7.108  24.530  0.00  0.00    +0.009 C 
ENDBRANCH   5   6
BRANCH   5   9
ATOM      9  C   VAL A   1       7.526   4.697  22.288  0.00  0.00    +0.326 C 
ATOM     10  OXT VAL A   1       6.777   3.736  22.158  0.00  0.00    -0.249 OA
BRANCH   9  11
ATOM     11  O   VAL A   1       7.418   5.782  21.490  0.00  0.00    -0.479 OA
ATOM     12  H   VAL A   1       7.325   5.550  20.533  0.00  0.00    +0.295 HD
ENDBRANCH   9  11
ENDBRANCH   5   9
ENDBRANCH   1   5
BRANCH   3  13
ATOM     13  C   UNK A   0      10.514   1.538  24.127  0.00  0.00    +0.133 C 
BRANCH  13  14
ATOM     14  C   UNK A   0      10.048   0.193  23.678  0.00  0.00    -0.014 A 
ATOM     15  C   UNK A   0       9.435  -0.826  24.480  0.00  0.00    +0.003 A 
ATOM     16  C   UNK A   0       9.245  -1.942  23.666  0.00  0.00    +0.047 A 
ATOM     17  C   UNK A   0       8.674  -3.135  24.130  0.00  0.00    +0.026 A 
ATOM     18  C   UNK A   0       8.282  -3.188  25.470  0.00  0.00    +0.002 A 
ATOM     19  C   UNK A   0       8.462  -2.094  26.311  0.00  0.00    +0.001 A 
ATOM     20  N   UNK A   0       9.726  -1.622  22.420  0.00  0.00    -0.360 N 
ATOM     21  H   UNK A   0       9.741  -2.258  21.633  0.00  0.00    +0.165 HD
ATOM     22  C   UNK A   0       9.040  -0.910  25.833  0.00  0.00    +0.010 A 
ATOM     23  C   UNK A   0      10.209  -0.341  22.413  0.00  0.00    +0.087 A 
ENDBRANCH  13  14
ENDBRANCH   3  13
TORSDOF 6
ENDMDL
MODEL 9
REMARK VINA RESULT:      -5.9      2.225      7.168
REMARK  Name = 
REMARK  8 active torsions:
REMARK  status: ('A' for Active; 'I' for Inactive)
REMARK    1  A    between atoms: CA_2  and  N_3
REMARK    2  A    between atoms: CA_2  and  CB_16
REMARK    3  A    between atoms: CA_2  and  C_19
REMARK    4  A    between atoms: C_4  and  C_6
REMARK    5  A    between atoms: C_6  and  C_7
REMARK    6  A    between atoms: CB_16  and  CG1_17
REMARK    7  A    between atoms: CB_16  and  CG2_18
REMARK    8  A    between atoms: C_19  and  O_20
REMARK                            x       y       z     vdW  Elec       q    Type
REMARK                         _______ _______ _______ _____ _____    ______ ____
ROOT
ATOM      1  N   VAL A   1       8.799  -1.288  23.193  0.00  0.00    -0.302 N 
ATOM      2  H   VAL A   1       7.821  -1.047  23.072  0.00  0.00    +0.150 HD
ATOM      3  C   UNK A   0       9.090  -2.600  23.487  0.00  0.00    +0.218 C 
ATOM      4  O   UNK A   0      10.235  -2.941  23.777  0.00  0.00    -0.275 OA
ENDROOT
BRANCH   1   5
ATOM      5  CA  VAL A   1       9.746  -0.158  23.294  0.00  0.00    +0.184 C 
BRANCH   5   6
ATOM      6  CB  VAL A   1       9.722   0.805  22.080  0.00  0.00    +0.014 C 
ATOM      7  CG2 VAL A   1      10.450   2.120  22.380  0.00  0.00    +0.009 C 
ATOM      8  CG1 VAL A   1       8.285   1.141  21.649  0.00  0.00    +0.009 C 
ENDBRANCH   5   6
BRANCH   5   9
ATOM      9  C   VAL A   1       9.617   0.610  24.629  0.00  0.00    +0.326 C 
ATOM     10  OXT VAL A   1       8.580   1.160  24.982  0.00  0.00    -0.249 OA
BRANCH   9  11
ATOM     11  O   VAL A   1      10.694   0.556  25.444  0.00  0.00    -0.479 OA
ATOM     12  H   VAL A   1      11.144  -0.324  25.433  0.00  0.00    +0.295 HD
ENDBRANCH   9  11
ENDBRANCH   5   9
ENDBRANCH   1   5
BRANCH   3  13
ATOM     13  C   UNK A   0       7.958  -3.587  23.274  0.00  0.00    +0.133 C 
BRANCH  13  14
ATOM     14  C   UNK A   0       7.466  -4.228  24.529  0.00  0.00    -0.014 A 
ATOM     15  C   UNK A   0       6.405  -5.184  24.657  0.00  0.00    +0.003 A 
ATOM     16  C   UNK A   0       6.236  -5.443  26.018  0.00  0.00    +0.047 A 
ATOM     17  C   UNK A   0       5.269  -6.329  26.511  0.00  0.00    +0.026 A 
ATOM     18  C   UNK A   0       4.449  -6.975  25.582  0.00  0.00    +0.002 A 
ATOM     19  C   UNK A   0       4.588  -6.737  24.218  0.00  0.00    +0.001 A 
ATOM     20  N   UNK A   0       7.151  -4.673  26.694  0.00  0.00    -0.360 N 
ATOM     21  H   UNK A   0       7.236  -4.639  27.701  0.00  0.00    +0.165 HD
ATOM     22  C   UNK A   0       5.556  -5.843  23.742  0.00  0.00    +0.010 A 
ATOM     23  C   UNK A   0       7.899  -3.941  25.811  0.00  0.00    +0.087 A 
ENDBRANCH  13  14
ENDBRANCH   3  13
TORSDOF 6
ENDMDL
