MODEL 1
REMARK VINA RESULT:      -6.1      0.000      0.000
REMARK  Name = 
REMARK  19 active torsions:
REMARK  status: ('A' for Active; 'I' for Inactive)
REMARK    1  A    between atoms: C_1  and  C_2
REMARK    2  A    between atoms: C_2  and  N_4
REMARK    3  A    between atoms: C_2  and  C_20
REMARK    4  A    between atoms: N_4  and  C_5
REMARK    5  A    between atoms: C_5  and  C_6
REMARK    6  A    between atoms: C_7  and  O_8
REMARK    7  A    between atoms: C_9  and  C_10
REMARK    8  A    between atoms: C_13  and  C_14
REMARK    9  A    between atoms: C_14  and  O_15
REMARK   10  A    between atoms: O_15  and  P_16
REMARK   11  A    between atoms: P_16  and  O_17
REMARK   12  A    between atoms: P_16  and  O_18
REMARK   13  A    between atoms: C_20  and  C_22
REMARK   14  A    between atoms: C_22  and  C_23
REMARK   15  A    between atoms: C_23  and  C_24
REMARK   16  A    between atoms: C_24  and  C_25
REMARK   17  A    between atoms: C_25  and  C_26
REMARK   18  A    between atoms: C_26  and  C_27
REMARK   19  A    between atoms: C_27  and  O_28
REMARK                            x       y       z     vdW  Elec       q    Type
REMARK                         _______ _______ _______ _____ _____    ______ ____
ROOT
ATOM      1  C   UNL     1       6.528  -4.477  24.454  0.00  0.00    +0.016 A 
ATOM      2  C   UNL     1       5.345  -5.083  24.966  0.00  0.00    +0.005 A 
ATOM      3  C   UNL     1       4.541  -5.801  24.074  0.00  0.00    +0.117 A 
ATOM      4  N   UNL     1       4.797  -5.976  22.765  0.00  0.00    -0.256 NA
ATOM      5  C   UNL     1       5.911  -5.392  22.271  0.00  0.00    +0.080 A 
ATOM      6  C   UNL     1       6.175  -5.669  20.822  0.00  0.00    +0.069 C 
ATOM      7  C   UNL     1       6.773  -4.629  23.068  0.00  0.00    +0.142 A 
ENDROOT
BRANCH   7   8
ATOM      8  O   UNL     1       7.857  -4.047  22.463  0.00  0.00    -0.505 OA
ATOM      9  H   UNL     1       8.547  -3.944  23.154  0.00  0.00    +0.292 HD
ENDBRANCH   7   8
BRANCH   1  10
ATOM     10  C   UNL     1       7.459  -3.630  25.336  0.00  0.00    +0.121 C 
BRANCH  10  11
ATOM     11  N   UNL     1       7.746  -2.291  24.749  0.00  0.00    -0.303 NA
ATOM     12  H   UNL     1       7.716  -2.425  23.732  0.00  0.00    +0.123 HD
BRANCH  11  14
ATOM     13  C   UNL     1       9.044  -0.375  25.768  0.00  0.00    +0.032 C 
ATOM     14  C   UNL     1       9.089  -1.724  25.053  0.00  0.00    +0.118 C 
BRANCH  14  15
ATOM     15  C   UNL     1      10.001  -1.646  23.816  0.00  0.00    +0.150 C 
ATOM     16  O   UNL     1      10.289  -2.656  23.167  0.00  0.00    -0.296 OA
BRANCH  15  17
ATOM     17  C   UNL     1      10.484  -0.272  23.357  0.00  0.00    +0.076 C 
BRANCH  17  18
ATOM     18  C   UNL     1       9.945   0.182  22.002  0.00  0.00    +0.008 C 
BRANCH  18  19
ATOM     19  C   UNL     1       9.763   1.694  21.845  0.00  0.00    +0.001 C 
BRANCH  19  20
ATOM     20  C   UNL     1       8.322   2.212  21.882  0.00  0.00    +0.011 C 
BRANCH  20  21
ATOM     21  C   UNL     1       7.674   2.164  23.267  0.00  0.00    +0.120 C 
BRANCH  21  22
ATOM     22  C   UNL     1       6.542   1.158  23.316  0.00  0.00    +0.305 C 
ATOM     23  O   UNL     1       6.652  -0.043  23.160  0.00  0.00    -0.251 OA
BRANCH  22  24
ATOM     24  O   UNL     1       5.344   1.745  23.567  0.00  0.00    -0.481 OA
ATOM     25  H   UNL     1       4.599   1.111  23.611  0.00  0.00    +0.295 HD
ENDBRANCH  22  24
ENDBRANCH  21  22
ENDBRANCH  20  21
ENDBRANCH  19  20
ENDBRANCH  18  19
ENDBRANCH  17  18
ENDBRANCH  15  17
ENDBRANCH  14  15
ENDBRANCH  11  14
ENDBRANCH  10  11
ENDBRANCH   1  10
BRANCH   2  26
ATOM     26  C   UNL     1       4.872  -5.080  26.403  0.00  0.00    +0.209 C 
BRANCH  26  27
ATOM     27  O   UNL     1       5.330  -6.237  27.044  0.00  0.00    -0.282 OA
BRANCH  27  28
ATOM     28  P   UNL     1       5.883  -6.077  28.676  0.00  0.00    +0.473 P 
ATOM     29  O   UNL     1       6.377  -5.934  30.136  0.00  0.00    -0.228 OA
BRANCH  28  30
ATOM     30  O   UNL     1       5.730  -7.703  28.775  0.00  0.00    -0.303 OA
ATOM     31  H   UNL     1       4.935  -7.858  29.323  0.00  0.00    +0.222 HD
ENDBRANCH  28  30
BRANCH  28  32
ATOM     32  O   UNL     1       7.364  -6.115  27.990  0.00  0.00    -0.303 OA
ATOM     33  H   UNL     1       7.474  -6.953  27.502  0.00  0.00    +0.222 HD
ENDBRANCH  28  32
ENDBRANCH  27  28
ENDBRANCH  26  27
ENDBRANCH   2  26
TORSDOF 17
ENDMDL
MODEL 2
REMARK VINA RESULT:      -6.0      1.497      2.175
REMARK  Name = 
REMARK  19 active torsions:
REMARK  status: ('A' for Active; 'I' for Inactive)
REMARK    1  A    between atoms: C_1  and  C_2
REMARK    2  A    between atoms: C_2  and  N_4
REMARK    3  A    between atoms: C_2  and  C_20
REMARK    4  A    between atoms: N_4  and  C_5
REMARK    5  A    between atoms: C_5  and  C_6
REMARK    6  A    between atoms: C_7  and  O_8
REMARK    7  A    between atoms: C_9  and  C_10
REMARK    8  A    between atoms: C_13  and  C_14
REMARK    9  A    between atoms: C_14  and  O_15
REMARK   10  A    between atoms: O_15  and  P_16
REMARK   11  A    between atoms: P_16  and  O_17
REMARK   12  A    between atoms: P_16  and  O_18
REMARK   13  A    between atoms: C_20  and  C_22
REMARK   14  A    between atoms: C_22  and  C_23
REMARK   15  A    between atoms: C_23  and  C_24
REMARK   16  A    between atoms: C_24  and  C_25
REMARK   17  A    between atoms: C_25  and  C_26
REMARK   18  A    between atoms: C_26  and  C_27
REMARK   19  A    between atoms: C_27  and  O_28
REMARK                            x       y       z     vdW  Elec       q    Type
REMARK                         _______ _______ _______ _____ _____    ______ ____
ROOT
ATOM      1  C   UNL     1       6.773  -4.555  24.461  0.00  0.00    +0.016 A 
ATOM      2  C   UNL     1       5.538  -5.004  25.010  0.00  0.00    +0.005 A 
ATOM      3  C   UNL     1       4.634  -5.638  24.151  0.00  0.00    +0.117 A 
ATOM      4  N   UNL     1       4.838  -5.870  22.842  0.00  0.00    -0.256 NA
ATOM      5  C   UNL     1       6.003  -5.436  22.313  0.00  0.00    +0.080 A 
ATOM      6  C   UNL     1       6.200  -5.772  20.866  0.00  0.00    +0.069 C 
ATOM      7  C   UNL     1       6.967  -4.765  23.075  0.00  0.00    +0.142 A 
ENDROOT
BRANCH   7   8
ATOM      8  O   UNL     1       8.100  -4.330  22.435  0.00  0.00    -0.505 OA
ATOM      9  H   UNL     1       7.828  -3.599  21.840  0.00  0.00    +0.292 HD
ENDBRANCH   7   8
BRANCH   1  10
ATOM     10  C   UNL     1       7.819  -3.807  25.304  0.00  0.00    +0.121 C 
BRANCH  10  11
ATOM     11  N   UNL     1       8.267  -2.536  24.669  0.00  0.00    -0.303 NA
ATOM     12  H   UNL     1       9.235  -2.402  24.978  0.00  0.00    +0.123 HD
BRANCH  11  14
ATOM     13  C   UNL     1       6.490  -0.841  24.061  0.00  0.00    +0.032 C 
ATOM     14  C   UNL     1       7.527  -1.311  25.081  0.00  0.00    +0.118 C 
BRANCH  14  15
ATOM     15  C   UNL     1       8.460  -0.150  25.472  0.00  0.00    +0.150 C 
ATOM     16  O   UNL     1       9.604  -0.359  25.884  0.00  0.00    -0.296 OA
BRANCH  15  17
ATOM     17  C   UNL     1       7.965   1.279  25.262  0.00  0.00    +0.076 C 
BRANCH  17  18
ATOM     18  C   UNL     1       8.976   2.225  24.619  0.00  0.00    +0.008 C 
BRANCH  18  19
ATOM     19  C   UNL     1       8.842   2.392  23.103  0.00  0.00    +0.001 C 
BRANCH  19  20
ATOM     20  C   UNL     1       9.892   1.677  22.247  0.00  0.00    +0.011 C 
BRANCH  20  21
ATOM     21  C   UNL     1       9.334   0.538  21.391  0.00  0.00    +0.120 C 
BRANCH  21  22
ATOM     22  C   UNL     1       9.600  -0.813  22.022  0.00  0.00    +0.305 C 
ATOM     23  O   UNL     1       9.057  -1.858  21.719  0.00  0.00    -0.251 OA
BRANCH  22  24
ATOM     24  O   UNL     1      10.545  -0.748  22.994  0.00  0.00    -0.481 OA
ATOM     25  H   UNL     1      11.245  -0.087  22.816  0.00  0.00    +0.295 HD
ENDBRANCH  22  24
ENDBRANCH  21  22
ENDBRANCH  20  21
ENDBRANCH  19  20
ENDBRANCH  18  19
ENDBRANCH  17  18
ENDBRANCH  15  17
ENDBRANCH  14  15
ENDBRANCH  11  14
ENDBRANCH  10  11
ENDBRANCH   1  10
BRANCH   2  26
ATOM     26  C   UNL     1       5.101  -4.913  26.456  0.00  0.00    +0.209 C 
BRANCH  26  27
ATOM     27  O   UNL     1       5.355  -6.133  27.093  0.00  0.00    -0.282 OA
BRANCH  27  28
ATOM     28  P   UNL     1       5.888  -6.076  28.738  0.00  0.00    +0.473 P 
ATOM     29  O   UNL     1       6.365  -6.025  30.210  0.00  0.00    -0.228 OA
BRANCH  28  30
ATOM     30  O   UNL     1       5.642  -7.694  28.763  0.00  0.00    -0.303 OA
ATOM     31  H   UNL     1       4.839  -7.844  28.226  0.00  0.00    +0.222 HD
ENDBRANCH  28  30
BRANCH  28  32
ATOM     32  O   UNL     1       7.376  -6.169  28.073  0.00  0.00    -0.303 OA
ATOM     33  H   UNL     1       8.050  -6.060  28.770  0.00  0.00    +0.222 HD
ENDBRANCH  28  32
ENDBRANCH  27  28
ENDBRANCH  26  27
ENDBRANCH   2  26
TORSDOF 17
ENDMDL
MODEL 3
REMARK VINA RESULT:      -5.9      2.195      3.630
REMARK  Name = 
REMARK  19 active torsions:
REMARK  status: ('A' for Active; 'I' for Inactive)
REMARK    1  A    between atoms: C_1  and  C_2
REMARK    2  A    between atoms: C_2  and  N_4
REMARK    3  A    between atoms: C_2  and  C_20
REMARK    4  A    between atoms: N_4  and  C_5
REMARK    5  A    between atoms: C_5  and  C_6
REMARK    6  A    between atoms: C_7  and  O_8
REMARK    7  A    between atoms: C_9  and  C_10
REMARK    8  A    between atoms: C_13  and  C_14
REMARK    9  A    between atoms: C_14  and  O_15
REMARK   10  A    between atoms: O_15  and  P_16
REMARK   11  A    between atoms: P_16  and  O_17
REMARK   12  A    between atoms: P_16  and  O_18
REMARK   13  A    between atoms: C_20  and  C_22
REMARK   14  A    between atoms: C_22  and  C_23
REMARK   15  A    between atoms: C_23  and  C_24
REMARK   16  A    between atoms: C_24  and  C_25
REMARK   17  A    between atoms: C_25  and  C_26
REMARK   18  A    between atoms: C_26  and  C_27
REMARK   19  A    between atoms: C_27  and  O_28
REMARK                            x       y       z     vdW  Elec       q    Type
REMARK                         _______ _______ _______ _____ _____    ______ ____
ROOT
ATOM      1  C   UNL     1       5.321  -3.475  24.161  0.00  0.00    +0.016 A 
ATOM      2  C   UNL     1       6.186  -4.297  23.383  0.00  0.00    +0.005 A 
ATOM      3  C   UNL     1       5.618  -5.379  22.701  0.00  0.00    +0.117 A 
ATOM      4  N   UNL     1       4.314  -5.705  22.710  0.00  0.00    -0.256 NA
ATOM      5  C   UNL     1       3.491  -4.936  23.456  0.00  0.00    +0.080 A 
ATOM      6  C   UNL     1       2.041  -5.312  23.382  0.00  0.00    +0.069 C 
ATOM      7  C   UNL     1       3.956  -3.845  24.200  0.00  0.00    +0.142 A 
ENDROOT
BRANCH   7   8
ATOM      8  O   UNL     1       3.045  -3.150  24.955  0.00  0.00    -0.505 OA
ATOM      9  H   UNL     1       3.258  -2.198  24.853  0.00  0.00    +0.292 HD
ENDBRANCH   7   8
BRANCH   1  10
ATOM     10  C   UNL     1       5.845  -2.287  24.985  0.00  0.00    +0.121 C 
BRANCH  10  11
ATOM     11  N   UNL     1       5.341  -0.976  24.490  0.00  0.00    -0.303 NA
ATOM     12  H   UNL     1       5.064  -1.139  23.516  0.00  0.00    +0.123 HD
BRANCH  11  14
ATOM     13  C   UNL     1       5.753   1.500  24.801  0.00  0.00    +0.032 C 
ATOM     14  C   UNL     1       6.337   0.131  24.458  0.00  0.00    +0.118 C 
BRANCH  14  15
ATOM     15  C   UNL     1       7.118   0.197  23.133  0.00  0.00    +0.150 C 
ATOM     16  O   UNL     1       7.381  -0.825  22.492  0.00  0.00    -0.296 OA
BRANCH  15  17
ATOM     17  C   UNL     1       7.495   1.570  22.582  0.00  0.00    +0.076 C 
BRANCH  17  18
ATOM     18  C   UNL     1       8.672   1.574  21.608  0.00  0.00    +0.008 C 
BRANCH  18  19
ATOM     19  C   UNL     1      10.022   1.964  22.217  0.00  0.00    +0.001 C 
BRANCH  19  20
ATOM     20  C   UNL     1      10.091   2.000  23.747  0.00  0.00    +0.011 C 
BRANCH  20  21
ATOM     21  C   UNL     1      10.964   0.906  24.362  0.00  0.00    +0.120 C 
BRANCH  21  22
ATOM     22  C   UNL     1      10.149  -0.318  24.723  0.00  0.00    +0.305 C 
ATOM     23  O   UNL     1       9.536  -0.483  25.760  0.00  0.00    -0.251 OA
BRANCH  22  24
ATOM     24  O   UNL     1      10.162  -1.252  23.738  0.00  0.00    -0.481 OA
ATOM     25  H   UNL     1      10.836  -1.084  23.048  0.00  0.00    +0.295 HD
ENDBRANCH  22  24
ENDBRANCH  21  22
ENDBRANCH  20  21
ENDBRANCH  19  20
ENDBRANCH  18  19
ENDBRANCH  17  18
ENDBRANCH  15  17
ENDBRANCH  14  15
ENDBRANCH  11  14
ENDBRANCH  10  11
ENDBRANCH   1  10
BRANCH   2  26
ATOM     26  C   UNL     1       7.671  -4.104  23.168  0.00  0.00    +0.209 C 
BRANCH  26  27
ATOM     27  O   UNL     1       8.370  -5.122  23.827  0.00  0.00    -0.282 OA
BRANCH  27  28
ATOM     28  P   UNL     1       8.498  -5.015  25.549  0.00  0.00    +0.473 P 
ATOM     29  O   UNL     1       8.613  -4.919  27.090  0.00  0.00    -0.228 OA
BRANCH  28  30
ATOM     30  O   UNL     1       9.897  -5.850  25.391  0.00  0.00    -0.303 OA
ATOM     31  H   UNL     1       9.954  -6.417  26.186  0.00  0.00    +0.222 HD
ENDBRANCH  28  30
BRANCH  28  32
ATOM     32  O   UNL     1       9.165  -3.559  25.230  0.00  0.00    -0.303 OA
ATOM     33  H   UNL     1       9.105  -2.994  26.024  0.00  0.00    +0.222 HD
ENDBRANCH  28  32
ENDBRANCH  27  28
ENDBRANCH  26  27
ENDBRANCH   2  26
TORSDOF 17
ENDMDL
MODEL 4
REMARK VINA RESULT:      -5.8      2.301      3.369
REMARK  Name = 
REMARK  19 active torsions:
REMARK  status: ('A' for Active; 'I' for Inactive)
REMARK    1  A    between atoms: C_1  and  C_2
REMARK    2  A    between atoms: C_2  and  N_4
REMARK    3  A    between atoms: C_2  and  C_20
REMARK    4  A    between atoms: N_4  and  C_5
REMARK    5  A    between atoms: C_5  and  C_6
REMARK    6  A    between atoms: C_7  and  O_8
REMARK    7  A    between atoms: C_9  and  C_10
REMARK    8  A    between atoms: C_13  and  C_14
REMARK    9  A    between atoms: C_14  and  O_15
REMARK   10  A    between atoms: O_15  and  P_16
REMARK   11  A    between atoms: P_16  and  O_17
REMARK   12  A    between atoms: P_16  and  O_18
REMARK   13  A    between atoms: C_20  and  C_22
REMARK   14  A    between atoms: C_22  and  C_23
REMARK   15  A    between atoms: C_23  and  C_24
REMARK   16  A    between atoms: C_24  and  C_25
REMARK   17  A    between atoms: C_25  and  C_26
REMARK   18  A    between atoms: C_26  and  C_27
REMARK   19  A    between atoms: C_27  and  O_28
REMARK                            x       y       z     vdW  Elec       q    Type
REMARK                         _______ _______ _______ _____ _____    ______ ____
ROOT
ATOM      1  C   UNL     1       5.172  -3.810  24.305  0.00  0.00    +0.016 A 
ATOM      2  C   UNL     1       6.020  -4.577  23.457  0.00  0.00    +0.005 A 
ATOM      3  C   UNL     1       5.423  -5.538  22.633  0.00  0.00    +0.117 A 
ATOM      4  N   UNL     1       4.105  -5.793  22.567  0.00  0.00    -0.256 NA
ATOM      5  C   UNL     1       3.296  -5.076  23.379  0.00  0.00    +0.080 A 
ATOM      6  C   UNL     1       1.833  -5.363  23.221  0.00  0.00    +0.069 C 
ATOM      7  C   UNL     1       3.789  -4.109  24.262  0.00  0.00    +0.142 A 
ENDROOT
BRANCH   7   8
ATOM      8  O   UNL     1       2.890  -3.463  25.071  0.00  0.00    -0.505 OA
ATOM      9  H   UNL     1       2.808  -2.546  24.730  0.00  0.00    +0.292 HD
ENDBRANCH   7   8
BRANCH   1  10
ATOM     10  C   UNL     1       5.727  -2.760  25.281  0.00  0.00    +0.121 C 
BRANCH  10  11
ATOM     11  N   UNL     1       5.310  -1.373  24.932  0.00  0.00    -0.303 NA
ATOM     12  H   UNL     1       4.919  -1.434  23.986  0.00  0.00    +0.123 HD
BRANCH  11  14
ATOM     13  C   UNL     1       5.935   1.035  24.473  0.00  0.00    +0.032 C 
ATOM     14  C   UNL     1       6.405  -0.365  24.864  0.00  0.00    +0.118 C 
BRANCH  14  15
ATOM     15  C   UNL     1       7.574  -0.810  23.966  0.00  0.00    +0.150 C 
ATOM     16  O   UNL     1       7.447  -0.890  22.741  0.00  0.00    -0.296 OA
BRANCH  15  17
ATOM     17  C   UNL     1       8.928  -1.075  24.618  0.00  0.00    +0.076 C 
BRANCH  17  18
ATOM     18  C   UNL     1       9.617   0.156  25.201  0.00  0.00    +0.008 C 
BRANCH  18  19
ATOM     19  C   UNL     1      10.751   0.735  24.350  0.00  0.00    +0.001 C 
BRANCH  19  20
ATOM     20  C   UNL     1      10.595   2.196  23.917  0.00  0.00    +0.011 C 
BRANCH  20  21
ATOM     21  C   UNL     1       9.163   2.594  23.553  0.00  0.00    +0.120 C 
BRANCH  21  22
ATOM     22  C   UNL     1       8.846   2.268  22.108  0.00  0.00    +0.305 C 
ATOM     23  O   UNL     1       7.732   2.171  21.630  0.00  0.00    -0.251 OA
BRANCH  22  24
ATOM     24  O   UNL     1       9.967   2.093  21.364  0.00  0.00    -0.481 OA
ATOM     25  H   UNL     1      10.081   1.178  21.036  0.00  0.00    +0.295 HD
ENDBRANCH  22  24
ENDBRANCH  21  22
ENDBRANCH  20  21
ENDBRANCH  19  20
ENDBRANCH  18  19
ENDBRANCH  17  18
ENDBRANCH  15  17
ENDBRANCH  14  15
ENDBRANCH  11  14
ENDBRANCH  10  11
ENDBRANCH   1  10
BRANCH   2  26
ATOM     26  C   UNL     1       7.520  -4.439  23.307  0.00  0.00    +0.209 C 
BRANCH  26  27
ATOM     27  O   UNL     1       8.155  -5.387  24.118  0.00  0.00    -0.282 OA
BRANCH  27  28
ATOM     28  P   UNL     1       8.836  -4.831  25.608  0.00  0.00    +0.473 P 
ATOM     29  O   UNL     1       9.446  -4.333  26.941  0.00  0.00    -0.228 OA
BRANCH  28  30
ATOM     30  O   UNL     1       7.935  -5.990  26.330  0.00  0.00    -0.303 OA
ATOM     31  H   UNL     1       7.823  -6.691  25.657  0.00  0.00    +0.222 HD
ENDBRANCH  28  30
BRANCH  28  32
ATOM     32  O   UNL     1      10.065  -5.831  25.213  0.00  0.00    -0.303 OA
ATOM     33  H   UNL     1       9.819  -6.351  24.424  0.00  0.00    +0.222 HD
ENDBRANCH  28  32
ENDBRANCH  27  28
ENDBRANCH  26  27
ENDBRANCH   2  26
TORSDOF 17
ENDMDL
MODEL 5
REMARK VINA RESULT:      -5.8      1.556      3.046
REMARK  Name = 
REMARK  19 active torsions:
REMARK  status: ('A' for Active; 'I' for Inactive)
REMARK    1  A    between atoms: C_1  and  C_2
REMARK    2  A    between atoms: C_2  and  N_4
REMARK    3  A    between atoms: C_2  and  C_20
REMARK    4  A    between atoms: N_4  and  C_5
REMARK    5  A    between atoms: C_5  and  C_6
REMARK    6  A    between atoms: C_7  and  O_8
REMARK    7  A    between atoms: C_9  and  C_10
REMARK    8  A    between atoms: C_13  and  C_14
REMARK    9  A    between atoms: C_14  and  O_15
REMARK   10  A    between atoms: O_15  and  P_16
REMARK   11  A    between atoms: P_16  and  O_17
REMARK   12  A    between atoms: P_16  and  O_18
REMARK   13  A    between atoms: C_20  and  C_22
REMARK   14  A    between atoms: C_22  and  C_23
REMARK   15  A    between atoms: C_23  and  C_24
REMARK   16  A    between atoms: C_24  and  C_25
REMARK   17  A    between atoms: C_25  and  C_26
REMARK   18  A    between atoms: C_26  and  C_27
REMARK   19  A    between atoms: C_27  and  O_28
REMARK                            x       y       z     vdW  Elec       q    Type
REMARK                         _______ _______ _______ _____ _____    ______ ____
ROOT
ATOM      1  C   UNL     1       6.182  -3.280  24.004  0.00  0.00    +0.016 A 
ATOM      2  C   UNL     1       6.802  -4.245  24.849  0.00  0.00    +0.005 A 
ATOM      3  C   UNL     1       7.176  -5.467  24.279  0.00  0.00    +0.117 A 
ATOM      4  N   UNL     1       7.007  -5.807  22.990  0.00  0.00    -0.256 NA
ATOM      5  C   UNL     1       6.408  -4.900  22.186  0.00  0.00    +0.080 A 
ATOM      6  C   UNL     1       6.298  -5.311  20.748  0.00  0.00    +0.069 C 
ATOM      7  C   UNL     1       5.969  -3.657  22.657  0.00  0.00    +0.142 A 
ENDROOT
BRANCH   7   8
ATOM      8  O   UNL     1       5.339  -2.823  21.769  0.00  0.00    -0.505 OA
ATOM      9  H   UNL     1       4.376  -2.900  21.941  0.00  0.00    +0.292 HD
ENDBRANCH   7   8
BRANCH   1  10
ATOM     10  C   UNL     1       5.692  -1.923  24.536  0.00  0.00    +0.121 C 
BRANCH  10  11
ATOM     11  N   UNL     1       6.098  -0.785  23.666  0.00  0.00    -0.303 NA
ATOM     12  H   UNL     1       6.942  -1.101  23.176  0.00  0.00    +0.123 HD
BRANCH  11  14
ATOM     13  C   UNL     1       5.391   1.003  25.310  0.00  0.00    +0.032 C 
ATOM     14  C   UNL     1       6.475   0.470  24.375  0.00  0.00    +0.118 C 
BRANCH  14  15
ATOM     15  C   UNL     1       6.953   1.578  23.419  0.00  0.00    +0.150 C 
ATOM     16  O   UNL     1       6.169   2.148  22.656  0.00  0.00    -0.296 OA
BRANCH  15  17
ATOM     17  C   UNL     1       8.414   2.017  23.491  0.00  0.00    +0.076 C 
BRANCH  17  18
ATOM     18  C   UNL     1       9.183   1.919  22.176  0.00  0.00    +0.008 C 
BRANCH  18  19
ATOM     19  C   UNL     1       9.034   0.591  21.429  0.00  0.00    +0.001 C 
BRANCH  19  20
ATOM     20  C   UNL     1       9.981  -0.536  21.855  0.00  0.00    +0.011 C 
BRANCH  20  21
ATOM     21  C   UNL     1       9.275  -1.835  22.248  0.00  0.00    +0.120 C 
BRANCH  21  22
ATOM     22  C   UNL     1       9.614  -2.244  23.666  0.00  0.00    +0.305 C 
ATOM     23  O   UNL     1      10.150  -3.285  23.996  0.00  0.00    -0.251 OA
BRANCH  22  24
ATOM     24  O   UNL     1       9.255  -1.300  24.572  0.00  0.00    -0.481 OA
ATOM     25  H   UNL     1       9.244  -0.391  24.208  0.00  0.00    +0.295 HD
ENDBRANCH  22  24
ENDBRANCH  21  22
ENDBRANCH  20  21
ENDBRANCH  19  20
ENDBRANCH  18  19
ENDBRANCH  17  18
ENDBRANCH  15  17
ENDBRANCH  14  15
ENDBRANCH  11  14
ENDBRANCH  10  11
ENDBRANCH   1  10
BRANCH   2  26
ATOM     26  C   UNL     1       7.152  -4.080  26.312  0.00  0.00    +0.209 C 
BRANCH  26  27
ATOM     27  O   UNL     1       6.060  -4.469  27.096  0.00  0.00    -0.282 OA
BRANCH  27  28
ATOM     28  P   UNL     1       6.298  -5.782  28.196  0.00  0.00    +0.473 P 
ATOM     29  O   UNL     1       6.511  -6.958  29.181  0.00  0.00    -0.228 OA
BRANCH  28  30
ATOM     30  O   UNL     1       5.628  -6.731  27.044  0.00  0.00    -0.303 OA
ATOM     31  H   UNL     1       5.333  -6.119  26.340  0.00  0.00    +0.222 HD
ENDBRANCH  28  30
BRANCH  28  32
ATOM     32  O   UNL     1       7.798  -5.815  27.554  0.00  0.00    -0.303 OA
ATOM     33  H   UNL     1       8.126  -6.734  27.542  0.00  0.00    +0.222 HD
ENDBRANCH  28  32
ENDBRANCH  27  28
ENDBRANCH  26  27
ENDBRANCH   2  26
TORSDOF 17
ENDMDL
MODEL 6
REMARK VINA RESULT:      -5.7      2.531      2.912
REMARK  Name = 
REMARK  19 active torsions:
REMARK  status: ('A' for Active; 'I' for Inactive)
REMARK    1  A    between atoms: C_1  and  C_2
REMARK    2  A    between atoms: C_2  and  N_4
REMARK    3  A    between atoms: C_2  and  C_20
REMARK    4  A    between atoms: N_4  and  C_5
REMARK    5  A    between atoms: C_5  and  C_6
REMARK    6  A    between atoms: C_7  and  O_8
REMARK    7  A    between atoms: C_9  and  C_10
REMARK    8  A    between atoms: C_13  and  C_14
REMARK    9  A    between atoms: C_14  and  O_15
REMARK   10  A    between atoms: O_15  and  P_16
REMARK   11  A    between atoms: P_16  and  O_17
REMARK   12  A    between atoms: P_16  and  O_18
REMARK   13  A    between atoms: C_20  and  C_22
REMARK   14  A    between atoms: C_22  and  C_23
REMARK   15  A    between atoms: C_23  and  C_24
REMARK   16  A    between atoms: C_24  and  C_25
REMARK   17  A    between atoms: C_25  and  C_26
REMARK   18  A    between atoms: C_26  and  C_27
REMARK   19  A    between atoms: C_27  and  O_28
REMARK                            x       y       z     vdW  Elec       q    Type
REMARK                         _______ _______ _______ _____ _____    ______ ____
ROOT
ATOM      1  C   UNL     1       6.466  -3.686  24.483  0.00  0.00    +0.016 A 
ATOM      2  C   UNL     1       5.068  -3.414  24.523  0.00  0.00    +0.005 A 
ATOM      3  C   UNL     1       4.263  -3.987  23.533  0.00  0.00    +0.117 A 
ATOM      4  N   UNL     1       4.700  -4.787  22.544  0.00  0.00    -0.256 NA
ATOM      5  C   UNL     1       6.026  -5.039  22.494  0.00  0.00    +0.080 A 
ATOM      6  C   UNL     1       6.446  -5.982  21.407  0.00  0.00    +0.069 C 
ATOM      7  C   UNL     1       6.926  -4.496  23.418  0.00  0.00    +0.142 A 
ENDROOT
BRANCH   7   8
ATOM      8  O   UNL     1       8.259  -4.781  23.258  0.00  0.00    -0.505 OA
ATOM      9  H   UNL     1       8.430  -5.617  23.742  0.00  0.00    +0.292 HD
ENDBRANCH   7   8
BRANCH   1  10
ATOM     10  C   UNL     1       7.447  -3.072  25.495  0.00  0.00    +0.121 C 
BRANCH  10  11
ATOM     11  N   UNL     1       7.846  -1.682  25.138  0.00  0.00    -0.303 NA
ATOM     12  H   UNL     1       7.336  -1.463  24.275  0.00  0.00    +0.123 HD
BRANCH  11  14
ATOM     13  C   UNL     1       9.812  -0.092  25.186  0.00  0.00    +0.032 C 
ATOM     14  C   UNL     1       9.289  -1.482  24.828  0.00  0.00    +0.118 C 
BRANCH  14  15
ATOM     15  C   UNL     1       9.644  -1.831  23.371  0.00  0.00    +0.150 C 
ATOM     16  O   UNL     1      10.600  -2.562  23.101  0.00  0.00    -0.296 OA
BRANCH  15  17
ATOM     17  C   UNL     1       8.733  -1.313  22.260  0.00  0.00    +0.076 C 
BRANCH  17  18
ATOM     18  C   UNL     1       9.354  -0.248  21.359  0.00  0.00    +0.008 C 
BRANCH  18  19
ATOM     19  C   UNL     1       9.697   1.074  22.050  0.00  0.00    +0.001 C 
BRANCH  19  20
ATOM     20  C   UNL     1       8.687   2.213  21.874  0.00  0.00    +0.011 C 
BRANCH  20  21
ATOM     21  C   UNL     1       7.225   1.781  22.003  0.00  0.00    +0.120 C 
BRANCH  21  22
ATOM     22  C   UNL     1       6.856   1.493  23.444  0.00  0.00    +0.305 C 
ATOM     23  O   UNL     1       7.177   2.162  24.407  0.00  0.00    -0.251 OA
BRANCH  22  24
ATOM     24  O   UNL     1       6.098   0.374  23.564  0.00  0.00    -0.481 OA
ATOM     25  H   UNL     1       5.135   0.547  23.516  0.00  0.00    +0.295 HD
ENDBRANCH  22  24
ENDBRANCH  21  22
ENDBRANCH  20  21
ENDBRANCH  19  20
ENDBRANCH  18  19
ENDBRANCH  17  18
ENDBRANCH  15  17
ENDBRANCH  14  15
ENDBRANCH  11  14
ENDBRANCH  10  11
ENDBRANCH   1  10
BRANCH   2  26
ATOM     26  C   UNL     1       4.332  -2.597  25.562  0.00  0.00    +0.209 C 
BRANCH  26  27
ATOM     27  O   UNL     1       4.728  -1.258  25.464  0.00  0.00    -0.282 OA
BRANCH  27  28
ATOM     28  P   UNL     1       4.586  -0.280  26.884  0.00  0.00    +0.473 P 
ATOM     29  O   UNL     1       4.459   0.595  28.155  0.00  0.00    -0.228 OA
BRANCH  28  30
ATOM     30  O   UNL     1       5.049  -1.610  27.718  0.00  0.00    -0.303 OA
ATOM     31  H   UNL     1       5.981  -1.452  27.966  0.00  0.00    +0.222 HD
ENDBRANCH  28  30
BRANCH  28  32
ATOM     32  O   UNL     1       6.105   0.182  26.501  0.00  0.00    -0.303 OA
ATOM     33  H   UNL     1       6.131   0.470  25.569  0.00  0.00    +0.222 HD
ENDBRANCH  28  32
ENDBRANCH  27  28
ENDBRANCH  26  27
ENDBRANCH   2  26
TORSDOF 17
ENDMDL
MODEL 7
REMARK VINA RESULT:      -5.7      1.727      4.071
REMARK  Name = 
REMARK  19 active torsions:
REMARK  status: ('A' for Active; 'I' for Inactive)
REMARK    1  A    between atoms: C_1  and  C_2
REMARK    2  A    between atoms: C_2  and  N_4
REMARK    3  A    between atoms: C_2  and  C_20
REMARK    4  A    between atoms: N_4  and  C_5
REMARK    5  A    between atoms: C_5  and  C_6
REMARK    6  A    between atoms: C_7  and  O_8
REMARK    7  A    between atoms: C_9  and  C_10
REMARK    8  A    between atoms: C_13  and  C_14
REMARK    9  A    between atoms: C_14  and  O_15
REMARK   10  A    between atoms: O_15  and  P_16
REMARK   11  A    between atoms: P_16  and  O_17
REMARK   12  A    between atoms: P_16  and  O_18
REMARK   13  A    between atoms: C_20  and  C_22
REMARK   14  A    between atoms: C_22  and  C_23
REMARK   15  A    between atoms: C_23  and  C_24
REMARK   16  A    between atoms: C_24  and  C_25
REMARK   17  A    between atoms: C_25  and  C_26
REMARK   18  A    between atoms: C_26  and  C_27
REMARK   19  A    between atoms: C_27  and  O_28
REMARK                            x       y       z     vdW  Elec       q    Type
REMARK                         _______ _______ _______ _____ _____    ______ ____
ROOT
ATOM      1  C   UNL     1       6.240  -2.014  25.412  0.00  0.00    +0.016 A 
ATOM      2  C   UNL     1       7.235  -2.653  26.206  0.00  0.00    +0.005 A 
ATOM      3  C   UNL     1       8.262  -1.860  26.728  0.00  0.00    +0.117 A 
ATOM      4  N   UNL     1       8.386  -0.533  26.550  0.00  0.00    -0.256 NA
ATOM      5  C   UNL     1       7.452   0.077  25.788  0.00  0.00    +0.080 A 
ATOM      6  C   UNL     1       7.609   1.563  25.672  0.00  0.00    +0.069 C 
ATOM      7  C   UNL     1       6.396  -0.624  25.194  0.00  0.00    +0.142 A 
ENDROOT
BRANCH   7   8
ATOM      8  O   UNL     1       5.522   0.081  24.406  0.00  0.00    -0.505 OA
ATOM      9  H   UNL     1       5.822  -0.030  23.478  0.00  0.00    +0.292 HD
ENDBRANCH   7   8
BRANCH   1  10
ATOM     10  C   UNL     1       5.093  -2.797  24.753  0.00  0.00    +0.121 C 
BRANCH  10  11
ATOM     11  N   UNL     1       5.231  -2.882  23.273  0.00  0.00    -0.303 NA
ATOM     12  H   UNL     1       4.274  -2.938  22.910  0.00  0.00    +0.123 HD
BRANCH  11  14
ATOM     13  C   UNL     1       5.517  -5.391  23.429  0.00  0.00    +0.032 C 
ATOM     14  C   UNL     1       5.941  -4.086  22.757  0.00  0.00    +0.118 C 
BRANCH  14  15
ATOM     15  C   UNL     1       7.473  -3.939  22.789  0.00  0.00    +0.150 C 
ATOM     16  O   UNL     1       8.195  -4.844  23.215  0.00  0.00    -0.296 OA
BRANCH  15  17
ATOM     17  C   UNL     1       8.091  -2.671  22.204  0.00  0.00    +0.076 C 
BRANCH  17  18
ATOM     18  C   UNL     1       9.199  -2.043  23.047  0.00  0.00    +0.008 C 
BRANCH  18  19
ATOM     19  C   UNL     1      10.104  -1.055  22.306  0.00  0.00    +0.001 C 
BRANCH  19  20
ATOM     20  C   UNL     1       9.400  -0.036  21.405  0.00  0.00    +0.011 C 
BRANCH  20  21
ATOM     21  C   UNL     1       9.456   1.403  21.920  0.00  0.00    +0.120 C 
BRANCH  21  22
ATOM     22  C   UNL     1       8.071   2.001  22.050  0.00  0.00    +0.305 C 
ATOM     23  O   UNL     1       7.801   3.186  21.999  0.00  0.00    -0.251 OA
BRANCH  22  24
ATOM     24  O   UNL     1       7.117   1.053  22.230  0.00  0.00    -0.481 OA
ATOM     25  H   UNL     1       7.141   0.637  23.117  0.00  0.00    +0.295 HD
ENDBRANCH  22  24
ENDBRANCH  21  22
ENDBRANCH  20  21
ENDBRANCH  19  20
ENDBRANCH  18  19
ENDBRANCH  17  18
ENDBRANCH  15  17
ENDBRANCH  14  15
ENDBRANCH  11  14
ENDBRANCH  10  11
ENDBRANCH   1  10
BRANCH   2  26
ATOM     26  C   UNL     1       7.284  -4.114  26.597  0.00  0.00    +0.209 C 
BRANCH  26  27
ATOM     27  O   UNL     1       6.183  -4.414  27.408  0.00  0.00    -0.282 OA
BRANCH  27  28
ATOM     28  P   UNL     1       6.197  -5.931  28.240  0.00  0.00    +0.473 P 
ATOM     29  O   UNL     1       6.209  -7.288  28.984  0.00  0.00    -0.228 OA
BRANCH  28  30
ATOM     30  O   UNL     1       5.561  -6.566  26.872  0.00  0.00    -0.303 OA
ATOM     31  H   UNL     1       4.812  -5.983  26.637  0.00  0.00    +0.222 HD
ENDBRANCH  28  30
BRANCH  28  32
ATOM     32  O   UNL     1       7.744  -5.998  27.722  0.00  0.00    -0.303 OA
ATOM     33  H   UNL     1       8.109  -6.885  27.905  0.00  0.00    +0.222 HD
ENDBRANCH  28  32
ENDBRANCH  27  28
ENDBRANCH  26  27
ENDBRANCH   2  26
TORSDOF 17
ENDMDL
MODEL 8
REMARK VINA RESULT:      -5.6      3.467      7.523
REMARK  Name = 
REMARK  19 active torsions:
REMARK  status: ('A' for Active; 'I' for Inactive)
REMARK    1  A    between atoms: C_1  and  C_2
REMARK    2  A    between atoms: C_2  and  N_4
REMARK    3  A    between atoms: C_2  and  C_20
REMARK    4  A    between atoms: N_4  and  C_5
REMARK    5  A    between atoms: C_5  and  C_6
REMARK    6  A    between atoms: C_7  and  O_8
REMARK    7  A    between atoms: C_9  and  C_10
REMARK    8  A    between atoms: C_13  and  C_14
REMARK    9  A    between atoms: C_14  and  O_15
REMARK   10  A    between atoms: O_15  and  P_16
REMARK   11  A    between atoms: P_16  and  O_17
REMARK   12  A    between atoms: P_16  and  O_18
REMARK   13  A    between atoms: C_20  and  C_22
REMARK   14  A    between atoms: C_22  and  C_23
REMARK   15  A    between atoms: C_23  and  C_24
REMARK   16  A    between atoms: C_24  and  C_25
REMARK   17  A    between atoms: C_25  and  C_26
REMARK   18  A    between atoms: C_26  and  C_27
REMARK   19  A    between atoms: C_27  and  O_28
REMARK                            x       y       z     vdW  Elec       q    Type
REMARK                         _______ _______ _______ _____ _____    ______ ____
ROOT
ATOM      1  C   UNL     1       7.206  -1.817  23.778  0.00  0.00    +0.016 A 
ATOM      2  C   UNL     1       8.542  -1.403  24.045  0.00  0.00    +0.005 A 
ATOM      3  C   UNL     1       8.826  -0.895  25.317  0.00  0.00    +0.117 A 
ATOM      4  N   UNL     1       7.939  -0.773  26.320  0.00  0.00    -0.256 NA
ATOM      5  C   UNL     1       6.667  -1.153  26.069  0.00  0.00    +0.080 A 
ATOM      6  C   UNL     1       5.736  -1.048  27.239  0.00  0.00    +0.069 C 
ATOM      7  C   UNL     1       6.266  -1.649  24.823  0.00  0.00    +0.142 A 
ENDROOT
BRANCH   7   8
ATOM      8  O   UNL     1       4.943  -1.971  24.657  0.00  0.00    -0.505 OA
ATOM      9  H   UNL     1       4.619  -1.456  23.887  0.00  0.00    +0.292 HD
ENDBRANCH   7   8
BRANCH   1  10
ATOM     10  C   UNL     1       6.775  -2.348  22.401  0.00  0.00    +0.121 C 
BRANCH  10  11
ATOM     11  N   UNL     1       5.552  -3.195  22.469  0.00  0.00    -0.303 NA
ATOM     12  H   UNL     1       5.029  -2.858  23.284  0.00  0.00    +0.123 HD
BRANCH  11  14
ATOM     13  C   UNL     1       6.270  -5.400  21.457  0.00  0.00    +0.032 C 
ATOM     14  C   UNL     1       5.782  -4.649  22.695  0.00  0.00    +0.118 C 
BRANCH  14  15
ATOM     15  C   UNL     1       4.562  -5.360  23.309  0.00  0.00    +0.150 C 
ATOM     16  O   UNL     1       3.750  -5.965  22.603  0.00  0.00    -0.296 OA
BRANCH  15  17
ATOM     17  C   UNL     1       4.418  -5.370  24.829  0.00  0.00    +0.076 C 
BRANCH  17  18
ATOM     18  C   UNL     1       5.601  -5.970  25.586  0.00  0.00    +0.008 C 
BRANCH  18  19
ATOM     19  C   UNL     1       6.207  -5.073  26.669  0.00  0.00    +0.001 C 
BRANCH  19  20
ATOM     20  C   UNL     1       7.671  -5.342  27.031  0.00  0.00    +0.011 C 
BRANCH  20  21
ATOM     21  C   UNL     1       8.663  -4.360  26.406  0.00  0.00    +0.120 C 
BRANCH  21  22
ATOM     22  C   UNL     1       9.335  -4.952  25.184  0.00  0.00    +0.305 C 
ATOM     23  O   UNL     1       8.896  -4.928  24.050  0.00  0.00    -0.251 OA
BRANCH  22  24
ATOM     24  O   UNL     1      10.525  -5.531  25.483  0.00  0.00    -0.481 OA
ATOM     25  H   UNL     1      10.516  -6.507  25.408  0.00  0.00    +0.295 HD
ENDBRANCH  22  24
ENDBRANCH  21  22
ENDBRANCH  20  21
ENDBRANCH  19  20
ENDBRANCH  18  19
ENDBRANCH  17  18
ENDBRANCH  15  17
ENDBRANCH  14  15
ENDBRANCH  11  14
ENDBRANCH  10  11
ENDBRANCH   1  10
BRANCH   2  26
ATOM     26  C   UNL     1       9.726  -1.493  23.107  0.00  0.00    +0.209 C 
BRANCH  26  27
ATOM     27  O   UNL     1      10.137  -0.203  22.755  0.00  0.00    -0.282 OA
BRANCH  27  28
ATOM     28  P   UNL     1       8.985   0.810  21.956  0.00  0.00    +0.473 P 
ATOM     29  O   UNL     1       7.953   1.717  21.241  0.00  0.00    -0.228 OA
BRANCH  28  30
ATOM     30  O   UNL     1      10.239   1.815  21.648  0.00  0.00    -0.303 OA
ATOM     31  H   UNL     1      10.019   2.654  22.100  0.00  0.00    +0.222 HD
ENDBRANCH  28  30
BRANCH  28  32
ATOM     32  O   UNL     1       9.272  -0.170  20.682  0.00  0.00    -0.303 OA
ATOM     33  H   UNL     1      10.228  -0.173  20.485  0.00  0.00    +0.222 HD
ENDBRANCH  28  32
ENDBRANCH  27  28
ENDBRANCH  26  27
ENDBRANCH   2  26
TORSDOF 17
ENDMDL
MODEL 9
REMARK VINA RESULT:      -5.5      2.318      3.801
REMARK  Name = 
REMARK  19 active torsions:
REMARK  status: ('A' for Active; 'I' for Inactive)
REMARK    1  A    between atoms: C_1  and  C_2
REMARK    2  A    between atoms: C_2  and  N_4
REMARK    3  A    between atoms: C_2  and  C_20
REMARK    4  A    between atoms: N_4  and  C_5
REMARK    5  A    between atoms: C_5  and  C_6
REMARK    6  A    between atoms: C_7  and  O_8
REMARK    7  A    between atoms: C_9  and  C_10
REMARK    8  A    between atoms: C_13  and  C_14
REMARK    9  A    between atoms: C_14  and  O_15
REMARK   10  A    between atoms: O_15  and  P_16
REMARK   11  A    between atoms: P_16  and  O_17
REMARK   12  A    between atoms: P_16  and  O_18
REMARK   13  A    between atoms: C_20  and  C_22
REMARK   14  A    between atoms: C_22  and  C_23
REMARK   15  A    between atoms: C_23  and  C_24
REMARK   16  A    between atoms: C_24  and  C_25
REMARK   17  A    between atoms: C_25  and  C_26
REMARK   18  A    between atoms: C_26  and  C_27
REMARK   19  A    between atoms: C_27  and  O_28
REMARK                            x       y       z     vdW  Elec       q    Type
REMARK                         _______ _______ _______ _____ _____    ______ ____
ROOT
ATOM      1  C   UNL     1       3.779  -5.869  24.197  0.00  0.00    +0.016 A 
ATOM      2  C   UNL     1       4.244  -6.587  25.336  0.00  0.00    +0.005 A 
ATOM      3  C   UNL     1       3.598  -7.785  25.660  0.00  0.00    +0.117 A 
ATOM      4  N   UNL     1       2.574  -8.325  24.976  0.00  0.00    -0.256 NA
ATOM      5  C   UNL     1       2.121  -7.642  23.902  0.00  0.00    +0.080 A 
ATOM      6  C   UNL     1       1.017  -8.319  23.147  0.00  0.00    +0.069 C 
ATOM      7  C   UNL     1       2.675  -6.420  23.504  0.00  0.00    +0.142 A 
ENDROOT
BRANCH   7   8
ATOM      8  O   UNL     1       2.118  -5.786  22.422  0.00  0.00    -0.505 OA
ATOM      9  H   UNL     1       2.696  -5.977  21.653  0.00  0.00    +0.292 HD
ENDBRANCH   7   8
BRANCH   1  10
ATOM     10  C   UNL     1       4.386  -4.520  23.778  0.00  0.00    +0.121 C 
BRANCH  10  11
ATOM     11  N   UNL     1       4.821  -4.503  22.353  0.00  0.00    -0.303 NA
ATOM     12  H   UNL     1       4.603  -5.437  21.989  0.00  0.00    +0.123 HD
BRANCH  11  14
ATOM     13  C   UNL     1       7.129  -5.539  22.396  0.00  0.00    +0.032 C 
ATOM     14  C   UNL     1       6.279  -4.299  22.124  0.00  0.00    +0.118 C 
BRANCH  14  15
ATOM     15  C   UNL     1       6.841  -3.085  22.884  0.00  0.00    +0.150 C 
ATOM     16  O   UNL     1       6.384  -1.952  22.710  0.00  0.00    -0.296 OA
BRANCH  15  17
ATOM     17  C   UNL     1       7.932  -3.324  23.925  0.00  0.00    +0.076 C 
BRANCH  17  18
ATOM     18  C   UNL     1       9.240  -2.576  23.674  0.00  0.00    +0.008 C 
BRANCH  18  19
ATOM     19  C   UNL     1       9.426  -1.293  24.489  0.00  0.00    +0.001 C 
BRANCH  19  20
ATOM     20  C   UNL     1      10.465  -0.299  23.960  0.00  0.00    +0.011 C 
BRANCH  20  21
ATOM     21  C   UNL     1       9.879   1.037  23.502  0.00  0.00    +0.120 C 
BRANCH  21  22
ATOM     22  C   UNL     1       9.830   1.134  21.991  0.00  0.00    +0.305 C 
ATOM     23  O   UNL     1       9.474   0.251  21.234  0.00  0.00    -0.251 OA
BRANCH  22  24
ATOM     24  O   UNL     1      10.230   2.350  21.541  0.00  0.00    -0.481 OA
ATOM     25  H   UNL     1      10.060   3.077  22.175  0.00  0.00    +0.295 HD
ENDBRANCH  22  24
ENDBRANCH  21  22
ENDBRANCH  20  21
ENDBRANCH  19  20
ENDBRANCH  18  19
ENDBRANCH  17  18
ENDBRANCH  15  17
ENDBRANCH  14  15
ENDBRANCH  11  14
ENDBRANCH  10  11
ENDBRANCH   1  10
BRANCH   2  26
ATOM     26  C   UNL     1       5.410  -6.219  26.227  0.00  0.00    +0.209 C 
BRANCH  26  27
ATOM     27  O   UNL     1       5.402  -7.039  27.362  0.00  0.00    -0.282 OA
BRANCH  27  28
ATOM     28  P   UNL     1       5.640  -6.277  28.896  0.00  0.00    +0.473 P 
ATOM     29  O   UNL     1       5.853  -5.595  30.270  0.00  0.00    -0.228 OA
BRANCH  28  30
ATOM     30  O   UNL     1       4.388  -7.188  29.425  0.00  0.00    -0.303 OA
ATOM     31  H   UNL     1       3.607  -6.874  28.925  0.00  0.00    +0.222 HD
ENDBRANCH  28  30
BRANCH  28  32
ATOM     32  O   UNL     1       6.762  -7.445  29.102  0.00  0.00    -0.303 OA
ATOM     33  H   UNL     1       7.503  -7.296  28.484  0.00  0.00    +0.222 HD
ENDBRANCH  28  32
ENDBRANCH  27  28
ENDBRANCH  26  27
ENDBRANCH   2  26
TORSDOF 17
ENDMDL
