MODEL 1
REMARK VINA RESULT:      -5.3      0.000      0.000
REMARK  Name = 
REMARK  2 active torsions:
REMARK  status: ('A' for Active; 'I' for Inactive)
REMARK    1  A    between atoms: C_2  and  C_3
REMARK    2  A    between atoms: C_12  and  S_13
REMARK                            x       y       z     vdW  Elec       q    Type
REMARK                         _______ _______ _______ _____ _____    ______ ____
ROOT
ATOM      1  C   UNL     1       8.798  -4.076  26.141  0.00  0.00    +0.007 C 
ATOM      2  C   UNL     1       7.554  -4.682  26.803  0.00  0.00    +0.041 C 
ATOM      3  C   UNL     1       6.607  -5.324  25.818  0.00  0.00    -0.024 A 
ATOM      4  C   UNL     1       5.601  -6.175  26.299  0.00  0.00    +0.005 A 
ATOM      5  C   UNL     1       4.697  -6.765  25.420  0.00  0.00    +0.002 A 
ATOM      6  C   UNL     1       4.785  -6.500  24.053  0.00  0.00    +0.031 A 
ATOM      7  C   UNL     1       5.772  -5.642  23.549  0.00  0.00    +0.133 A 
ATOM      8  C   UNL     1       6.687  -5.027  24.436  0.00  0.00    +0.057 A 
ATOM      9  N   UNL     1       7.762  -4.247  23.949  0.00  0.00    -0.342 N 
ATOM     10  H   UNL     1       7.481  -3.845  23.036  0.00  0.00    +0.146 HD
ATOM     11  C   UNL     1       8.364  -3.322  24.883  0.00  0.00    +0.105 C 
ATOM     12  C   UNL     1       9.853  -5.145  25.834  0.00  0.00    +0.009 C 
ENDROOT
BRANCH   7  13
ATOM     13  S   UNL     1       5.822  -5.364  21.777  0.00  0.00    +0.122 S 
ATOM     14  O   UNL     1       7.137  -5.874  21.229  0.00  0.00    -0.147 OA
ATOM     15  O   UNL     1       5.492  -3.919  21.491  0.00  0.00    -0.147 OA
ENDBRANCH   7  13
TORSDOF 1
ENDMDL
MODEL 2
REMARK VINA RESULT:      -5.2      3.212      4.139
REMARK  Name = 
REMARK  2 active torsions:
REMARK  status: ('A' for Active; 'I' for Inactive)
REMARK    1  A    between atoms: C_2  and  C_3
REMARK    2  A    between atoms: C_12  and  S_13
REMARK                            x       y       z     vdW  Elec       q    Type
REMARK                         _______ _______ _______ _____ _____    ______ ____
ROOT
ATOM      1  C   UNL     1       6.474  -4.411  22.108  0.00  0.00    +0.007 C 
ATOM      2  C   UNL     1       5.541  -5.613  22.300  0.00  0.00    +0.041 C 
ATOM      3  C   UNL     1       5.312  -5.965  23.750  0.00  0.00    -0.024 A 
ATOM      4  C   UNL     1       4.256  -6.829  24.081  0.00  0.00    +0.005 A 
ATOM      5  C   UNL     1       4.033  -7.193  25.405  0.00  0.00    +0.002 A 
ATOM      6  C   UNL     1       4.870  -6.705  26.410  0.00  0.00    +0.031 A 
ATOM      7  C   UNL     1       5.940  -5.853  26.104  0.00  0.00    +0.133 A 
ATOM      8  C   UNL     1       6.184  -5.488  24.758  0.00  0.00    +0.057 A 
ATOM      9  N   UNL     1       7.184  -4.543  24.429  0.00  0.00    -0.342 N 
ATOM     10  H   UNL     1       7.916  -4.580  25.161  0.00  0.00    +0.146 HD
ATOM     11  C   UNL     1       7.659  -4.555  23.064  0.00  0.00    +0.105 C 
ATOM     12  C   UNL     1       5.733  -3.083  22.307  0.00  0.00    +0.009 C 
ENDROOT
BRANCH   7  13
ATOM     13  S   UNL     1       6.960  -5.262  27.456  0.00  0.00    +0.122 S 
ATOM     14  O   UNL     1       8.351  -4.964  26.938  0.00  0.00    -0.147 OA
ATOM     15  O   UNL     1       6.868  -6.232  28.609  0.00  0.00    -0.147 OA
ENDBRANCH   7  13
TORSDOF 1
ENDMDL
MODEL 3
REMARK VINA RESULT:      -5.2      3.134      4.366
REMARK  Name = 
REMARK  2 active torsions:
REMARK  status: ('A' for Active; 'I' for Inactive)
REMARK    1  A    between atoms: C_2  and  C_3
REMARK    2  A    between atoms: C_12  and  S_13
REMARK                            x       y       z     vdW  Elec       q    Type
REMARK                         _______ _______ _______ _____ _____    ______ ____
ROOT
ATOM      1  C   UNL     1       6.451  -4.577  21.980  0.00  0.00    +0.007 C 
ATOM      2  C   UNL     1       7.564  -3.982  22.850  0.00  0.00    +0.041 C 
ATOM      3  C   UNL     1       7.552  -4.498  24.269  0.00  0.00    -0.024 A 
ATOM      4  C   UNL     1       8.677  -4.284  25.080  0.00  0.00    +0.005 A 
ATOM      5  C   UNL     1       8.689  -4.726  26.400  0.00  0.00    +0.002 A 
ATOM      6  C   UNL     1       7.571  -5.377  26.923  0.00  0.00    +0.031 A 
ATOM      7  C   UNL     1       6.430  -5.590  26.139  0.00  0.00    +0.133 A 
ATOM      8  C   UNL     1       6.402  -5.132  24.800  0.00  0.00    +0.057 A 
ATOM      9  N   UNL     1       5.312  -5.430  23.950  0.00  0.00    -0.342 N 
ATOM     10  H   UNL     1       4.467  -5.550  24.538  0.00  0.00    +0.146 HD
ATOM     11  C   UNL     1       5.152  -4.588  22.786  0.00  0.00    +0.105 C 
ATOM     12  C   UNL     1       6.820  -5.975  21.467  0.00  0.00    +0.009 C 
ENDROOT
BRANCH   7  13
ATOM     13  S   UNL     1       5.041  -6.445  26.887  0.00  0.00    +0.122 S 
ATOM     14  O   UNL     1       5.519  -7.205  28.105  0.00  0.00    -0.147 OA
ATOM     15  O   UNL     1       4.328  -7.254  25.830  0.00  0.00    -0.147 OA
ENDBRANCH   7  13
TORSDOF 1
ENDMDL
MODEL 4
REMARK VINA RESULT:      -5.1      3.316      4.624
REMARK  Name = 
REMARK  2 active torsions:
REMARK  status: ('A' for Active; 'I' for Inactive)
REMARK    1  A    between atoms: C_2  and  C_3
REMARK    2  A    between atoms: C_12  and  S_13
REMARK                            x       y       z     vdW  Elec       q    Type
REMARK                         _______ _______ _______ _____ _____    ______ ____
ROOT
ATOM      1  C   UNL     1      10.049   0.134  22.998  0.00  0.00    +0.007 C 
ATOM      2  C   UNL     1       8.528   0.317  23.051  0.00  0.00    +0.041 C 
ATOM      3  C   UNL     1       7.802  -0.876  23.625  0.00  0.00    -0.024 A 
ATOM      4  C   UNL     1       6.462  -0.733  24.016  0.00  0.00    +0.005 A 
ATOM      5  C   UNL     1       5.758  -1.820  24.526  0.00  0.00    +0.002 A 
ATOM      6  C   UNL     1       6.384  -3.062  24.640  0.00  0.00    +0.031 A 
ATOM      7  C   UNL     1       7.717  -3.234  24.242  0.00  0.00    +0.133 A 
ATOM      8  C   UNL     1       8.438  -2.138  23.709  0.00  0.00    +0.057 A 
ATOM      9  N   UNL     1       9.815  -2.251  23.404  0.00  0.00    -0.342 N 
ATOM     10  H   UNL     1      10.015  -3.242  23.177  0.00  0.00    +0.146 HD
ATOM     11  C   UNL     1      10.354  -1.274  22.485  0.00  0.00    +0.105 C 
ATOM     12  C   UNL     1      10.700   0.402  24.361  0.00  0.00    +0.009 C 
ENDROOT
BRANCH   7  13
ATOM     13  S   UNL     1       8.450  -4.860  24.432  0.00  0.00    +0.122 S 
ATOM     14  O   UNL     1       9.899  -4.710  24.840  0.00  0.00    -0.147 OA
ATOM     15  O   UNL     1       8.185  -5.673  23.187  0.00  0.00    -0.147 OA
ENDBRANCH   7  13
TORSDOF 1
ENDMDL
MODEL 5
REMARK VINA RESULT:      -5.0      2.722      3.362
REMARK  Name = 
REMARK  2 active torsions:
REMARK  status: ('A' for Active; 'I' for Inactive)
REMARK    1  A    between atoms: C_2  and  C_3
REMARK    2  A    between atoms: C_12  and  S_13
REMARK                            x       y       z     vdW  Elec       q    Type
REMARK                         _______ _______ _______ _____ _____    ______ ____
ROOT
ATOM      1  C   UNL     1       8.818  -3.521  25.751  0.00  0.00    +0.007 C 
ATOM      2  C   UNL     1       8.797  -3.898  24.266  0.00  0.00    +0.041 C 
ATOM      3  C   UNL     1       7.547  -4.639  23.855  0.00  0.00    -0.024 A 
ATOM      4  C   UNL     1       7.253  -4.772  22.489  0.00  0.00    +0.005 A 
ATOM      5  C   UNL     1       6.121  -5.469  22.077  0.00  0.00    +0.002 A 
ATOM      6  C   UNL     1       5.279  -6.048  23.027  0.00  0.00    +0.031 A 
ATOM      7  C   UNL     1       5.558  -5.942  24.396  0.00  0.00    +0.133 A 
ATOM      8  C   UNL     1       6.714  -5.247  24.825  0.00  0.00    +0.057 A 
ATOM      9  N   UNL     1       6.964  -5.026  26.200  0.00  0.00    -0.342 N 
ATOM     10  H   UNL     1       6.515  -5.791  26.736  0.00  0.00    +0.146 HD
ATOM     11  C   UNL     1       8.327  -4.718  26.567  0.00  0.00    +0.105 C 
ATOM     12  C   UNL     1       7.990  -2.260  26.026  0.00  0.00    +0.009 C 
ENDROOT
BRANCH   7  13
ATOM     13  S   UNL     1       4.417  -6.706  25.551  0.00  0.00    +0.122 S 
ATOM     14  O   UNL     1       5.161  -7.081  26.814  0.00  0.00    -0.147 OA
ATOM     15  O   UNL     1       3.677  -7.822  24.853  0.00  0.00    -0.147 OA
ENDBRANCH   7  13
TORSDOF 1
ENDMDL
MODEL 6
REMARK VINA RESULT:      -5.0      1.822      3.083
REMARK  Name = 
REMARK  2 active torsions:
REMARK  status: ('A' for Active; 'I' for Inactive)
REMARK    1  A    between atoms: C_2  and  C_3
REMARK    2  A    between atoms: C_12  and  S_13
REMARK                            x       y       z     vdW  Elec       q    Type
REMARK                         _______ _______ _______ _____ _____    ______ ____
ROOT
ATOM      1  C   UNL     1       9.288  -0.911  23.368  0.00  0.00    +0.007 C 
ATOM      2  C   UNL     1       9.151  -1.418  24.808  0.00  0.00    +0.041 C 
ATOM      3  C   UNL     1       8.456  -2.755  24.907  0.00  0.00    -0.024 A 
ATOM      4  C   UNL     1       8.535  -3.475  26.109  0.00  0.00    +0.005 A 
ATOM      5  C   UNL     1       7.885  -4.699  26.241  0.00  0.00    +0.002 A 
ATOM      6  C   UNL     1       7.142  -5.208  25.176  0.00  0.00    +0.031 A 
ATOM      7  C   UNL     1       7.035  -4.501  23.970  0.00  0.00    +0.133 A 
ATOM      8  C   UNL     1       7.681  -3.249  23.831  0.00  0.00    +0.057 A 
ATOM      9  N   UNL     1       7.686  -2.566  22.593  0.00  0.00    -0.342 N 
ATOM     10  H   UNL     1       6.834  -2.840  22.069  0.00  0.00    +0.146 HD
ATOM     11  C   UNL     1       7.965  -1.148  22.639  0.00  0.00    +0.105 C 
ATOM     12  C   UNL     1      10.468  -1.571  22.645  0.00  0.00    +0.009 C 
ENDROOT
BRANCH   7  13
ATOM     13  S   UNL     1       6.069  -5.233  22.647  0.00  0.00    +0.122 S 
ATOM     14  O   UNL     1       6.994  -5.641  21.521  0.00  0.00    -0.147 OA
ATOM     15  O   UNL     1       4.940  -4.300  22.282  0.00  0.00    -0.147 OA
ENDBRANCH   7  13
TORSDOF 1
ENDMDL
MODEL 7
REMARK VINA RESULT:      -5.0      3.662      4.159
REMARK  Name = 
REMARK  2 active torsions:
REMARK  status: ('A' for Active; 'I' for Inactive)
REMARK    1  A    between atoms: C_2  and  C_3
REMARK    2  A    between atoms: C_12  and  S_13
REMARK                            x       y       z     vdW  Elec       q    Type
REMARK                         _______ _______ _______ _____ _____    ______ ____
ROOT
ATOM      1  C   UNL     1       8.992  -4.039  24.938  0.00  0.00    +0.007 C 
ATOM      2  C   UNL     1       7.972  -4.728  24.024  0.00  0.00    +0.041 C 
ATOM      3  C   UNL     1       6.783  -5.285  24.770  0.00  0.00    -0.024 A 
ATOM      4  C   UNL     1       5.641  -5.660  24.046  0.00  0.00    +0.005 A 
ATOM      5  C   UNL     1       4.537  -6.198  24.701  0.00  0.00    +0.002 A 
ATOM      6  C   UNL     1       4.569  -6.376  26.084  0.00  0.00    +0.031 A 
ATOM      7  C   UNL     1       5.703  -6.023  26.828  0.00  0.00    +0.133 A 
ATOM      8  C   UNL     1       6.836  -5.487  26.170  0.00  0.00    +0.057 A 
ATOM      9  N   UNL     1       7.951  -5.018  26.904  0.00  0.00    -0.342 N 
ATOM     10  H   UNL     1       7.993  -5.542  27.797  0.00  0.00    +0.146 HD
ATOM     11  C   UNL     1       9.198  -4.905  26.182  0.00  0.00    +0.105 C 
ATOM     12  C   UNL     1       8.559  -2.613  25.297  0.00  0.00    +0.009 C 
ENDROOT
BRANCH   7  13
ATOM     13  S   UNL     1       5.658  -6.274  28.604  0.00  0.00    +0.122 S 
ATOM     14  O   UNL     1       5.814  -4.940  29.301  0.00  0.00    -0.147 OA
ATOM     15  O   UNL     1       6.651  -7.347  28.980  0.00  0.00    -0.147 OA
ENDBRANCH   7  13
TORSDOF 1
ENDMDL
MODEL 8
REMARK VINA RESULT:      -4.9      5.427      7.210
REMARK  Name = 
REMARK  2 active torsions:
REMARK  status: ('A' for Active; 'I' for Inactive)
REMARK    1  A    between atoms: C_2  and  C_3
REMARK    2  A    between atoms: C_12  and  S_13
REMARK                            x       y       z     vdW  Elec       q    Type
REMARK                         _______ _______ _______ _____ _____    ______ ____
ROOT
ATOM      1  C   UNL     1       9.180   2.994  22.907  0.00  0.00    +0.007 C 
ATOM      2  C   UNL     1       9.940   1.872  22.189  0.00  0.00    +0.041 C 
ATOM      3  C   UNL     1       9.807   0.531  22.869  0.00  0.00    -0.024 A 
ATOM      4  C   UNL     1      10.183  -0.627  22.170  0.00  0.00    +0.005 A 
ATOM      5  C   UNL     1      10.095  -1.876  22.776  0.00  0.00    +0.002 A 
ATOM      6  C   UNL     1       9.641  -1.979  24.092  0.00  0.00    +0.031 A 
ATOM      7  C   UNL     1       9.274  -0.837  24.817  0.00  0.00    +0.133 A 
ATOM      8  C   UNL     1       9.372   0.440  24.213  0.00  0.00    +0.057 A 
ATOM      9  N   UNL     1       8.904   1.598  24.878  0.00  0.00    -0.342 N 
ATOM     10  H   UNL     1       8.970   1.433  25.899  0.00  0.00    +0.146 HD
ATOM     11  C   UNL     1       9.424   2.863  24.411  0.00  0.00    +0.105 C 
ATOM     12  C   UNL     1       7.685   2.975  22.563  0.00  0.00    +0.009 C 
ENDROOT
BRANCH   7  13
ATOM     13  S   UNL     1       8.690  -1.058  26.499  0.00  0.00    +0.122 S 
ATOM     14  O   UNL     1       8.267  -2.498  26.695  0.00  0.00    -0.147 OA
ATOM     15  O   UNL     1       7.650  -0.007  26.806  0.00  0.00    -0.147 OA
ENDBRANCH   7  13
TORSDOF 1
ENDMDL
MODEL 9
REMARK VINA RESULT:      -4.9      3.497      5.289
REMARK  Name = 
REMARK  2 active torsions:
REMARK  status: ('A' for Active; 'I' for Inactive)
REMARK    1  A    between atoms: C_2  and  C_3
REMARK    2  A    between atoms: C_12  and  S_13
REMARK                            x       y       z     vdW  Elec       q    Type
REMARK                         _______ _______ _______ _____ _____    ______ ____
ROOT
ATOM      1  C   UNL     1       7.792   1.663  23.078  0.00  0.00    +0.007 C 
ATOM      2  C   UNL     1       8.928   0.900  23.769  0.00  0.00    +0.041 C 
ATOM      3  C   UNL     1       8.750  -0.599  23.730  0.00  0.00    -0.024 A 
ATOM      4  C   UNL     1       9.843  -1.422  24.042  0.00  0.00    +0.005 A 
ATOM      5  C   UNL     1       9.706  -2.807  24.039  0.00  0.00    +0.002 A 
ATOM      6  C   UNL     1       8.472  -3.381  23.734  0.00  0.00    +0.031 A 
ATOM      7  C   UNL     1       7.361  -2.581  23.433  0.00  0.00    +0.133 A 
ATOM      8  C   UNL     1       7.487  -1.171  23.447  0.00  0.00    +0.057 A 
ATOM      9  N   UNL     1       6.417  -0.340  23.039  0.00  0.00    -0.342 N 
ATOM     10  H   UNL     1       5.530  -0.845  23.219  0.00  0.00    +0.146 HD
ATOM     11  C   UNL     1       6.460   1.033  23.487  0.00  0.00    +0.105 C 
ATOM     12  C   UNL     1       7.972   1.688  21.555  0.00  0.00    +0.009 C 
ENDROOT
BRANCH   7  13
ATOM     13  S   UNL     1       5.814  -3.401  23.040  0.00  0.00    +0.122 S 
ATOM     14  O   UNL     1       5.478  -3.162  21.584  0.00  0.00    -0.147 OA
ATOM     15  O   UNL     1       4.765  -2.990  24.046  0.00  0.00    -0.147 OA
ENDBRANCH   7  13
TORSDOF 1
ENDMDL
