MODEL 1
REMARK VINA RESULT:      -2.9      0.000      0.000
REMARK  Name = 
REMARK  4 active torsions:
REMARK  status: ('A' for Active; 'I' for Inactive)
REMARK    1  A    between atoms: C_1  and  C_2
REMARK    2  A    between atoms: C_2  and  C_3
REMARK    3  A    between atoms: C_3  and  C_5
REMARK    4  A    between atoms: C_3  and  O_6
REMARK                            x       y       z     vdW  Elec       q    Type
REMARK                         _______ _______ _______ _____ _____    ______ ____
ROOT
ATOM      1  C   UNL     1      10.086   1.051  22.156  0.00  0.00    +0.111 C 
ATOM      2  C   UNL     1       9.385  -0.119  21.479  0.00  0.00    +0.037 C 
ENDROOT
BRANCH   1   4
ATOM      3  C   UNL     1      10.809   0.633  24.571  0.00  0.00    +0.006 C 
ATOM      4  C   UNL     1       9.743   1.189  23.642  0.00  0.00    +0.027 C 
ENDBRANCH   1   4
BRANCH   1   5
ATOM      5  O   UNL     1       9.679   2.241  21.481  0.00  0.00    -0.392 OA
ATOM      6  H   UNL     1      10.083   2.994  21.946  0.00  0.00    +0.210 HD
ENDBRANCH   1   5
TORSDOF 2
ENDMDL
MODEL 2
REMARK VINA RESULT:      -2.9      0.863      2.162
REMARK  Name = 
REMARK  4 active torsions:
REMARK  status: ('A' for Active; 'I' for Inactive)
REMARK    1  A    between atoms: C_1  and  C_2
REMARK    2  A    between atoms: C_2  and  C_3
REMARK    3  A    between atoms: C_3  and  C_5
REMARK    4  A    between atoms: C_3  and  O_6
REMARK                            x       y       z     vdW  Elec       q    Type
REMARK                         _______ _______ _______ _____ _____    ______ ____
ROOT
ATOM      1  C   UNL     1       9.643   1.218  22.372  0.00  0.00    +0.111 C 
ATOM      2  C   UNL     1      10.438   1.084  23.664  0.00  0.00    +0.037 C 
ENDROOT
BRANCH   1   4
ATOM      3  C   UNL     1      10.119  -1.291  22.281  0.00  0.00    +0.006 C 
ATOM      4  C   UNL     1       9.619  -0.064  21.536  0.00  0.00    +0.027 C 
ENDBRANCH   1   4
BRANCH   1   5
ATOM      5  O   UNL     1      10.250   2.255  21.602  0.00  0.00    -0.392 OA
ATOM      6  H   UNL     1       9.914   2.180  20.692  0.00  0.00    +0.210 HD
ENDBRANCH   1   5
TORSDOF 2
ENDMDL
MODEL 3
REMARK VINA RESULT:      -2.7      1.940      2.120
REMARK  Name = 
REMARK  4 active torsions:
REMARK  status: ('A' for Active; 'I' for Inactive)
REMARK    1  A    between atoms: C_1  and  C_2
REMARK    2  A    between atoms: C_2  and  C_3
REMARK    3  A    between atoms: C_3  and  C_5
REMARK    4  A    between atoms: C_3  and  O_6
REMARK                            x       y       z     vdW  Elec       q    Type
REMARK                         _______ _______ _______ _____ _____    ______ ____
ROOT
ATOM      1  C   UNL     1       9.573  -0.587  22.397  0.00  0.00    +0.111 C 
ATOM      2  C   UNL     1       9.783   0.796  21.794  0.00  0.00    +0.037 C 
ENDROOT
BRANCH   1   4
ATOM      3  C   UNL     1      10.744   0.555  24.359  0.00  0.00    +0.006 C 
ATOM      4  C   UNL     1      10.116  -0.720  23.822  0.00  0.00    +0.027 C 
ENDBRANCH   1   4
BRANCH   1   5
ATOM      5  O   UNL     1      10.251  -1.525  21.560  0.00  0.00    -0.392 OA
ATOM      6  H   UNL     1      11.166  -1.215  21.453  0.00  0.00    +0.210 HD
ENDBRANCH   1   5
TORSDOF 2
ENDMDL
MODEL 4
REMARK VINA RESULT:      -2.7      2.441      2.821
REMARK  Name = 
REMARK  4 active torsions:
REMARK  status: ('A' for Active; 'I' for Inactive)
REMARK    1  A    between atoms: C_1  and  C_2
REMARK    2  A    between atoms: C_2  and  C_3
REMARK    3  A    between atoms: C_3  and  C_5
REMARK    4  A    between atoms: C_3  and  O_6
REMARK                            x       y       z     vdW  Elec       q    Type
REMARK                         _______ _______ _______ _____ _____    ______ ____
ROOT
ATOM      1  C   UNL     1      10.368  -1.217  22.718  0.00  0.00    +0.111 C 
ATOM      2  C   UNL     1       9.874  -2.332  23.630  0.00  0.00    +0.037 C 
ENDROOT
BRANCH   1   4
ATOM      3  C   UNL     1       9.882   1.153  21.899  0.00  0.00    +0.006 C 
ATOM      4  C   UNL     1       9.743   0.145  23.028  0.00  0.00    +0.027 C 
ENDBRANCH   1   4
BRANCH   1   5
ATOM      5  O   UNL     1      10.033  -1.580  21.379  0.00  0.00    -0.392 OA
ATOM      6  H   UNL     1       9.482  -0.868  21.011  0.00  0.00    +0.210 HD
ENDBRANCH   1   5
TORSDOF 2
ENDMDL
MODEL 5
REMARK VINA RESULT:      -2.6      1.583      2.230
REMARK  Name = 
REMARK  4 active torsions:
REMARK  status: ('A' for Active; 'I' for Inactive)
REMARK    1  A    between atoms: C_1  and  C_2
REMARK    2  A    between atoms: C_2  and  C_3
REMARK    3  A    between atoms: C_3  and  C_5
REMARK    4  A    between atoms: C_3  and  O_6
REMARK                            x       y       z     vdW  Elec       q    Type
REMARK                         _______ _______ _______ _____ _____    ______ ____
ROOT
ATOM      1  C   UNL     1       9.667   1.304  22.367  0.00  0.00    +0.111 C 
ATOM      2  C   UNL     1       9.404   0.118  21.449  0.00  0.00    +0.037 C 
ENDROOT
BRANCH   1   4
ATOM      3  C   UNL     1       7.325   2.251  21.987  0.00  0.00    +0.006 C 
ATOM      4  C   UNL     1       8.397   1.880  22.998  0.00  0.00    +0.027 C 
ENDBRANCH   1   4
BRANCH   1   5
ATOM      5  O   UNL     1      10.289   2.322  21.583  0.00  0.00    -0.392 OA
ATOM      6  H   UNL     1       9.584   2.882  21.216  0.00  0.00    +0.210 HD
ENDBRANCH   1   5
TORSDOF 2
ENDMDL
MODEL 6
REMARK VINA RESULT:      -2.6      2.418      2.652
REMARK  Name = 
REMARK  4 active torsions:
REMARK  status: ('A' for Active; 'I' for Inactive)
REMARK    1  A    between atoms: C_1  and  C_2
REMARK    2  A    between atoms: C_2  and  C_3
REMARK    3  A    between atoms: C_3  and  C_5
REMARK    4  A    between atoms: C_3  and  O_6
REMARK                            x       y       z     vdW  Elec       q    Type
REMARK                         _______ _______ _______ _____ _____    ______ ____
ROOT
ATOM      1  C   UNL     1       9.196  -0.735  21.832  0.00  0.00    +0.111 C 
ATOM      2  C   UNL     1       9.650   0.714  21.734  0.00  0.00    +0.037 C 
ENDROOT
BRANCH   1   4
ATOM      3  C   UNL     1       9.720  -2.067  23.949  0.00  0.00    +0.006 C 
ATOM      4  C   UNL     1       8.747  -1.140  23.239  0.00  0.00    +0.027 C 
ENDBRANCH   1   4
BRANCH   1   5
ATOM      5  O   UNL     1      10.300  -1.556  21.451  0.00  0.00    -0.392 OA
ATOM      6  H   UNL     1      10.559  -2.080  22.229  0.00  0.00    +0.210 HD
ENDBRANCH   1   5
TORSDOF 2
ENDMDL
MODEL 7
REMARK VINA RESULT:      -2.5      6.601      7.148
REMARK  Name = 
REMARK  4 active torsions:
REMARK  status: ('A' for Active; 'I' for Inactive)
REMARK    1  A    between atoms: C_1  and  C_2
REMARK    2  A    between atoms: C_2  and  C_3
REMARK    3  A    between atoms: C_3  and  C_5
REMARK    4  A    between atoms: C_3  and  O_6
REMARK                            x       y       z     vdW  Elec       q    Type
REMARK                         _______ _______ _______ _____ _____    ______ ____
ROOT
ATOM      1  C   UNL     1       9.244  -4.646  25.263  0.00  0.00    +0.111 C 
ATOM      2  C   UNL     1       8.577  -4.693  26.631  0.00  0.00    +0.037 C 
ENDROOT
BRANCH   1   4
ATOM      3  C   UNL     1       6.830  -5.066  24.540  0.00  0.00    +0.006 C 
ATOM      4  C   UNL     1       8.275  -4.890  24.104  0.00  0.00    +0.027 C 
ENDBRANCH   1   4
BRANCH   1   5
ATOM      5  O   UNL     1      10.247  -5.661  25.241  0.00  0.00    -0.392 OA
ATOM      6  H   UNL     1       9.906  -6.422  25.741  0.00  0.00    +0.210 HD
ENDBRANCH   1   5
TORSDOF 2
ENDMDL
MODEL 8
REMARK VINA RESULT:      -2.5      7.301      7.643
REMARK  Name = 
REMARK  4 active torsions:
REMARK  status: ('A' for Active; 'I' for Inactive)
REMARK    1  A    between atoms: C_1  and  C_2
REMARK    2  A    between atoms: C_2  and  C_3
REMARK    3  A    between atoms: C_3  and  C_5
REMARK    4  A    between atoms: C_3  and  O_6
REMARK                            x       y       z     vdW  Elec       q    Type
REMARK                         _______ _______ _______ _____ _____    ______ ____
ROOT
ATOM      1  C   UNL     1       7.696  -4.903  26.828  0.00  0.00    +0.111 C 
ATOM      2  C   UNL     1       6.806  -5.268  25.648  0.00  0.00    +0.037 C 
ENDROOT
BRANCH   1   4
ATOM      3  C   UNL     1       9.302  -4.238  24.956  0.00  0.00    +0.006 C 
ATOM      4  C   UNL     1       9.137  -4.579  26.427  0.00  0.00    +0.027 C 
ENDBRANCH   1   4
BRANCH   1   5
ATOM      5  O   UNL     1       7.709  -6.021  27.716  0.00  0.00    -0.392 OA
ATOM      6  H   UNL     1       8.017  -6.793  27.211  0.00  0.00    +0.210 HD
ENDBRANCH   1   5
TORSDOF 2
ENDMDL
MODEL 9
REMARK VINA RESULT:      -2.4      2.127      3.034
REMARK  Name = 
REMARK  4 active torsions:
REMARK  status: ('A' for Active; 'I' for Inactive)
REMARK    1  A    between atoms: C_1  and  C_2
REMARK    2  A    between atoms: C_2  and  C_3
REMARK    3  A    between atoms: C_3  and  C_5
REMARK    4  A    between atoms: C_3  and  O_6
REMARK                            x       y       z     vdW  Elec       q    Type
REMARK                         _______ _______ _______ _____ _____    ______ ____
ROOT
ATOM      1  C   UNL     1      10.529  -0.319  23.413  0.00  0.00    +0.111 C 
ATOM      2  C   UNL     1      10.772   0.737  24.482  0.00  0.00    +0.037 C 
ENDROOT
BRANCH   1   4
ATOM      3  C   UNL     1       9.961   1.734  22.002  0.00  0.00    +0.006 C 
ATOM      4  C   UNL     1       9.835   0.228  22.163  0.00  0.00    +0.027 C 
ENDBRANCH   1   4
BRANCH   1   5
ATOM      5  O   UNL     1       9.700  -1.328  23.990  0.00  0.00    -0.392 OA
ATOM      6  H   UNL     1       9.291  -0.951  24.788  0.00  0.00    +0.210 HD
ENDBRANCH   1   5
TORSDOF 2
ENDMDL
