MODEL 1
REMARK VINA RESULT:      -6.9      0.000      0.000
REMARK  Name = 
REMARK  13 active torsions:
REMARK  status: ('A' for Active; 'I' for Inactive)
REMARK    1  A    between atoms: C_1  and  O_2
REMARK    2  A    between atoms: O_2  and  C_3
REMARK    3  A    between atoms: C_4  and  C_5
REMARK    4  A    between atoms: C_6  and  C_7
REMARK    5  A    between atoms: C_8  and  C_9
REMARK    6  A    between atoms: C_10  and  C_11
REMARK    7  A    between atoms: C_11  and  C_12
REMARK    8  A    between atoms: C_13  and  C_14
REMARK    9  A    between atoms: C_15  and  C_16
REMARK   10  A    between atoms: C_16  and  C_17
REMARK   11  A    between atoms: C_18  and  C_19
REMARK   12  A    between atoms: C_19  and  O_20
REMARK   13  A    between atoms: C_22  and  C_23
REMARK                            x       y       z     vdW  Elec       q    Type
REMARK                         _______ _______ _______ _____ _____    ______ ____
ROOT
ATOM      1  C   UNL     1       8.297  -2.482  23.958  0.00  0.00    +0.009 C 
ATOM      2  C   UNL     1       8.183  -1.174  24.252  0.00  0.00    +0.004 C 
ENDROOT
BRANCH   1   7
ATOM      3  C   UNL     1       5.713  -5.806  24.981  0.00  0.00    +0.124 A 
ATOM      4  C   UNL     1       6.757  -5.437  25.828  0.00  0.00    +0.049 A 
ATOM      5  C   UNL     1       7.625  -4.368  25.535  0.00  0.00    -0.040 A 
ATOM      6  C   UNL     1       8.745  -4.191  26.525  0.00  0.00    +0.044 C 
ATOM      7  C   UNL     1       7.410  -3.603  24.371  0.00  0.00    -0.019 A 
ATOM      8  C   UNL     1       6.347  -3.988  23.484  0.00  0.00    -0.037 A 
ATOM      9  C   UNL     1       6.091  -3.183  22.221  0.00  0.00    +0.045 C 
ATOM     10  C   UNL     1       5.536  -5.125  23.770  0.00  0.00    -0.005 A 
ATOM     11  C   UNL     1       4.475  -5.594  22.800  0.00  0.00    +0.048 C 
BRANCH   3  13
ATOM     12  C   UNL     1       4.231  -6.823  26.519  0.00  0.00    +0.277 C 
ATOM     13  O   UNL     1       4.893  -6.871  25.257  0.00  0.00    -0.495 OA
ENDBRANCH   3  13
ENDBRANCH   1   7
BRANCH   2  14
ATOM     14  C   UNL     1       9.066  -0.094  23.791  0.00  0.00    -0.050 C 
ATOM     15  C   UNL     1       9.220   1.011  24.555  0.00  0.00    +0.003 C 
ATOM     16  C   UNL     1       9.761  -0.207  22.450  0.00  0.00    +0.044 C 
BRANCH  15  17
ATOM     17  C   UNL     1      10.043   2.151  24.194  0.00  0.00    +0.001 C 
ATOM     18  C   UNL     1       9.591   3.399  23.985  0.00  0.00    +0.003 C 
BRANCH  18  19
ATOM     19  C   UNL     1      10.490   4.496  23.639  0.00  0.00    -0.044 C 
ATOM     20  C   UNL     1      11.770   4.236  23.307  0.00  0.00    +0.094 C 
ATOM     21  C   UNL     1       9.878   5.873  23.679  0.00  0.00    +0.044 C 
BRANCH  20  22
ATOM     22  C   UNL     1      12.759   5.258  22.899  0.00  0.00    +0.330 C 
ATOM     23  O   UNL     1      13.132   5.473  21.761  0.00  0.00    -0.246 OA
BRANCH  22  24
ATOM     24  O   UNL     1      13.234   5.943  23.962  0.00  0.00    -0.478 OA
ATOM     25  H   UNL     1      12.564   6.310  24.567  0.00  0.00    +0.295 HD
ENDBRANCH  22  24
ENDBRANCH  20  22
ENDBRANCH  18  19
ENDBRANCH  15  17
ENDBRANCH   2  14
TORSDOF 7
ENDMDL
MODEL 2
REMARK VINA RESULT:      -6.9      0.596      2.103
REMARK  Name = 
REMARK  13 active torsions:
REMARK  status: ('A' for Active; 'I' for Inactive)
REMARK    1  A    between atoms: C_1  and  O_2
REMARK    2  A    between atoms: O_2  and  C_3
REMARK    3  A    between atoms: C_4  and  C_5
REMARK    4  A    between atoms: C_6  and  C_7
REMARK    5  A    between atoms: C_8  and  C_9
REMARK    6  A    between atoms: C_10  and  C_11
REMARK    7  A    between atoms: C_11  and  C_12
REMARK    8  A    between atoms: C_13  and  C_14
REMARK    9  A    between atoms: C_15  and  C_16
REMARK   10  A    between atoms: C_16  and  C_17
REMARK   11  A    between atoms: C_18  and  C_19
REMARK   12  A    between atoms: C_19  and  O_20
REMARK   13  A    between atoms: C_22  and  C_23
REMARK                            x       y       z     vdW  Elec       q    Type
REMARK                         _______ _______ _______ _____ _____    ______ ____
ROOT
ATOM      1  C   UNL     1       8.392  -2.480  23.768  0.00  0.00    +0.009 C 
ATOM      2  C   UNL     1       8.116  -1.165  23.838  0.00  0.00    +0.004 C 
ENDROOT
BRANCH   1   7
ATOM      3  C   UNL     1       5.800  -5.745  24.945  0.00  0.00    +0.124 A 
ATOM      4  C   UNL     1       5.735  -5.224  23.654  0.00  0.00    +0.049 A 
ATOM      5  C   UNL     1       6.554  -4.161  23.228  0.00  0.00    -0.040 A 
ATOM      6  C   UNL     1       6.265  -3.679  21.831  0.00  0.00    +0.044 C 
ATOM      7  C   UNL     1       7.513  -3.629  24.114  0.00  0.00    -0.019 A 
ATOM      8  C   UNL     1       7.572  -4.149  25.452  0.00  0.00    -0.037 A 
ATOM      9  C   UNL     1       8.595  -3.596  26.430  0.00  0.00    +0.045 C 
ATOM     10  C   UNL     1       6.675  -5.173  25.876  0.00  0.00    -0.005 A 
ATOM     11  C   UNL     1       6.667  -5.663  27.307  0.00  0.00    +0.048 C 
BRANCH   3  13
ATOM     12  C   UNL     1       3.836  -7.002  24.539  0.00  0.00    +0.277 C 
ATOM     13  O   UNL     1       4.974  -6.759  25.364  0.00  0.00    -0.495 OA
ENDBRANCH   3  13
ENDBRANCH   1   7
BRANCH   2  14
ATOM     14  C   UNL     1       9.006  -0.063  23.450  0.00  0.00    -0.050 C 
ATOM     15  C   UNL     1       9.155   0.996  24.279  0.00  0.00    +0.003 C 
ATOM     16  C   UNL     1       9.716  -0.099  22.112  0.00  0.00    +0.044 C 
BRANCH  15  17
ATOM     17  C   UNL     1       9.984   2.152  23.994  0.00  0.00    +0.001 C 
ATOM     18  C   UNL     1       9.548   3.421  23.921  0.00  0.00    +0.003 C 
BRANCH  18  19
ATOM     19  C   UNL     1      10.453   4.532  23.643  0.00  0.00    -0.044 C 
ATOM     20  C   UNL     1      11.747   4.289  23.354  0.00  0.00    +0.094 C 
ATOM     21  C   UNL     1       9.832   5.904  23.699  0.00  0.00    +0.044 C 
BRANCH  20  22
ATOM     22  C   UNL     1      12.745   5.327  23.017  0.00  0.00    +0.330 C 
ATOM     23  O   UNL     1      13.187   5.555  21.906  0.00  0.00    -0.246 OA
BRANCH  22  24
ATOM     24  O   UNL     1      13.141   6.012  24.112  0.00  0.00    -0.478 OA
ATOM     25  H   UNL     1      12.432   6.432  24.632  0.00  0.00    +0.295 HD
ENDBRANCH  22  24
ENDBRANCH  20  22
ENDBRANCH  18  19
ENDBRANCH  15  17
ENDBRANCH   2  14
TORSDOF 7
ENDMDL
MODEL 3
REMARK VINA RESULT:      -6.7      1.014      2.299
REMARK  Name = 
REMARK  13 active torsions:
REMARK  status: ('A' for Active; 'I' for Inactive)
REMARK    1  A    between atoms: C_1  and  O_2
REMARK    2  A    between atoms: O_2  and  C_3
REMARK    3  A    between atoms: C_4  and  C_5
REMARK    4  A    between atoms: C_6  and  C_7
REMARK    5  A    between atoms: C_8  and  C_9
REMARK    6  A    between atoms: C_10  and  C_11
REMARK    7  A    between atoms: C_11  and  C_12
REMARK    8  A    between atoms: C_13  and  C_14
REMARK    9  A    between atoms: C_15  and  C_16
REMARK   10  A    between atoms: C_16  and  C_17
REMARK   11  A    between atoms: C_18  and  C_19
REMARK   12  A    between atoms: C_19  and  O_20
REMARK   13  A    between atoms: C_22  and  C_23
REMARK                            x       y       z     vdW  Elec       q    Type
REMARK                         _______ _______ _______ _____ _____    ______ ____
ROOT
ATOM      1  C   UNL     1       7.414  -2.396  23.533  0.00  0.00    +0.009 C 
ATOM      2  C   UNL     1       8.675  -2.181  23.116  0.00  0.00    +0.004 C 
ENDROOT
BRANCH   1   7
ATOM      3  C   UNL     1       5.342  -6.102  24.396  0.00  0.00    +0.124 A 
ATOM      4  C   UNL     1       5.428  -5.631  23.087  0.00  0.00    +0.049 A 
ATOM      5  C   UNL     1       6.087  -4.429  22.760  0.00  0.00    -0.040 A 
ATOM      6  C   UNL     1       5.985  -4.045  21.308  0.00  0.00    +0.044 C 
ATOM      7  C   UNL     1       6.729  -3.694  23.776  0.00  0.00    -0.019 A 
ATOM      8  C   UNL     1       6.629  -4.165  25.130  0.00  0.00    -0.037 A 
ATOM      9  C   UNL     1       7.311  -3.394  26.248  0.00  0.00    +0.045 C 
ATOM     10  C   UNL     1       5.888  -5.343  25.439  0.00  0.00    -0.005 A 
ATOM     11  C   UNL     1       5.699  -5.796  26.869  0.00  0.00    +0.048 C 
BRANCH   3  13
ATOM     12  C   UNL     1       3.274  -7.251  24.414  0.00  0.00    +0.277 C 
ATOM     13  O   UNL     1       4.669  -7.256  24.712  0.00  0.00    -0.495 OA
ENDBRANCH   3  13
ENDBRANCH   1   7
BRANCH   2  14
ATOM     14  C   UNL     1       9.322  -0.877  22.924  0.00  0.00    -0.050 C 
ATOM     15  C   UNL     1       9.582  -0.098  23.999  0.00  0.00    +0.003 C 
ATOM     16  C   UNL     1       9.655  -0.397  21.527  0.00  0.00    +0.044 C 
BRANCH  15  17
ATOM     17  C   UNL     1      10.192   1.217  23.932  0.00  0.00    +0.001 C 
ATOM     18  C   UNL     1       9.527   2.375  23.782  0.00  0.00    +0.003 C 
BRANCH  18  19
ATOM     19  C   UNL     1      10.218   3.661  23.739  0.00  0.00    -0.044 C 
ATOM     20  C   UNL     1      11.515   3.715  23.376  0.00  0.00    +0.094 C 
ATOM     21  C   UNL     1       9.382   4.858  24.112  0.00  0.00    +0.044 C 
BRANCH  20  22
ATOM     22  C   UNL     1      12.305   4.959  23.256  0.00  0.00    +0.330 C 
ATOM     23  O   UNL     1      12.775   5.595  24.182  0.00  0.00    -0.246 OA
BRANCH  22  24
ATOM     24  O   UNL     1      12.445   5.339  21.968  0.00  0.00    -0.478 OA
ATOM     25  H   UNL     1      12.456   4.620  21.310  0.00  0.00    +0.295 HD
ENDBRANCH  22  24
ENDBRANCH  20  22
ENDBRANCH  18  19
ENDBRANCH  15  17
ENDBRANCH   2  14
TORSDOF 7
ENDMDL
MODEL 4
REMARK VINA RESULT:      -6.4      1.252      1.311
REMARK  Name = 
REMARK  13 active torsions:
REMARK  status: ('A' for Active; 'I' for Inactive)
REMARK    1  A    between atoms: C_1  and  O_2
REMARK    2  A    between atoms: O_2  and  C_3
REMARK    3  A    between atoms: C_4  and  C_5
REMARK    4  A    between atoms: C_6  and  C_7
REMARK    5  A    between atoms: C_8  and  C_9
REMARK    6  A    between atoms: C_10  and  C_11
REMARK    7  A    between atoms: C_11  and  C_12
REMARK    8  A    between atoms: C_13  and  C_14
REMARK    9  A    between atoms: C_15  and  C_16
REMARK   10  A    between atoms: C_16  and  C_17
REMARK   11  A    between atoms: C_18  and  C_19
REMARK   12  A    between atoms: C_19  and  O_20
REMARK   13  A    between atoms: C_22  and  C_23
REMARK                            x       y       z     vdW  Elec       q    Type
REMARK                         _______ _______ _______ _____ _____    ______ ____
ROOT
ATOM      1  C   UNL     1       7.916  -1.594  24.118  0.00  0.00    +0.009 C 
ATOM      2  C   UNL     1       7.697  -0.376  23.589  0.00  0.00    +0.004 C 
ENDROOT
BRANCH   1   7
ATOM      3  C   UNL     1       5.129  -4.762  25.103  0.00  0.00    +0.124 A 
ATOM      4  C   UNL     1       5.342  -3.709  25.991  0.00  0.00    +0.049 A 
ATOM      5  C   UNL     1       6.241  -2.660  25.716  0.00  0.00    -0.040 A 
ATOM      6  C   UNL     1       6.402  -1.673  26.841  0.00  0.00    +0.044 C 
ATOM      7  C   UNL     1       6.919  -2.637  24.480  0.00  0.00    -0.019 A 
ATOM      8  C   UNL     1       6.717  -3.729  23.567  0.00  0.00    -0.037 A 
ATOM      9  C   UNL     1       7.434  -3.732  22.227  0.00  0.00    +0.045 C 
ATOM     10  C   UNL     1       5.861  -4.815  23.909  0.00  0.00    -0.005 A 
ATOM     11  C   UNL     1       5.713  -6.013  22.997  0.00  0.00    +0.048 C 
BRANCH   3  13
ATOM     12  C   UNL     1       4.692  -6.652  26.458  0.00  0.00    +0.277 C 
ATOM     13  O   UNL     1       4.277  -5.799  25.392  0.00  0.00    -0.495 OA
ENDBRANCH   3  13
ENDBRANCH   1   7
BRANCH   2  14
ATOM     14  C   UNL     1       8.718   0.610  23.213  0.00  0.00    -0.050 C 
ATOM     15  C   UNL     1       9.220   1.441  24.156  0.00  0.00    +0.003 C 
ATOM     16  C   UNL     1       9.170   0.718  21.772  0.00  0.00    +0.044 C 
BRANCH  15  17
ATOM     17  C   UNL     1      10.212   2.469  23.900  0.00  0.00    +0.001 C 
ATOM     18  C   UNL     1       9.967   3.790  23.857  0.00  0.00    +0.003 C 
BRANCH  18  19
ATOM     19  C   UNL     1      11.027   4.762  23.608  0.00  0.00    -0.044 C 
ATOM     20  C   UNL     1      12.146   4.385  22.959  0.00  0.00    +0.094 C 
ATOM     21  C   UNL     1      10.758   6.157  24.112  0.00  0.00    +0.044 C 
BRANCH  20  22
ATOM     22  C   UNL     1      13.266   5.288  22.615  0.00  0.00    +0.330 C 
ATOM     23  O   UNL     1      13.242   6.158  21.764  0.00  0.00    -0.246 OA
BRANCH  22  24
ATOM     24  O   UNL     1      14.363   5.029  23.360  0.00  0.00    -0.478 OA
ATOM     25  H   UNL     1      14.503   4.095  23.601  0.00  0.00    +0.295 HD
ENDBRANCH  22  24
ENDBRANCH  20  22
ENDBRANCH  18  19
ENDBRANCH  15  17
ENDBRANCH   2  14
TORSDOF 7
ENDMDL
MODEL 5
REMARK VINA RESULT:      -6.1      2.085     10.314
REMARK  Name = 
REMARK  13 active torsions:
REMARK  status: ('A' for Active; 'I' for Inactive)
REMARK    1  A    between atoms: C_1  and  O_2
REMARK    2  A    between atoms: O_2  and  C_3
REMARK    3  A    between atoms: C_4  and  C_5
REMARK    4  A    between atoms: C_6  and  C_7
REMARK    5  A    between atoms: C_8  and  C_9
REMARK    6  A    between atoms: C_10  and  C_11
REMARK    7  A    between atoms: C_11  and  C_12
REMARK    8  A    between atoms: C_13  and  C_14
REMARK    9  A    between atoms: C_15  and  C_16
REMARK   10  A    between atoms: C_16  and  C_17
REMARK   11  A    between atoms: C_18  and  C_19
REMARK   12  A    between atoms: C_19  and  O_20
REMARK   13  A    between atoms: C_22  and  C_23
REMARK                            x       y       z     vdW  Elec       q    Type
REMARK                         _______ _______ _______ _____ _____    ______ ____
ROOT
ATOM      1  C   UNL     1       7.797   1.502  23.270  0.00  0.00    +0.009 C 
ATOM      2  C   UNL     1       7.487   0.619  24.237  0.00  0.00    +0.004 C 
ENDROOT
BRANCH   1   7
ATOM      3  C   UNL     1      10.223   5.075  23.617  0.00  0.00    +0.124 A 
ATOM      4  C   UNL     1      10.790   3.816  23.811  0.00  0.00    +0.049 A 
ATOM      5  C   UNL     1      10.040   2.628  23.714  0.00  0.00    -0.040 A 
ATOM      6  C   UNL     1      10.811   1.381  24.053  0.00  0.00    +0.044 C 
ATOM      7  C   UNL     1       8.678   2.698  23.357  0.00  0.00    -0.019 A 
ATOM      8  C   UNL     1       8.083   3.993  23.173  0.00  0.00    -0.037 A 
ATOM      9  C   UNL     1       6.616   4.100  22.789  0.00  0.00    +0.045 C 
ATOM     10  C   UNL     1       8.850   5.180  23.357  0.00  0.00    -0.005 A 
ATOM     11  C   UNL     1       8.213   6.547  23.256  0.00  0.00    +0.048 C 
BRANCH   3  13
ATOM     12  C   UNL     1      12.318   6.053  24.118  0.00  0.00    +0.277 C 
ATOM     13  O   UNL     1      10.952   6.230  23.748  0.00  0.00    -0.495 OA
ENDBRANCH   3  13
ENDBRANCH   1   7
BRANCH   2  14
ATOM     14  C   UNL     1       6.639  -0.572  24.095  0.00  0.00    -0.050 C 
ATOM     15  C   UNL     1       6.809  -1.386  23.027  0.00  0.00    +0.003 C 
ATOM     16  C   UNL     1       5.559  -0.856  25.117  0.00  0.00    +0.044 C 
BRANCH  15  17
ATOM     17  C   UNL     1       6.017  -2.574  22.767  0.00  0.00    +0.001 C 
ATOM     18  C   UNL     1       6.463  -3.838  22.853  0.00  0.00    +0.003 C 
BRANCH  18  19
ATOM     19  C   UNL     1       5.595  -4.982  22.589  0.00  0.00    -0.044 C 
ATOM     20  C   UNL     1       4.528  -5.212  23.379  0.00  0.00    +0.094 C 
ATOM     21  C   UNL     1       5.983  -5.830  21.405  0.00  0.00    +0.044 C 
BRANCH  20  22
ATOM     22  C   UNL     1       3.557  -6.311  23.185  0.00  0.00    +0.330 C 
ATOM     23  O   UNL     1       2.514  -6.237  22.561  0.00  0.00    -0.246 OA
BRANCH  22  24
ATOM     24  O   UNL     1       3.954  -7.442  23.807  0.00  0.00    -0.478 OA
ATOM     25  H   UNL     1       3.389  -7.746  24.540  0.00  0.00    +0.295 HD
ENDBRANCH  22  24
ENDBRANCH  20  22
ENDBRANCH  18  19
ENDBRANCH  15  17
ENDBRANCH   2  14
TORSDOF 7
ENDMDL
MODEL 6
REMARK VINA RESULT:      -6.1      1.753      2.438
REMARK  Name = 
REMARK  13 active torsions:
REMARK  status: ('A' for Active; 'I' for Inactive)
REMARK    1  A    between atoms: C_1  and  O_2
REMARK    2  A    between atoms: O_2  and  C_3
REMARK    3  A    between atoms: C_4  and  C_5
REMARK    4  A    between atoms: C_6  and  C_7
REMARK    5  A    between atoms: C_8  and  C_9
REMARK    6  A    between atoms: C_10  and  C_11
REMARK    7  A    between atoms: C_11  and  C_12
REMARK    8  A    between atoms: C_13  and  C_14
REMARK    9  A    between atoms: C_15  and  C_16
REMARK   10  A    between atoms: C_16  and  C_17
REMARK   11  A    between atoms: C_18  and  C_19
REMARK   12  A    between atoms: C_19  and  O_20
REMARK   13  A    between atoms: C_22  and  C_23
REMARK                            x       y       z     vdW  Elec       q    Type
REMARK                         _______ _______ _______ _____ _____    ______ ____
ROOT
ATOM      1  C   UNL     1       7.030  -1.303  23.741  0.00  0.00    +0.009 C 
ATOM      2  C   UNL     1       8.139  -1.065  24.465  0.00  0.00    +0.004 C 
ENDROOT
BRANCH   1   7
ATOM      3  C   UNL     1       4.010  -4.369  24.239  0.00  0.00    +0.124 A 
ATOM      4  C   UNL     1       4.982  -4.491  23.246  0.00  0.00    +0.049 A 
ATOM      5  C   UNL     1       5.980  -3.517  23.044  0.00  0.00    -0.040 A 
ATOM      6  C   UNL     1       6.873  -3.784  21.863  0.00  0.00    +0.044 C 
ATOM      7  C   UNL     1       6.039  -2.400  23.902  0.00  0.00    -0.019 A 
ATOM      8  C   UNL     1       5.030  -2.260  24.916  0.00  0.00    -0.037 A 
ATOM      9  C   UNL     1       5.068  -1.066  25.855  0.00  0.00    +0.045 C 
ATOM     10  C   UNL     1       3.987  -3.223  25.043  0.00  0.00    -0.005 A 
ATOM     11  C   UNL     1       2.869  -3.038  26.045  0.00  0.00    +0.048 C 
BRANCH   3  13
ATOM     12  C   UNL     1       2.327  -5.683  23.219  0.00  0.00    +0.277 C 
ATOM     13  O   UNL     1       3.020  -5.305  24.407  0.00  0.00    -0.495 OA
ENDBRANCH   3  13
ENDBRANCH   1   7
BRANCH   2  14
ATOM     14  C   UNL     1       9.073   0.056  24.292  0.00  0.00    -0.050 C 
ATOM     15  C   UNL     1       8.706   1.116  23.536  0.00  0.00    +0.003 C 
ATOM     16  C   UNL     1      10.447  -0.001  24.925  0.00  0.00    +0.044 C 
BRANCH  15  17
ATOM     17  C   UNL     1       9.550   2.268  23.273  0.00  0.00    +0.001 C 
ATOM     18  C   UNL     1       9.517   3.426  23.954  0.00  0.00    +0.003 C 
BRANCH  18  19
ATOM     19  C   UNL     1      10.412   4.533  23.635  0.00  0.00    -0.044 C 
ATOM     20  C   UNL     1      11.721   4.297  23.414  0.00  0.00    +0.094 C 
ATOM     21  C   UNL     1       9.765   5.893  23.571  0.00  0.00    +0.044 C 
BRANCH  20  22
ATOM     22  C   UNL     1      12.713   5.330  23.044  0.00  0.00    +0.330 C 
ATOM     23  O   UNL     1      13.134   5.542  21.922  0.00  0.00    -0.246 OA
BRANCH  22  24
ATOM     24  O   UNL     1      13.130   6.030  24.121  0.00  0.00    -0.478 OA
ATOM     25  H   UNL     1      12.647   6.856  24.306  0.00  0.00    +0.295 HD
ENDBRANCH  22  24
ENDBRANCH  20  22
ENDBRANCH  18  19
ENDBRANCH  15  17
ENDBRANCH   2  14
TORSDOF 7
ENDMDL
MODEL 7
REMARK VINA RESULT:      -5.7      1.905     10.152
REMARK  Name = 
REMARK  13 active torsions:
REMARK  status: ('A' for Active; 'I' for Inactive)
REMARK    1  A    between atoms: C_1  and  O_2
REMARK    2  A    between atoms: O_2  and  C_3
REMARK    3  A    between atoms: C_4  and  C_5
REMARK    4  A    between atoms: C_6  and  C_7
REMARK    5  A    between atoms: C_8  and  C_9
REMARK    6  A    between atoms: C_10  and  C_11
REMARK    7  A    between atoms: C_11  and  C_12
REMARK    8  A    between atoms: C_13  and  C_14
REMARK    9  A    between atoms: C_15  and  C_16
REMARK   10  A    between atoms: C_16  and  C_17
REMARK   11  A    between atoms: C_18  and  C_19
REMARK   12  A    between atoms: C_19  and  O_20
REMARK   13  A    between atoms: C_22  and  C_23
REMARK                            x       y       z     vdW  Elec       q    Type
REMARK                         _______ _______ _______ _____ _____    ______ ____
ROOT
ATOM      1  C   UNL     1       7.858   0.042  23.915  0.00  0.00    +0.009 C 
ATOM      2  C   UNL     1       7.897  -1.031  23.104  0.00  0.00    +0.004 C 
ENDROOT
BRANCH   1   7
ATOM      3  C   UNL     1       9.835   3.883  23.586  0.00  0.00    +0.124 A 
ATOM      4  C   UNL     1      10.535   2.766  24.039  0.00  0.00    +0.049 A 
ATOM      5  C   UNL     1       9.934   1.499  24.167  0.00  0.00    -0.040 A 
ATOM      6  C   UNL     1      10.829   0.447  24.764  0.00  0.00    +0.044 C 
ATOM      7  C   UNL     1       8.589   1.330  23.778  0.00  0.00    -0.019 A 
ATOM      8  C   UNL     1       7.856   2.481  23.327  0.00  0.00    -0.037 A 
ATOM      9  C   UNL     1       6.405   2.330  22.902  0.00  0.00    +0.045 C 
ATOM     10  C   UNL     1       8.472   3.766  23.284  0.00  0.00    -0.005 A 
ATOM     11  C   UNL     1       7.685   4.998  22.899  0.00  0.00    +0.048 C 
BRANCH   3  13
ATOM     12  C   UNL     1      11.844   5.126  23.465  0.00  0.00    +0.277 C 
ATOM     13  O   UNL     1      10.418   5.122  23.496  0.00  0.00    -0.495 OA
ENDBRANCH   3  13
ENDBRANCH   1   7
BRANCH   2  14
ATOM     14  C   UNL     1       7.128  -2.273  23.260  0.00  0.00    -0.050 C 
ATOM     15  C   UNL     1       6.257  -2.392  24.288  0.00  0.00    +0.003 C 
ATOM     16  C   UNL     1       7.345  -3.422  22.298  0.00  0.00    +0.044 C 
BRANCH  15  17
ATOM     17  C   UNL     1       5.462  -3.576  24.558  0.00  0.00    +0.001 C 
ATOM     18  C   UNL     1       4.256  -3.839  24.027  0.00  0.00    +0.003 C 
BRANCH  18  19
ATOM     19  C   UNL     1       3.526  -5.064  24.340  0.00  0.00    -0.044 C 
ATOM     20  C   UNL     1       4.188  -6.135  24.821  0.00  0.00    +0.094 C 
ATOM     21  C   UNL     1       2.041  -5.014  24.095  0.00  0.00    +0.044 C 
BRANCH  20  22
ATOM     22  C   UNL     1       3.552  -7.413  25.212  0.00  0.00    +0.330 C 
ATOM     23  O   UNL     1       3.184  -8.286  24.448  0.00  0.00    -0.246 OA
BRANCH  22  24
ATOM     24  O   UNL     1       3.405  -7.507  26.551  0.00  0.00    -0.478 OA
ATOM     25  H   UNL     1       3.650  -8.363  26.947  0.00  0.00    +0.295 HD
ENDBRANCH  22  24
ENDBRANCH  20  22
ENDBRANCH  18  19
ENDBRANCH  15  17
ENDBRANCH   2  14
TORSDOF 7
ENDMDL
MODEL 8
REMARK VINA RESULT:      -5.7      1.765     10.209
REMARK  Name = 
REMARK  13 active torsions:
REMARK  status: ('A' for Active; 'I' for Inactive)
REMARK    1  A    between atoms: C_1  and  O_2
REMARK    2  A    between atoms: O_2  and  C_3
REMARK    3  A    between atoms: C_4  and  C_5
REMARK    4  A    between atoms: C_6  and  C_7
REMARK    5  A    between atoms: C_8  and  C_9
REMARK    6  A    between atoms: C_10  and  C_11
REMARK    7  A    between atoms: C_11  and  C_12
REMARK    8  A    between atoms: C_13  and  C_14
REMARK    9  A    between atoms: C_15  and  C_16
REMARK   10  A    between atoms: C_16  and  C_17
REMARK   11  A    between atoms: C_18  and  C_19
REMARK   12  A    between atoms: C_19  and  O_20
REMARK   13  A    between atoms: C_22  and  C_23
REMARK                            x       y       z     vdW  Elec       q    Type
REMARK                         _______ _______ _______ _____ _____    ______ ____
ROOT
ATOM      1  C   UNL     1       8.119   0.636  24.377  0.00  0.00    +0.009 C 
ATOM      2  C   UNL     1       7.798  -0.378  23.553  0.00  0.00    +0.004 C 
ENDROOT
BRANCH   1   7
ATOM      3  C   UNL     1      10.327   4.284  23.614  0.00  0.00    +0.124 A 
ATOM      4  C   UNL     1      10.999   3.072  23.767  0.00  0.00    +0.049 A 
ATOM      5  C   UNL     1      10.324   1.863  24.021  0.00  0.00    -0.040 A 
ATOM      6  C   UNL     1      11.233   0.684  24.251  0.00  0.00    +0.044 C 
ATOM      7  C   UNL     1       8.915   1.855  24.075  0.00  0.00    -0.019 A 
ATOM      8  C   UNL     1       8.218   3.104  23.936  0.00  0.00    -0.037 A 
ATOM      9  C   UNL     1       6.699   3.128  23.990  0.00  0.00    +0.045 C 
ATOM     10  C   UNL     1       8.935   4.323  23.759  0.00  0.00    -0.005 A 
ATOM     11  C   UNL     1       8.216   5.653  23.704  0.00  0.00    +0.048 C 
BRANCH   3  13
ATOM     12  C   UNL     1      12.405   5.348  23.228  0.00  0.00    +0.277 C 
ATOM     13  O   UNL     1      10.994   5.465  23.401  0.00  0.00    -0.495 OA
ENDBRANCH   3  13
ENDBRANCH   1   7
BRANCH   2  14
ATOM     14  C   UNL     1       6.976  -1.549  23.887  0.00  0.00    -0.050 C 
ATOM     15  C   UNL     1       6.962  -2.012  25.158  0.00  0.00    +0.003 C 
ATOM     16  C   UNL     1       6.186  -2.252  22.803  0.00  0.00    +0.044 C 
BRANCH  15  17
ATOM     17  C   UNL     1       6.211  -3.172  25.602  0.00  0.00    +0.001 C 
ATOM     18  C   UNL     1       6.746  -4.345  25.980  0.00  0.00    +0.003 C 
BRANCH  18  19
ATOM     19  C   UNL     1       5.918  -5.461  26.428  0.00  0.00    -0.044 C 
ATOM     20  C   UNL     1       5.775  -5.704  27.747  0.00  0.00    +0.094 C 
ATOM     21  C   UNL     1       5.267  -6.266  25.334  0.00  0.00    +0.044 C 
BRANCH  20  22
ATOM     22  C   UNL     1       4.933  -6.776  28.319  0.00  0.00    +0.330 C 
ATOM     23  O   UNL     1       3.748  -6.686  28.581  0.00  0.00    -0.246 OA
BRANCH  22  24
ATOM     24  O   UNL     1       5.644  -7.902  28.543  0.00  0.00    -0.478 OA
ATOM     25  H   UNL     1       6.411  -8.045  27.960  0.00  0.00    +0.295 HD
ENDBRANCH  22  24
ENDBRANCH  20  22
ENDBRANCH  18  19
ENDBRANCH  15  17
ENDBRANCH   2  14
TORSDOF 7
ENDMDL
MODEL 9
REMARK VINA RESULT:      -5.6      2.029     10.280
REMARK  Name = 
REMARK  13 active torsions:
REMARK  status: ('A' for Active; 'I' for Inactive)
REMARK    1  A    between atoms: C_1  and  O_2
REMARK    2  A    between atoms: O_2  and  C_3
REMARK    3  A    between atoms: C_4  and  C_5
REMARK    4  A    between atoms: C_6  and  C_7
REMARK    5  A    between atoms: C_8  and  C_9
REMARK    6  A    between atoms: C_10  and  C_11
REMARK    7  A    between atoms: C_11  and  C_12
REMARK    8  A    between atoms: C_13  and  C_14
REMARK    9  A    between atoms: C_15  and  C_16
REMARK   10  A    between atoms: C_16  and  C_17
REMARK   11  A    between atoms: C_18  and  C_19
REMARK   12  A    between atoms: C_19  and  O_20
REMARK   13  A    between atoms: C_22  and  C_23
REMARK                            x       y       z     vdW  Elec       q    Type
REMARK                         _______ _______ _______ _____ _____    ______ ____
ROOT
ATOM      1  C   UNL     1       7.684   1.239  24.153  0.00  0.00    +0.009 C 
ATOM      2  C   UNL     1       7.625   0.319  25.133  0.00  0.00    +0.004 C 
ENDROOT
BRANCH   1   7
ATOM      3  C   UNL     1       9.566   5.142  24.118  0.00  0.00    +0.124 A 
ATOM      4  C   UNL     1       8.212   5.015  24.425  0.00  0.00    +0.049 A 
ATOM      5  C   UNL     1       7.557   3.768  24.444  0.00  0.00    -0.040 A 
ATOM      6  C   UNL     1       6.076   3.852  24.702  0.00  0.00    +0.044 C 
ATOM      7  C   UNL     1       8.297   2.594  24.195  0.00  0.00    -0.019 A 
ATOM      8  C   UNL     1       9.689   2.720  23.860  0.00  0.00    -0.037 A 
ATOM      9  C   UNL     1      10.513   1.472  23.586  0.00  0.00    +0.045 C 
ATOM     10  C   UNL     1      10.304   4.003  23.772  0.00  0.00    -0.005 A 
ATOM     11  C   UNL     1      11.743   4.152  23.331  0.00  0.00    +0.048 C 
BRANCH   3  13
ATOM     12  C   UNL     1      10.405   6.993  25.329  0.00  0.00    +0.277 C 
ATOM     13  O   UNL     1      10.190   6.363  24.067  0.00  0.00    -0.495 OA
ENDBRANCH   3  13
ENDBRANCH   1   7
BRANCH   2  14
ATOM     14  C   UNL     1       7.039  -1.025  25.036  0.00  0.00    -0.050 C 
ATOM     15  C   UNL     1       6.409  -1.395  23.897  0.00  0.00    +0.003 C 
ATOM     16  C   UNL     1       7.108  -1.967  26.219  0.00  0.00    +0.044 C 
BRANCH  15  17
ATOM     17  C   UNL     1       5.772  -2.683  23.693  0.00  0.00    +0.001 C 
ATOM     18  C   UNL     1       6.058  -3.542  22.700  0.00  0.00    +0.003 C 
BRANCH  18  19
ATOM     19  C   UNL     1       5.380  -4.828  22.574  0.00  0.00    -0.044 C 
ATOM     20  C   UNL     1       4.328  -5.114  23.367  0.00  0.00    +0.094 C 
ATOM     21  C   UNL     1       5.934  -5.753  21.521  0.00  0.00    +0.044 C 
BRANCH  20  22
ATOM     22  C   UNL     1       3.539  -6.363  23.303  0.00  0.00    +0.330 C 
ATOM     23  O   UNL     1       2.452  -6.491  22.770  0.00  0.00    -0.246 OA
BRANCH  22  24
ATOM     24  O   UNL     1       4.165  -7.381  23.933  0.00  0.00    -0.478 OA
ATOM     25  H   UNL     1       3.700  -7.756  24.702  0.00  0.00    +0.295 HD
ENDBRANCH  22  24
ENDBRANCH  20  22
ENDBRANCH  18  19
ENDBRANCH  15  17
ENDBRANCH   2  14
TORSDOF 7
ENDMDL
