MODEL 1
REMARK VINA RESULT:      -7.4      0.000      0.000
REMARK  Name = 
REMARK  5 active torsions:
REMARK  status: ('A' for Active; 'I' for Inactive)
REMARK    1  A    between atoms: C_2  and  C_4
REMARK    2  A    between atoms: C_7  and  N_8
REMARK    3  A    between atoms: N_8  and  N_9
REMARK    4  A    between atoms: N_10  and  C_11
REMARK    5  A    between atoms: C_14  and  C_17
REMARK                            x       y       z     vdW  Elec       q    Type
REMARK                         _______ _______ _______ _____ _____    ______ ____
ROOT
ATOM      1  N   UNL     1      10.133  -2.065  22.924  0.00  0.00    -0.219 N 
ATOM      2  H   UNL     1      10.329  -2.475  22.017  0.00  0.00    +0.176 HD
ENDROOT
BRANCH   1   6
ATOM      3  C   UNL     1      10.349   2.153  23.125  0.00  0.00    +0.065 A 
ATOM      4  C   UNL     1      10.704   1.372  24.229  0.00  0.00    +0.018 A 
ATOM      5  C   UNL     1      10.621  -0.023  24.157  0.00  0.00    +0.025 A 
ATOM      6  C   UNL     1      10.229  -0.658  22.970  0.00  0.00    +0.050 A 
ATOM      7  C   UNL     1       9.870   0.140  21.873  0.00  0.00    +0.025 A 
ATOM      8  C   UNL     1       9.934   1.535  21.944  0.00  0.00    +0.018 A 
BRANCH   3  12
ATOM      9  N   UNL     1       9.244   4.358  23.325  0.00  0.00    -0.247 N 
ATOM     10  H   UNL     1       8.459   3.862  23.737  0.00  0.00    +0.288 HD
ATOM     11  H   UNL     1       9.342   5.285  23.722  0.00  0.00    +0.288 HD
ATOM     12  C   UNL     1      10.400   3.640  23.219  0.00  0.00    +0.308 C 
ATOM     13  N   UNL     1      11.543   4.240  23.223  0.00  0.00    -0.099 NA
ATOM     14  H   UNL     1      11.401   5.251  23.253  0.00  0.00    +0.363 HD
ENDBRANCH   3  12
ENDBRANCH   1   6
BRANCH   1  15
ATOM     15  N   UNL     1       9.083  -2.622  23.566  0.00  0.00    -0.076 NA
ATOM     16  N   UNL     1       9.534  -3.553  24.260  0.00  0.00    -0.134 NA
BRANCH  16  17
ATOM     17  C   UNL     1       8.496  -4.265  24.900  0.00  0.00    +0.088 A 
ATOM     18  C   UNL     1       8.556  -4.680  26.240  0.00  0.00    +0.030 A 
ATOM     19  C   UNL     1       7.494  -5.374  26.828  0.00  0.00    +0.018 A 
ATOM     20  C   UNL     1       6.353  -5.677  26.078  0.00  0.00    +0.065 A 
ATOM     21  C   UNL     1       6.293  -5.298  24.733  0.00  0.00    +0.018 A 
ATOM     22  C   UNL     1       7.359  -4.597  24.154  0.00  0.00    +0.030 A 
BRANCH  20  23
ATOM     23  C   UNL     1       5.224  -6.406  26.719  0.00  0.00    +0.308 C 
ATOM     24  N   UNL     1       4.002  -6.327  26.300  0.00  0.00    -0.099 NA
ATOM     25  H   UNL     1       3.913  -5.671  25.520  0.00  0.00    +0.363 HD
ATOM     26  N   UNL     1       5.443  -7.205  27.800  0.00  0.00    -0.247 N 
ATOM     27  H   UNL     1       4.626  -7.777  27.995  0.00  0.00    +0.288 HD
ATOM     28  H   UNL     1       6.300  -7.744  27.793  0.00  0.00    +0.288 HD
ENDBRANCH  20  23
ENDBRANCH  16  17
ENDBRANCH   1  15
TORSDOF 5
ENDMDL
MODEL 2
REMARK VINA RESULT:      -7.4      0.109      1.449
REMARK  Name = 
REMARK  5 active torsions:
REMARK  status: ('A' for Active; 'I' for Inactive)
REMARK    1  A    between atoms: C_2  and  C_4
REMARK    2  A    between atoms: C_7  and  N_8
REMARK    3  A    between atoms: N_8  and  N_9
REMARK    4  A    between atoms: N_10  and  C_11
REMARK    5  A    between atoms: C_14  and  C_17
REMARK                            x       y       z     vdW  Elec       q    Type
REMARK                         _______ _______ _______ _____ _____    ______ ____
ROOT
ATOM      1  N   UNL     1      10.191  -2.079  22.932  0.00  0.00    -0.219 N 
ATOM      2  H   UNL     1      10.477  -2.483  22.047  0.00  0.00    +0.176 HD
ENDROOT
BRANCH   1   6
ATOM      3  C   UNL     1      10.329   2.141  23.169  0.00  0.00    +0.065 A 
ATOM      4  C   UNL     1      10.714   1.357  24.261  0.00  0.00    +0.018 A 
ATOM      5  C   UNL     1      10.657  -0.039  24.177  0.00  0.00    +0.025 A 
ATOM      6  C   UNL     1      10.261  -0.670  22.990  0.00  0.00    +0.050 A 
ATOM      7  C   UNL     1       9.871   0.130  21.905  0.00  0.00    +0.025 A 
ATOM      8  C   UNL     1       9.910   1.525  21.989  0.00  0.00    +0.018 A 
BRANCH   3  12
ATOM      9  N   UNL     1      11.542   4.297  23.242  0.00  0.00    -0.247 N 
ATOM     10  H   UNL     1      12.293   3.824  22.749  0.00  0.00    +0.288 HD
ATOM     11  H   UNL     1      11.485   5.272  22.975  0.00  0.00    +0.288 HD
ATOM     12  C   UNL     1      10.353   3.627  23.277  0.00  0.00    +0.308 C 
ATOM     13  N   UNL     1       9.241   4.277  23.381  0.00  0.00    -0.099 NA
ATOM     14  H   UNL     1       9.434   5.275  23.483  0.00  0.00    +0.363 HD
ENDBRANCH   3  12
ENDBRANCH   1   6
BRANCH   1  15
ATOM     15  N   UNL     1       9.096  -2.654  23.473  0.00  0.00    -0.076 NA
ATOM     16  N   UNL     1       9.498  -3.507  24.287  0.00  0.00    -0.134 NA
BRANCH  16  17
ATOM     17  C   UNL     1       8.421  -4.236  24.840  0.00  0.00    +0.088 A 
ATOM     18  C   UNL     1       7.235  -4.510  24.142  0.00  0.00    +0.030 A 
ATOM     19  C   UNL     1       6.203  -5.245  24.734  0.00  0.00    +0.018 A 
ATOM     20  C   UNL     1       6.337  -5.711  26.046  0.00  0.00    +0.065 A 
ATOM     21  C   UNL     1       7.501  -5.418  26.764  0.00  0.00    +0.018 A 
ATOM     22  C   UNL     1       8.531  -4.686  26.161  0.00  0.00    +0.030 A 
BRANCH  20  23
ATOM     23  C   UNL     1       5.237  -6.504  26.660  0.00  0.00    +0.308 C 
ATOM     24  N   UNL     1       5.368  -7.153  27.772  0.00  0.00    -0.099 NA
ATOM     25  H   UNL     1       6.323  -7.091  28.133  0.00  0.00    +0.363 HD
ATOM     26  N   UNL     1       4.017  -6.574  26.057  0.00  0.00    -0.247 N 
ATOM     27  H   UNL     1       3.329  -6.979  26.687  0.00  0.00    +0.288 HD
ATOM     28  H   UNL     1       3.686  -5.727  25.615  0.00  0.00    +0.288 HD
ENDBRANCH  20  23
ENDBRANCH  16  17
ENDBRANCH   1  15
TORSDOF 5
ENDMDL
MODEL 3
REMARK VINA RESULT:      -7.3      0.852      1.624
REMARK  Name = 
REMARK  5 active torsions:
REMARK  status: ('A' for Active; 'I' for Inactive)
REMARK    1  A    between atoms: C_2  and  C_4
REMARK    2  A    between atoms: C_7  and  N_8
REMARK    3  A    between atoms: N_8  and  N_9
REMARK    4  A    between atoms: N_10  and  C_11
REMARK    5  A    between atoms: C_14  and  C_17
REMARK                            x       y       z     vdW  Elec       q    Type
REMARK                         _______ _______ _______ _____ _____    ______ ____
ROOT
ATOM      1  N   UNL     1      10.193  -2.119  23.067  0.00  0.00    -0.219 N 
ATOM      2  H   UNL     1      10.706  -2.499  22.279  0.00  0.00    +0.176 HD
ENDROOT
BRANCH   1   6
ATOM      3  C   UNL     1      10.219   2.107  23.222  0.00  0.00    +0.065 A 
ATOM      4  C   UNL     1       9.912   1.443  22.031  0.00  0.00    +0.018 A 
ATOM      5  C   UNL     1       9.914   0.044  21.986  0.00  0.00    +0.025 A 
ATOM      6  C   UNL     1      10.176  -0.710  23.137  0.00  0.00    +0.050 A 
ATOM      7  C   UNL     1      10.489  -0.029  24.324  0.00  0.00    +0.025 A 
ATOM      8  C   UNL     1      10.505   1.368  24.371  0.00  0.00    +0.018 A 
BRANCH   3  12
ATOM      9  N   UNL     1      11.452   4.251  23.284  0.00  0.00    -0.247 N 
ATOM     10  H   UNL     1      12.234   3.745  22.879  0.00  0.00    +0.288 HD
ATOM     11  H   UNL     1      11.431   5.212  22.964  0.00  0.00    +0.288 HD
ATOM     12  C   UNL     1      10.255   3.596  23.255  0.00  0.00    +0.308 C 
ATOM     13  N   UNL     1       9.148   4.262  23.234  0.00  0.00    -0.099 NA
ATOM     14  H   UNL     1       9.346   5.261  23.301  0.00  0.00    +0.363 HD
ENDBRANCH   3  12
ENDBRANCH   1   6
BRANCH   1  15
ATOM     15  N   UNL     1       9.029  -2.753  23.325  0.00  0.00    -0.076 NA
ATOM     16  N   UNL     1       9.282  -3.664  24.136  0.00  0.00    -0.134 NA
BRANCH  16  17
ATOM     17  C   UNL     1       8.139  -4.451  24.397  0.00  0.00    +0.088 A 
ATOM     18  C   UNL     1       7.734  -4.820  25.689  0.00  0.00    +0.030 A 
ATOM     19  C   UNL     1       6.587  -5.594  25.892  0.00  0.00    +0.018 A 
ATOM     20  C   UNL     1       5.828  -6.023  24.798  0.00  0.00    +0.065 A 
ATOM     21  C   UNL     1       6.238  -5.690  23.503  0.00  0.00    +0.018 A 
ATOM     22  C   UNL     1       7.384  -4.909  23.310  0.00  0.00    +0.030 A 
BRANCH  20  23
ATOM     23  C   UNL     1       4.601  -6.835  25.028  0.00  0.00    +0.308 C 
ATOM     24  N   UNL     1       3.906  -7.354  24.068  0.00  0.00    -0.099 NA
ATOM     25  H   UNL     1       4.276  -7.091  23.152  0.00  0.00    +0.363 HD
ATOM     26  N   UNL     1       4.156  -7.069  26.294  0.00  0.00    -0.247 N 
ATOM     27  H   UNL     1       3.439  -7.790  26.295  0.00  0.00    +0.288 HD
ATOM     28  H   UNL     1       4.866  -7.229  26.997  0.00  0.00    +0.288 HD
ENDBRANCH  20  23
ENDBRANCH  16  17
ENDBRANCH   1  15
TORSDOF 5
ENDMDL
MODEL 4
REMARK VINA RESULT:      -7.3      2.663      3.930
REMARK  Name = 
REMARK  5 active torsions:
REMARK  status: ('A' for Active; 'I' for Inactive)
REMARK    1  A    between atoms: C_2  and  C_4
REMARK    2  A    between atoms: C_7  and  N_8
REMARK    3  A    between atoms: N_8  and  N_9
REMARK    4  A    between atoms: N_10  and  C_11
REMARK    5  A    between atoms: C_14  and  C_17
REMARK                            x       y       z     vdW  Elec       q    Type
REMARK                         _______ _______ _______ _____ _____    ______ ____
ROOT
ATOM      1  N   UNL     1       8.039   2.201  23.474  0.00  0.00    -0.219 N 
ATOM      2  H   UNL     1       7.243   2.496  24.027  0.00  0.00    +0.176 HD
ENDROOT
BRANCH   1   6
ATOM      3  C   UNL     1      11.366   4.807  23.632  0.00  0.00    +0.065 A 
ATOM      4  C   UNL     1      11.539   3.455  23.322  0.00  0.00    +0.018 A 
ATOM      5  C   UNL     1      10.434   2.597  23.280  0.00  0.00    +0.025 A 
ATOM      6  C   UNL     1       9.139   3.085  23.501  0.00  0.00    +0.050 A 
ATOM      7  C   UNL     1       8.982   4.443  23.818  0.00  0.00    +0.025 A 
ATOM      8  C   UNL     1      10.084   5.302  23.878  0.00  0.00    +0.018 A 
BRANCH   3  12
ATOM      9  N   UNL     1      13.454   5.746  22.693  0.00  0.00    -0.247 N 
ATOM     10  H   UNL     1      13.090   5.489  21.781  0.00  0.00    +0.288 HD
ATOM     11  H   UNL     1      14.018   6.585  22.641  0.00  0.00    +0.288 HD
ATOM     12  C   UNL     1      12.550   5.707  23.715  0.00  0.00    +0.308 C 
ATOM     13  N   UNL     1      12.703   6.467  24.749  0.00  0.00    -0.099 NA
ATOM     14  H   UNL     1      13.577   6.988  24.667  0.00  0.00    +0.363 HD
ENDBRANCH   3  12
ENDBRANCH   1   6
BRANCH   1  15
ATOM     15  N   UNL     1       8.320   0.883  23.568  0.00  0.00    -0.076 NA
ATOM     16  N   UNL     1       7.947   0.512  24.698  0.00  0.00    -0.134 NA
BRANCH  16  17
ATOM     17  C   UNL     1       8.286  -0.839  24.932  0.00  0.00    +0.088 A 
ATOM     18  C   UNL     1       9.074  -1.600  24.055  0.00  0.00    +0.030 A 
ATOM     19  C   UNL     1       9.389  -2.933  24.340  0.00  0.00    +0.018 A 
ATOM     20  C   UNL     1       8.907  -3.533  25.509  0.00  0.00    +0.065 A 
ATOM     21  C   UNL     1       8.094  -2.795  26.376  0.00  0.00    +0.018 A 
ATOM     22  C   UNL     1       7.790  -1.459  26.085  0.00  0.00    +0.030 A 
BRANCH  20  23
ATOM     23  C   UNL     1       9.260  -4.948  25.808  0.00  0.00    +0.308 C 
ATOM     24  N   UNL     1      10.358  -5.503  25.407  0.00  0.00    -0.099 NA
ATOM     25  H   UNL     1      10.911  -4.867  24.827  0.00  0.00    +0.363 HD
ATOM     26  N   UNL     1       8.415  -5.731  26.535  0.00  0.00    -0.247 N 
ATOM     27  H   UNL     1       8.878  -6.591  26.819  0.00  0.00    +0.288 HD
ATOM     28  H   UNL     1       7.934  -5.279  27.303  0.00  0.00    +0.288 HD
ENDBRANCH  20  23
ENDBRANCH  16  17
ENDBRANCH   1  15
TORSDOF 5
ENDMDL
MODEL 5
REMARK VINA RESULT:      -7.3      1.252      8.700
REMARK  Name = 
REMARK  5 active torsions:
REMARK  status: ('A' for Active; 'I' for Inactive)
REMARK    1  A    between atoms: C_2  and  C_4
REMARK    2  A    between atoms: C_7  and  N_8
REMARK    3  A    between atoms: N_8  and  N_9
REMARK    4  A    between atoms: N_10  and  C_11
REMARK    5  A    between atoms: C_14  and  C_17
REMARK                            x       y       z     vdW  Elec       q    Type
REMARK                         _______ _______ _______ _____ _____    ______ ____
ROOT
ATOM      1  N   UNL     1       9.306  -3.935  24.482  0.00  0.00    -0.219 N 
ATOM      2  H   UNL     1       9.905  -4.334  25.196  0.00  0.00    +0.176 HD
ENDROOT
BRANCH   1   6
ATOM      3  C   UNL     1       5.597  -5.926  24.080  0.00  0.00    +0.065 A 
ATOM      4  C   UNL     1       6.044  -5.508  25.337  0.00  0.00    +0.018 A 
ATOM      5  C   UNL     1       7.277  -4.858  25.463  0.00  0.00    +0.025 A 
ATOM      6  C   UNL     1       8.057  -4.574  24.333  0.00  0.00    +0.050 A 
ATOM      7  C   UNL     1       7.597  -5.006  23.079  0.00  0.00    +0.025 A 
ATOM      8  C   UNL     1       6.374  -5.671  22.949  0.00  0.00    +0.018 A 
BRANCH   3  12
ATOM      9  N   UNL     1       3.459  -6.379  22.918  0.00  0.00    -0.247 N 
ATOM     10  H   UNL     1       3.904  -6.013  22.082  0.00  0.00    +0.288 HD
ATOM     11  H   UNL     1       2.795  -7.110  22.692  0.00  0.00    +0.288 HD
ATOM     12  C   UNL     1       4.303  -6.654  23.957  0.00  0.00    +0.308 C 
ATOM     13  N   UNL     1       3.996  -7.561  24.824  0.00  0.00    -0.099 NA
ATOM     14  H   UNL     1       3.067  -7.933  24.619  0.00  0.00    +0.363 HD
ENDBRANCH   3  12
ENDBRANCH   1   6
BRANCH   1  15
ATOM     15  N   UNL     1       9.302  -2.585  24.457  0.00  0.00    -0.076 NA
ATOM     16  N   UNL     1       9.866  -2.240  23.400  0.00  0.00    -0.134 NA
BRANCH  16  17
ATOM     17  C   UNL     1       9.999  -0.836  23.325  0.00  0.00    +0.088 A 
ATOM     18  C   UNL     1       9.853  -0.109  22.133  0.00  0.00    +0.030 A 
ATOM     19  C   UNL     1       9.986   1.283  22.116  0.00  0.00    +0.018 A 
ATOM     20  C   UNL     1      10.280   1.974  23.296  0.00  0.00    +0.065 A 
ATOM     21  C   UNL     1      10.460   1.259  24.485  0.00  0.00    +0.018 A 
ATOM     22  C   UNL     1      10.318  -0.134  24.493  0.00  0.00    +0.030 A 
BRANCH  20  23
ATOM     23  C   UNL     1      10.406   3.457  23.267  0.00  0.00    +0.308 C 
ATOM     24  N   UNL     1       9.395   4.255  23.389  0.00  0.00    -0.099 NA
ATOM     25  H   UNL     1       8.514   3.739  23.452  0.00  0.00    +0.363 HD
ATOM     26  N   UNL     1      11.626   4.043  23.109  0.00  0.00    -0.247 N 
ATOM     27  H   UNL     1      11.573   5.039  23.308  0.00  0.00    +0.288 HD
ATOM     28  H   UNL     1      12.403   3.596  23.579  0.00  0.00    +0.288 HD
ENDBRANCH  20  23
ENDBRANCH  16  17
ENDBRANCH   1  15
TORSDOF 5
ENDMDL
MODEL 6
REMARK VINA RESULT:      -7.3      0.511      8.825
REMARK  Name = 
REMARK  5 active torsions:
REMARK  status: ('A' for Active; 'I' for Inactive)
REMARK    1  A    between atoms: C_2  and  C_4
REMARK    2  A    between atoms: C_7  and  N_8
REMARK    3  A    between atoms: N_8  and  N_9
REMARK    4  A    between atoms: N_10  and  C_11
REMARK    5  A    between atoms: C_14  and  C_17
REMARK                            x       y       z     vdW  Elec       q    Type
REMARK                         _______ _______ _______ _____ _____    ______ ____
ROOT
ATOM      1  N   UNL     1       9.039  -3.887  24.255  0.00  0.00    -0.219 N 
ATOM      2  H   UNL     1       9.961  -4.296  24.359  0.00  0.00    +0.176 HD
ENDROOT
BRANCH   1   6
ATOM      3  C   UNL     1       6.062  -5.820  26.553  0.00  0.00    +0.065 A 
ATOM      4  C   UNL     1       7.249  -5.387  27.151  0.00  0.00    +0.018 A 
ATOM      5  C   UNL     1       8.233  -4.757  26.381  0.00  0.00    +0.025 A 
ATOM      6  C   UNL     1       8.027  -4.507  25.018  0.00  0.00    +0.050 A 
ATOM      7  C   UNL     1       6.833  -4.954  24.430  0.00  0.00    +0.025 A 
ATOM      8  C   UNL     1       5.853  -5.600  25.191  0.00  0.00    +0.018 A 
BRANCH   3  12
ATOM      9  N   UNL     1       5.418  -7.422  28.327  0.00  0.00    -0.247 N 
ATOM     10  H   UNL     1       6.343  -7.269  28.718  0.00  0.00    +0.288 HD
ATOM     11  H   UNL     1       4.736  -7.600  29.054  0.00  0.00    +0.288 HD
ATOM     12  C   UNL     1       5.035  -6.528  27.368  0.00  0.00    +0.308 C 
ATOM     13  N   UNL     1       3.783  -6.273  27.177  0.00  0.00    -0.099 NA
ATOM     14  H   UNL     1       3.214  -6.866  27.785  0.00  0.00    +0.363 HD
ENDBRANCH   3  12
ENDBRANCH   1   6
BRANCH   1  15
ATOM     15  N   UNL     1       9.034  -2.537  24.225  0.00  0.00    -0.076 NA
ATOM     16  N   UNL     1       9.801  -2.191  23.306  0.00  0.00    -0.134 NA
BRANCH  16  17
ATOM     17  C   UNL     1       9.940  -0.786  23.256  0.00  0.00    +0.088 A 
ATOM     18  C   UNL     1       9.863  -0.045  22.066  0.00  0.00    +0.030 A 
ATOM     19  C   UNL     1       9.998   1.347  22.075  0.00  0.00    +0.018 A 
ATOM     20  C   UNL     1      10.227   2.023  23.278  0.00  0.00    +0.065 A 
ATOM     21  C   UNL     1      10.338   1.293  24.466  0.00  0.00    +0.018 A 
ATOM     22  C   UNL     1      10.194  -0.100  24.449  0.00  0.00    +0.030 A 
BRANCH  20  23
ATOM     23  C   UNL     1      10.356   3.506  23.275  0.00  0.00    +0.308 C 
ATOM     24  N   UNL     1       9.342   4.305  23.371  0.00  0.00    -0.099 NA
ATOM     25  H   UNL     1       8.459   3.790  23.395  0.00  0.00    +0.363 HD
ATOM     26  N   UNL     1      11.581   4.092  23.170  0.00  0.00    -0.247 N 
ATOM     27  H   UNL     1      11.524   5.085  23.380  0.00  0.00    +0.288 HD
ATOM     28  H   UNL     1      12.340   3.636  23.661  0.00  0.00    +0.288 HD
ENDBRANCH  20  23
ENDBRANCH  16  17
ENDBRANCH   1  15
TORSDOF 5
ENDMDL
MODEL 7
REMARK VINA RESULT:      -6.7      1.987      2.768
REMARK  Name = 
REMARK  5 active torsions:
REMARK  status: ('A' for Active; 'I' for Inactive)
REMARK    1  A    between atoms: C_2  and  C_4
REMARK    2  A    between atoms: C_7  and  N_8
REMARK    3  A    between atoms: N_8  and  N_9
REMARK    4  A    between atoms: N_10  and  C_11
REMARK    5  A    between atoms: C_14  and  C_17
REMARK                            x       y       z     vdW  Elec       q    Type
REMARK                         _______ _______ _______ _____ _____    ______ ____
ROOT
ATOM      1  N   UNL     1      10.312   0.266  23.668  0.00  0.00    -0.219 N 
ATOM      2  H   UNL     1      10.830  -0.135  22.894  0.00  0.00    +0.176 HD
ENDROOT
BRANCH   1   6
ATOM      3  C   UNL     1       8.034   3.665  22.599  0.00  0.00    +0.065 A 
ATOM      4  C   UNL     1       7.917   2.477  21.873  0.00  0.00    +0.018 A 
ATOM      5  C   UNL     1       8.681   1.359  22.228  0.00  0.00    +0.025 A 
ATOM      6  C   UNL     1       9.535   1.397  23.338  0.00  0.00    +0.050 A 
ATOM      7  C   UNL     1       9.647   2.600  24.053  0.00  0.00    +0.025 A 
ATOM      8  C   UNL     1       8.899   3.725  23.693  0.00  0.00    +0.018 A 
BRANCH   3  12
ATOM      9  N   UNL     1       5.887   4.851  22.276  0.00  0.00    -0.247 N 
ATOM     10  H   UNL     1       5.500   4.217  22.968  0.00  0.00    +0.288 HD
ATOM     11  H   UNL     1       5.444   5.761  22.323  0.00  0.00    +0.288 HD
ATOM     12  C   UNL     1       7.250   4.865  22.193  0.00  0.00    +0.308 C 
ATOM     13  N   UNL     1       7.867   5.923  21.784  0.00  0.00    -0.099 NA
ATOM     14  H   UNL     1       7.188   6.635  21.510  0.00  0.00    +0.363 HD
ENDBRANCH   3  12
ENDBRANCH   1   6
BRANCH   1  15
ATOM     15  N   UNL     1       9.737  -0.648  24.479  0.00  0.00    -0.076 NA
ATOM     16  N   UNL     1       9.764  -1.738  23.875  0.00  0.00    -0.134 NA
BRANCH  16  17
ATOM     17  C   UNL     1       9.095  -2.745  24.605  0.00  0.00    +0.088 A 
ATOM     18  C   UNL     1       9.556  -4.067  24.698  0.00  0.00    +0.030 A 
ATOM     19  C   UNL     1       8.859  -5.024  25.443  0.00  0.00    +0.018 A 
ATOM     20  C   UNL     1       7.675  -4.674  26.101  0.00  0.00    +0.065 A 
ATOM     21  C   UNL     1       7.187  -3.368  25.991  0.00  0.00    +0.018 A 
ATOM     22  C   UNL     1       7.896  -2.415  25.248  0.00  0.00    +0.030 A 
BRANCH  20  23
ATOM     23  C   UNL     1       6.950  -5.699  26.902  0.00  0.00    +0.308 C 
ATOM     24  N   UNL     1       7.337  -6.084  28.075  0.00  0.00    -0.099 NA
ATOM     25  H   UNL     1       8.217  -5.638  28.346  0.00  0.00    +0.363 HD
ATOM     26  N   UNL     1       5.819  -6.282  26.414  0.00  0.00    -0.247 N 
ATOM     27  H   UNL     1       5.340  -6.800  27.145  0.00  0.00    +0.288 HD
ATOM     28  H   UNL     1       5.194  -5.681  25.893  0.00  0.00    +0.288 HD
ENDBRANCH  20  23
ENDBRANCH  16  17
ENDBRANCH   1  15
TORSDOF 5
ENDMDL
MODEL 8
REMARK VINA RESULT:      -6.6      2.500      3.057
REMARK  Name = 
REMARK  5 active torsions:
REMARK  status: ('A' for Active; 'I' for Inactive)
REMARK    1  A    between atoms: C_2  and  C_4
REMARK    2  A    between atoms: C_7  and  N_8
REMARK    3  A    between atoms: N_8  and  N_9
REMARK    4  A    between atoms: N_10  and  C_11
REMARK    5  A    between atoms: C_14  and  C_17
REMARK                            x       y       z     vdW  Elec       q    Type
REMARK                         _______ _______ _______ _____ _____    ______ ____
ROOT
ATOM      1  N   UNL     1      10.469  -0.018  24.640  0.00  0.00    -0.219 N 
ATOM      2  H   UNL     1      11.335  -0.277  24.180  0.00  0.00    +0.176 HD
ENDROOT
BRANCH   1   6
ATOM      3  C   UNL     1       9.231   3.979  24.029  0.00  0.00    +0.065 A 
ATOM      4  C   UNL     1       8.423   3.088  24.741  0.00  0.00    +0.018 A 
ATOM      5  C   UNL     1       8.836   1.764  24.931  0.00  0.00    +0.025 A 
ATOM      6  C   UNL     1      10.080   1.326  24.455  0.00  0.00    +0.050 A 
ATOM      7  C   UNL     1      10.876   2.230  23.736  0.00  0.00    +0.025 A 
ATOM      8  C   UNL     1      10.461   3.549  23.529  0.00  0.00    +0.018 A 
BRANCH   3  12
ATOM      9  N   UNL     1       7.691   5.864  24.475  0.00  0.00    -0.247 N 
ATOM     10  H   UNL     1       7.510   5.426  25.373  0.00  0.00    +0.288 HD
ATOM     11  H   UNL     1       7.637   6.873  24.540  0.00  0.00    +0.288 HD
ATOM     12  C   UNL     1       8.769   5.376  23.794  0.00  0.00    +0.308 C 
ATOM     13  N   UNL     1       9.408   6.128  22.960  0.00  0.00    -0.099 NA
ATOM     14  H   UNL     1       8.943   7.034  22.887  0.00  0.00    +0.363 HD
ENDBRANCH   3  12
ENDBRANCH   1   6
BRANCH   1  15
ATOM     15  N   UNL     1       9.495  -0.949  24.548  0.00  0.00    -0.076 NA
ATOM     16  N   UNL     1       9.794  -1.695  23.595  0.00  0.00    -0.134 NA
BRANCH  16  17
ATOM     17  C   UNL     1       8.782  -2.650  23.355  0.00  0.00    +0.088 A 
ATOM     18  C   UNL     1       8.680  -3.861  24.058  0.00  0.00    +0.030 A 
ATOM     19  C   UNL     1       7.651  -4.768  23.787  0.00  0.00    +0.018 A 
ATOM     20  C   UNL     1       6.708  -4.483  22.793  0.00  0.00    +0.065 A 
ATOM     21  C   UNL     1       6.816  -3.295  22.063  0.00  0.00    +0.018 A 
ATOM     22  C   UNL     1       7.846  -2.389  22.347  0.00  0.00    +0.030 A 
BRANCH  20  23
ATOM     23  C   UNL     1       5.610  -5.452  22.523  0.00  0.00    +0.308 C 
ATOM     24  N   UNL     1       4.357  -5.139  22.600  0.00  0.00    -0.099 NA
ATOM     25  H   UNL     1       4.228  -4.175  22.915  0.00  0.00    +0.363 HD
ATOM     26  N   UNL     1       5.894  -6.737  22.174  0.00  0.00    -0.247 N 
ATOM     27  H   UNL     1       5.060  -7.209  21.834  0.00  0.00    +0.288 HD
ATOM     28  H   UNL     1       6.690  -6.871  21.562  0.00  0.00    +0.288 HD
ENDBRANCH  20  23
ENDBRANCH  16  17
ENDBRANCH   1  15
TORSDOF 5
ENDMDL
MODEL 9
REMARK VINA RESULT:      -6.5      2.740      8.732
REMARK  Name = 
REMARK  5 active torsions:
REMARK  status: ('A' for Active; 'I' for Inactive)
REMARK    1  A    between atoms: C_2  and  C_4
REMARK    2  A    between atoms: C_7  and  N_8
REMARK    3  A    between atoms: N_8  and  N_9
REMARK    4  A    between atoms: N_10  and  C_11
REMARK    5  A    between atoms: C_14  and  C_17
REMARK                            x       y       z     vdW  Elec       q    Type
REMARK                         _______ _______ _______ _____ _____    ______ ____
ROOT
ATOM      1  N   UNL     1       9.363  -1.670  23.846  0.00  0.00    -0.219 N 
ATOM      2  H   UNL     1       9.574  -1.642  24.838  0.00  0.00    +0.176 HD
ENDROOT
BRANCH   1   6
ATOM      3  C   UNL     1       6.787  -4.816  22.685  0.00  0.00    +0.065 A 
ATOM      4  C   UNL     1       6.723  -3.575  22.045  0.00  0.00    +0.018 A 
ATOM      5  C   UNL     1       7.573  -2.536  22.442  0.00  0.00    +0.025 A 
ATOM      6  C   UNL     1       8.529  -2.736  23.448  0.00  0.00    +0.050 A 
ATOM      7  C   UNL     1       8.576  -3.985  24.085  0.00  0.00    +0.025 A 
ATOM      8  C   UNL     1       7.718  -5.021  23.706  0.00  0.00    +0.018 A 
BRANCH   3  12
ATOM      9  N   UNL     1       5.172  -6.607  23.243  0.00  0.00    -0.247 N 
ATOM     10  H   UNL     1       5.014  -6.111  24.115  0.00  0.00    +0.288 HD
ATOM     11  H   UNL     1       4.330  -7.070  22.925  0.00  0.00    +0.288 HD
ATOM     12  C   UNL     1       5.852  -5.906  22.288  0.00  0.00    +0.308 C 
ATOM     13  N   UNL     1       5.673  -6.169  21.036  0.00  0.00    -0.099 NA
ATOM     14  H   UNL     1       5.037  -6.962  20.937  0.00  0.00    +0.363 HD
ENDBRANCH   3  12
ENDBRANCH   1   6
BRANCH   1  15
ATOM     15  N   UNL     1       9.103  -0.461  23.304  0.00  0.00    -0.076 NA
ATOM     16  N   UNL     1       8.831   0.309  24.245  0.00  0.00    -0.134 NA
BRANCH  16  17
ATOM     17  C   UNL     1       8.448   1.583  23.771  0.00  0.00    +0.088 A 
ATOM     18  C   UNL     1       9.091   2.773  24.147  0.00  0.00    +0.030 A 
ATOM     19  C   UNL     1       8.677   4.008  23.639  0.00  0.00    +0.018 A 
ATOM     20  C   UNL     1       7.597   4.076  22.752  0.00  0.00    +0.065 A 
ATOM     21  C   UNL     1       6.927   2.902  22.394  0.00  0.00    +0.018 A 
ATOM     22  C   UNL     1       7.353   1.668  22.902  0.00  0.00    +0.030 A 
BRANCH  20  23
ATOM     23  C   UNL     1       7.174   5.396  22.209  0.00  0.00    +0.308 C 
ATOM     24  N   UNL     1       8.011   6.319  21.861  0.00  0.00    -0.099 NA
ATOM     25  H   UNL     1       8.976   6.044  22.055  0.00  0.00    +0.363 HD
ATOM     26  N   UNL     1       5.852   5.686  22.053  0.00  0.00    -0.247 N 
ATOM     27  H   UNL     1       5.733   6.528  21.496  0.00  0.00    +0.288 HD
ATOM     28  H   UNL     1       5.260   4.927  21.738  0.00  0.00    +0.288 HD
ENDBRANCH  20  23
ENDBRANCH  16  17
ENDBRANCH   1  15
TORSDOF 5
ENDMDL
