MODEL 1
REMARK VINA RESULT:      -7.5      0.000      0.000
REMARK  Name = 
REMARK  2 active torsions:
REMARK  status: ('A' for Active; 'I' for Inactive)
REMARK    1  A    between atoms: N_1  and  C_2
REMARK    2  A    between atoms: N_10  and  C_11
REMARK                            x       y       z     vdW  Elec       q    Type
REMARK                         _______ _______ _______ _____ _____    ______ ____
ROOT
ATOM      1  C   UNL     1       9.847   0.101  24.108  0.00  0.00    +0.038 A 
ATOM      2  C   UNL     1       9.143  -1.093  24.186  0.00  0.00    +0.070 A 
ATOM      3  C   UNL     1       8.642  -1.843  25.343  0.00  0.00    +0.256 C 
ATOM      4  N   UNL     1       8.021  -2.960  24.853  0.00  0.00    -0.222 N 
ATOM      5  C   UNL     1       8.057  -2.992  23.487  0.00  0.00    +0.255 C 
ATOM      6  O   UNL     1       7.591  -3.823  22.730  0.00  0.00    -0.270 OA
ATOM      7  O   UNL     1       8.742  -1.478  26.502  0.00  0.00    -0.269 OA
ATOM      8  C   UNL     1       8.758  -1.789  23.052  0.00  0.00    +0.051 A 
ATOM      9  C   UNL     1       9.040  -1.346  21.775  0.00  0.00    +0.014 A 
ATOM     10  C   UNL     1       9.768  -0.162  21.664  0.00  0.00    +0.003 A 
ATOM     11  C   UNL     1      10.185   0.537  22.818  0.00  0.00    +0.023 A 
ENDROOT
BRANCH   4  12
ATOM     12  C   UNL     1       7.434  -4.029  25.643  0.00  0.00    +0.171 C 
ATOM     13  C   UNL     1       8.507  -4.961  26.209  0.00  0.00    +0.240 C 
ATOM     14  O   UNL     1       9.685  -4.956  25.863  0.00  0.00    -0.273 OA
ATOM     15  N   UNL     1       8.045  -5.875  27.135  0.00  0.00    -0.255 N 
ATOM     16  H   UNL     1       8.731  -6.531  27.487  0.00  0.00    +0.158 HD
ATOM     17  C   UNL     1       6.864  -5.824  27.834  0.00  0.00    +0.219 C 
ATOM     18  O   UNL     1       6.633  -6.613  28.746  0.00  0.00    -0.275 OA
ATOM     19  C   UNL     1       5.854  -4.785  27.391  0.00  0.00    +0.098 C 
ATOM     20  C   UNL     1       6.531  -3.564  26.780  0.00  0.00    +0.041 C 
ENDBRANCH   4  12
BRANCH   1  21
ATOM     21  N   UNL     1      10.406   0.721  25.226  0.00  0.00    -0.357 N 
ATOM     22  H   UNL     1       9.864   0.598  26.084  0.00  0.00    +0.142 HD
ATOM     23  H   UNL     1      10.729   1.673  25.091  0.00  0.00    +0.142 HD
ENDBRANCH   1  21
TORSDOF 2
ENDMDL
MODEL 2
REMARK VINA RESULT:      -7.2      1.172      2.308
REMARK  Name = 
REMARK  2 active torsions:
REMARK  status: ('A' for Active; 'I' for Inactive)
REMARK    1  A    between atoms: N_1  and  C_2
REMARK    2  A    between atoms: N_10  and  C_11
REMARK                            x       y       z     vdW  Elec       q    Type
REMARK                         _______ _______ _______ _____ _____    ______ ____
ROOT
ATOM      1  C   UNL     1       9.700  -0.532  22.395  0.00  0.00    +0.038 A 
ATOM      2  C   UNL     1       9.248  -1.172  23.541  0.00  0.00    +0.070 A 
ATOM      3  C   UNL     1       8.581  -2.465  23.724  0.00  0.00    +0.256 C 
ATOM      4  N   UNL     1       8.351  -2.606  25.066  0.00  0.00    -0.222 N 
ATOM      5  C   UNL     1       8.823  -1.533  25.769  0.00  0.00    +0.255 C 
ATOM      6  O   UNL     1       8.803  -1.338  26.970  0.00  0.00    -0.270 OA
ATOM      7  O   UNL     1       8.341  -3.255  22.827  0.00  0.00    -0.269 OA
ATOM      8  C   UNL     1       9.417  -0.619  24.800  0.00  0.00    +0.051 A 
ATOM      9  C   UNL     1      10.044   0.595  25.003  0.00  0.00    +0.014 A 
ATOM     10  C   UNL     1      10.486   1.274  23.868  0.00  0.00    +0.003 A 
ATOM     11  C   UNL     1      10.293   0.725  22.581  0.00  0.00    +0.023 A 
ENDROOT
BRANCH   4  12
ATOM     12  C   UNL     1       7.649  -3.708  25.702  0.00  0.00    +0.171 C 
ATOM     13  C   UNL     1       8.622  -4.759  26.238  0.00  0.00    +0.240 C 
ATOM     14  O   UNL     1       9.820  -4.797  25.972  0.00  0.00    -0.273 OA
ATOM     15  N   UNL     1       8.043  -5.728  27.033  0.00  0.00    -0.255 N 
ATOM     16  H   UNL     1       8.662  -6.458  27.359  0.00  0.00    +0.158 HD
ATOM     17  C   UNL     1       6.820  -5.669  27.655  0.00  0.00    +0.219 C 
ATOM     18  O   UNL     1       6.480  -6.528  28.464  0.00  0.00    -0.275 OA
ATOM     19  C   UNL     1       5.906  -4.529  27.256  0.00  0.00    +0.098 C 
ATOM     20  C   UNL     1       6.695  -3.300  26.819  0.00  0.00    +0.041 C 
ENDBRANCH   4  12
BRANCH   1  21
ATOM     21  N   UNL     1       9.380  -0.972  21.110  0.00  0.00    -0.357 N 
ATOM     22  H   UNL     1       8.447  -1.384  21.032  0.00  0.00    +0.142 HD
ATOM     23  H   UNL     1      10.095  -1.512  20.635  0.00  0.00    +0.142 HD
ENDBRANCH   1  21
TORSDOF 2
ENDMDL
MODEL 3
REMARK VINA RESULT:      -6.9      2.124      2.447
REMARK  Name = 
REMARK  2 active torsions:
REMARK  status: ('A' for Active; 'I' for Inactive)
REMARK    1  A    between atoms: N_1  and  C_2
REMARK    2  A    between atoms: N_10  and  C_11
REMARK                            x       y       z     vdW  Elec       q    Type
REMARK                         _______ _______ _______ _____ _____    ______ ____
ROOT
ATOM      1  C   UNL     1       7.186   1.085  22.555  0.00  0.00    +0.038 A 
ATOM      2  C   UNL     1       7.685  -0.148  22.954  0.00  0.00    +0.070 A 
ATOM      3  C   UNL     1       7.072  -1.231  23.730  0.00  0.00    +0.256 C 
ATOM      4  N   UNL     1       8.011  -2.221  23.839  0.00  0.00    -0.222 N 
ATOM      5  C   UNL     1       9.166  -1.886  23.190  0.00  0.00    +0.255 C 
ATOM      6  O   UNL     1      10.190  -2.533  23.071  0.00  0.00    -0.270 OA
ATOM      7  O   UNL     1       5.924  -1.226  24.139  0.00  0.00    -0.269 OA
ATOM      8  C   UNL     1       8.958  -0.567  22.603  0.00  0.00    +0.051 A 
ATOM      9  C   UNL     1       9.811   0.202  21.838  0.00  0.00    +0.014 A 
ATOM     10  C   UNL     1       9.347   1.456  21.442  0.00  0.00    +0.003 A 
ATOM     11  C   UNL     1       8.060   1.898  21.819  0.00  0.00    +0.023 A 
ENDROOT
BRANCH   4  12
ATOM     12  C   UNL     1       7.865  -3.459  24.585  0.00  0.00    +0.171 C 
ATOM     13  C   UNL     1       8.094  -3.242  26.082  0.00  0.00    +0.240 C 
ATOM     14  O   UNL     1       8.565  -2.219  26.572  0.00  0.00    -0.273 OA
ATOM     15  N   UNL     1       7.773  -4.324  26.876  0.00  0.00    -0.255 N 
ATOM     16  H   UNL     1       7.961  -4.217  27.865  0.00  0.00    +0.158 HD
ATOM     17  C   UNL     1       6.983  -5.396  26.539  0.00  0.00    +0.219 C 
ATOM     18  O   UNL     1       6.641  -6.220  27.382  0.00  0.00    -0.275 OA
ATOM     19  C   UNL     1       6.604  -5.531  25.078  0.00  0.00    +0.098 C 
ATOM     20  C   UNL     1       6.534  -4.175  24.386  0.00  0.00    +0.041 C 
ENDBRANCH   4  12
BRANCH   1  21
ATOM     21  N   UNL     1       5.989   1.608  23.045  0.00  0.00    -0.357 N 
ATOM     22  H   UNL     1       5.321   1.872  22.317  0.00  0.00    +0.142 HD
ATOM     23  H   UNL     1       6.075   2.302  23.779  0.00  0.00    +0.142 HD
ENDBRANCH   1  21
TORSDOF 2
ENDMDL
MODEL 4
REMARK VINA RESULT:      -6.7      3.909      5.800
REMARK  Name = 
REMARK  2 active torsions:
REMARK  status: ('A' for Active; 'I' for Inactive)
REMARK    1  A    between atoms: N_1  and  C_2
REMARK    2  A    between atoms: N_10  and  C_11
REMARK                            x       y       z     vdW  Elec       q    Type
REMARK                         _______ _______ _______ _____ _____    ______ ____
ROOT
ATOM      1  C   UNL     1       7.396   4.926  22.597  0.00  0.00    +0.038 A 
ATOM      2  C   UNL     1       8.043   3.764  22.998  0.00  0.00    +0.070 A 
ATOM      3  C   UNL     1       7.638   2.357  22.915  0.00  0.00    +0.256 C 
ATOM      4  N   UNL     1       8.653   1.620  23.463  0.00  0.00    -0.222 N 
ATOM      5  C   UNL     1       9.683   2.418  23.876  0.00  0.00    +0.255 C 
ATOM      6  O   UNL     1      10.740   2.097  24.386  0.00  0.00    -0.270 OA
ATOM      7  O   UNL     1       6.606   1.962  22.402  0.00  0.00    -0.269 OA
ATOM      8  C   UNL     1       9.308   3.792  23.563  0.00  0.00    +0.051 A 
ATOM      9  C   UNL     1      10.009   4.964  23.763  0.00  0.00    +0.014 A 
ATOM     10  C   UNL     1       9.375   6.150  23.393  0.00  0.00    +0.003 A 
ATOM     11  C   UNL     1       8.075   6.128  22.841  0.00  0.00    +0.023 A 
ENDROOT
BRANCH   4  12
ATOM     12  C   UNL     1       8.656   0.180  23.656  0.00  0.00    +0.171 C 
ATOM     13  C   UNL     1       9.526  -0.524  22.613  0.00  0.00    +0.240 C 
ATOM     14  O   UNL     1       9.978   0.015  21.606  0.00  0.00    -0.273 OA
ATOM     15  N   UNL     1       9.742  -1.866  22.855  0.00  0.00    -0.255 N 
ATOM     16  H   UNL     1      10.277  -2.360  22.152  0.00  0.00    +0.158 HD
ATOM     17  C   UNL     1       9.571  -2.534  24.042  0.00  0.00    +0.219 C 
ATOM     18  O   UNL     1       9.945  -3.695  24.175  0.00  0.00    -0.275 OA
ATOM     19  C   UNL     1       8.856  -1.784  25.149  0.00  0.00    +0.098 C 
ATOM     20  C   UNL     1       9.079  -0.280  25.046  0.00  0.00    +0.041 C 
ENDBRANCH   4  12
BRANCH   1  21
ATOM     21  N   UNL     1       6.058   4.944  22.202  0.00  0.00    -0.357 N 
ATOM     22  H   UNL     1       5.495   4.193  22.606  0.00  0.00    +0.142 HD
ATOM     23  H   UNL     1       5.890   5.080  21.211  0.00  0.00    +0.142 HD
ENDBRANCH   1  21
TORSDOF 2
ENDMDL
MODEL 5
REMARK VINA RESULT:      -6.7      3.021      3.896
REMARK  Name = 
REMARK  2 active torsions:
REMARK  status: ('A' for Active; 'I' for Inactive)
REMARK    1  A    between atoms: N_1  and  C_2
REMARK    2  A    between atoms: N_10  and  C_11
REMARK                            x       y       z     vdW  Elec       q    Type
REMARK                         _______ _______ _______ _____ _____    ______ ____
ROOT
ATOM      1  C   UNL     1       9.586   1.989  22.754  0.00  0.00    +0.038 A 
ATOM      2  C   UNL     1       8.877   0.826  23.023  0.00  0.00    +0.070 A 
ATOM      3  C   UNL     1       8.771  -0.433  22.278  0.00  0.00    +0.256 C 
ATOM      4  N   UNL     1       7.934  -1.247  22.992  0.00  0.00    -0.222 N 
ATOM      5  C   UNL     1       7.504  -0.638  24.138  0.00  0.00    +0.255 C 
ATOM      6  O   UNL     1       6.771  -1.075  25.006  0.00  0.00    -0.270 OA
ATOM      7  O   UNL     1       9.372  -0.681  21.247  0.00  0.00    -0.269 OA
ATOM      8  C   UNL     1       8.120   0.683  24.175  0.00  0.00    +0.051 A 
ATOM      9  C   UNL     1       8.020   1.676  25.128  0.00  0.00    +0.014 A 
ATOM     10  C   UNL     1       8.701   2.866  24.875  0.00  0.00    +0.003 A 
ATOM     11  C   UNL     1       9.453   3.025  23.690  0.00  0.00    +0.023 A 
ENDROOT
BRANCH   4  12
ATOM     12  C   UNL     1       7.485  -2.571  22.596  0.00  0.00    +0.171 C 
ATOM     13  C   UNL     1       8.127  -3.661  23.455  0.00  0.00    +0.240 C 
ATOM     14  O   UNL     1       9.069  -3.477  24.223  0.00  0.00    -0.273 OA
ATOM     15  N   UNL     1       7.596  -4.922  23.276  0.00  0.00    -0.255 N 
ATOM     16  H   UNL     1       8.038  -5.666  23.802  0.00  0.00    +0.158 HD
ATOM     17  C   UNL     1       6.388  -5.242  22.705  0.00  0.00    +0.219 C 
ATOM     18  O   UNL     1       5.954  -6.389  22.743  0.00  0.00    -0.275 OA
ATOM     19  C   UNL     1       5.655  -4.124  21.992  0.00  0.00    +0.098 C 
ATOM     20  C   UNL     1       5.973  -2.763  22.599  0.00  0.00    +0.041 C 
ENDBRANCH   4  12
BRANCH   1  21
ATOM     21  N   UNL     1      10.201   2.229  21.525  0.00  0.00    -0.357 N 
ATOM     22  H   UNL     1       9.807   1.691  20.751  0.00  0.00    +0.142 HD
ATOM     23  H   UNL     1      11.215   2.238  21.530  0.00  0.00    +0.142 HD
ENDBRANCH   1  21
TORSDOF 2
ENDMDL
MODEL 6
REMARK VINA RESULT:      -6.6      2.636      6.317
REMARK  Name = 
REMARK  2 active torsions:
REMARK  status: ('A' for Active; 'I' for Inactive)
REMARK    1  A    between atoms: N_1  and  C_2
REMARK    2  A    between atoms: N_10  and  C_11
REMARK                            x       y       z     vdW  Elec       q    Type
REMARK                         _______ _______ _______ _____ _____    ______ ____
ROOT
ATOM      1  C   UNL     1       6.335  -5.413  25.656  0.00  0.00    +0.038 A 
ATOM      2  C   UNL     1       6.486  -4.582  24.554  0.00  0.00    +0.070 A 
ATOM      3  C   UNL     1       7.404  -3.464  24.308  0.00  0.00    +0.256 C 
ATOM      4  N   UNL     1       7.123  -2.989  23.056  0.00  0.00    -0.222 N 
ATOM      5  C   UNL     1       6.121  -3.706  22.463  0.00  0.00    +0.255 C 
ATOM      6  O   UNL     1       5.635  -3.568  21.356  0.00  0.00    -0.270 OA
ATOM      7  O   UNL     1       8.271  -3.096  25.081  0.00  0.00    -0.269 OA
ATOM      8  C   UNL     1       5.721  -4.741  23.410  0.00  0.00    +0.051 A 
ATOM      9  C   UNL     1       4.767  -5.730  23.284  0.00  0.00    +0.014 A 
ATOM     10  C   UNL     1       4.575  -6.566  24.383  0.00  0.00    +0.003 A 
ATOM     11  C   UNL     1       5.334  -6.390  25.561  0.00  0.00    +0.023 A 
ENDROOT
BRANCH   4  12
ATOM     12  C   UNL     1       7.740  -1.838  22.419  0.00  0.00    +0.171 C 
ATOM     13  C   UNL     1       7.285  -0.528  23.064  0.00  0.00    +0.240 C 
ATOM     14  O   UNL     1       6.351  -0.431  23.856  0.00  0.00    -0.273 OA
ATOM     15  N   UNL     1       7.982   0.589  22.652  0.00  0.00    -0.255 N 
ATOM     16  H   UNL     1       7.665   1.472  23.032  0.00  0.00    +0.158 HD
ATOM     17  C   UNL     1       9.205   0.622  22.026  0.00  0.00    +0.219 C 
ATOM     18  O   UNL     1       9.797   1.682  21.848  0.00  0.00    -0.275 OA
ATOM     19  C   UNL     1       9.751  -0.702  21.529  0.00  0.00    +0.098 C 
ATOM     20  C   UNL     1       9.264  -1.868  22.380  0.00  0.00    +0.041 C 
ENDBRANCH   4  12
BRANCH   1  21
ATOM     21  N   UNL     1       6.955  -5.162  26.880  0.00  0.00    -0.357 N 
ATOM     22  H   UNL     1       6.316  -4.845  27.612  0.00  0.00    +0.142 HD
ATOM     23  H   UNL     1       7.815  -4.624  26.841  0.00  0.00    +0.142 HD
ENDBRANCH   1  21
TORSDOF 2
ENDMDL
MODEL 7
REMARK VINA RESULT:      -6.6      2.925      3.556
REMARK  Name = 
REMARK  2 active torsions:
REMARK  status: ('A' for Active; 'I' for Inactive)
REMARK    1  A    between atoms: N_1  and  C_2
REMARK    2  A    between atoms: N_10  and  C_11
REMARK                            x       y       z     vdW  Elec       q    Type
REMARK                         _______ _______ _______ _____ _____    ______ ____
ROOT
ATOM      1  C   UNL     1       8.579   2.026  24.743  0.00  0.00    +0.038 A 
ATOM      2  C   UNL     1       8.551   0.918  23.907  0.00  0.00    +0.070 A 
ATOM      3  C   UNL     1       7.758  -0.314  23.964  0.00  0.00    +0.256 C 
ATOM      4  N   UNL     1       8.130  -1.076  22.890  0.00  0.00    -0.222 N 
ATOM      5  C   UNL     1       9.077  -0.443  22.134  0.00  0.00    +0.255 C 
ATOM      6  O   UNL     1       9.614  -0.821  21.109  0.00  0.00    -0.270 OA
ATOM      7  O   UNL     1       6.904  -0.550  24.802  0.00  0.00    -0.269 OA
ATOM      8  C   UNL     1       9.337   0.844  22.768  0.00  0.00    +0.051 A 
ATOM      9  C   UNL     1      10.193   1.858  22.387  0.00  0.00    +0.014 A 
ATOM     10  C   UNL     1      10.261   2.973  23.221  0.00  0.00    +0.003 A 
ATOM     11  C   UNL     1       9.481   3.042  24.396  0.00  0.00    +0.023 A 
ENDROOT
BRANCH   4  12
ATOM     12  C   UNL     1       7.653  -2.413  22.583  0.00  0.00    +0.171 C 
ATOM     13  C   UNL     1       8.297  -3.461  23.492  0.00  0.00    +0.240 C 
ATOM     14  O   UNL     1       9.258  -3.248  24.227  0.00  0.00    -0.273 OA
ATOM     15  N   UNL     1       7.744  -4.722  23.400  0.00  0.00    -0.255 N 
ATOM     16  H   UNL     1       8.186  -5.440  23.960  0.00  0.00    +0.158 HD
ATOM     17  C   UNL     1       6.519  -5.055  22.875  0.00  0.00    +0.219 C 
ATOM     18  O   UNL     1       6.068  -6.191  22.991  0.00  0.00    -0.275 OA
ATOM     19  C   UNL     1       5.787  -3.970  22.112  0.00  0.00    +0.098 C 
ATOM     20  C   UNL     1       6.138  -2.580  22.631  0.00  0.00    +0.041 C 
ENDBRANCH   4  12
BRANCH   1  21
ATOM     21  N   UNL     1       7.943   2.048  25.985  0.00  0.00    -0.357 N 
ATOM     22  H   UNL     1       8.155   1.241  26.575  0.00  0.00    +0.142 HD
ATOM     23  H   UNL     1       6.957   2.288  25.975  0.00  0.00    +0.142 HD
ENDBRANCH   1  21
TORSDOF 2
ENDMDL
MODEL 8
REMARK VINA RESULT:      -6.5      2.804      3.536
REMARK  Name = 
REMARK  2 active torsions:
REMARK  status: ('A' for Active; 'I' for Inactive)
REMARK    1  A    between atoms: N_1  and  C_2
REMARK    2  A    between atoms: N_10  and  C_11
REMARK                            x       y       z     vdW  Elec       q    Type
REMARK                         _______ _______ _______ _____ _____    ______ ____
ROOT
ATOM      1  C   UNL     1       9.053  -0.468  22.220  0.00  0.00    +0.038 A 
ATOM      2  C   UNL     1       8.008  -1.059  22.919  0.00  0.00    +0.070 A 
ATOM      3  C   UNL     1       7.668  -2.470  23.134  0.00  0.00    +0.256 C 
ATOM      4  N   UNL     1       6.531  -2.491  23.895  0.00  0.00    -0.222 N 
ATOM      5  C   UNL     1       6.115  -1.227  24.207  0.00  0.00    +0.255 C 
ATOM      6  O   UNL     1       5.159  -0.881  24.876  0.00  0.00    -0.270 OA
ATOM      7  O   UNL     1       8.330  -3.411  22.733  0.00  0.00    -0.269 OA
ATOM      8  C   UNL     1       7.068  -0.304  23.601  0.00  0.00    +0.051 A 
ATOM      9  C   UNL     1       7.104   1.075  23.637  0.00  0.00    +0.014 A 
ATOM     10  C   UNL     1       8.128   1.699  22.924  0.00  0.00    +0.003 A 
ATOM     11  C   UNL     1       9.073   0.934  22.206  0.00  0.00    +0.023 A 
ENDROOT
BRANCH   4  12
ATOM     12  C   UNL     1       5.793  -3.677  24.296  0.00  0.00    +0.171 C 
ATOM     13  C   UNL     1       5.071  -4.316  23.109  0.00  0.00    +0.240 C 
ATOM     14  O   UNL     1       4.934  -3.785  22.010  0.00  0.00    -0.273 OA
ATOM     15  N   UNL     1       4.520  -5.555  23.369  0.00  0.00    -0.255 N 
ATOM     16  H   UNL     1       3.999  -5.974  22.610  0.00  0.00    +0.158 HD
ATOM     17  C   UNL     1       4.825  -6.397  24.411  0.00  0.00    +0.219 C 
ATOM     18  O   UNL     1       4.382  -7.541  24.451  0.00  0.00    -0.275 OA
ATOM     19  C   UNL     1       5.686  -5.826  25.519  0.00  0.00    +0.098 C 
ATOM     20  C   UNL     1       6.624  -4.741  25.003  0.00  0.00    +0.041 C 
ENDBRANCH   4  12
BRANCH   1  21
ATOM     21  N   UNL     1       9.899  -1.190  21.377  0.00  0.00    -0.357 N 
ATOM     22  H   UNL     1       9.756  -2.201  21.412  0.00  0.00    +0.142 HD
ATOM     23  H   UNL     1      10.877  -0.924  21.396  0.00  0.00    +0.142 HD
ENDBRANCH   1  21
TORSDOF 2
ENDMDL
MODEL 9
REMARK VINA RESULT:      -6.5      2.831      6.738
REMARK  Name = 
REMARK  2 active torsions:
REMARK  status: ('A' for Active; 'I' for Inactive)
REMARK    1  A    between atoms: N_1  and  C_2
REMARK    2  A    between atoms: N_10  and  C_11
REMARK                            x       y       z     vdW  Elec       q    Type
REMARK                         _______ _______ _______ _____ _____    ______ ____
ROOT
ATOM      1  C   UNL     1       4.684  -5.945  23.789  0.00  0.00    +0.038 A 
ATOM      2  C   UNL     1       5.613  -4.912  23.787  0.00  0.00    +0.070 A 
ATOM      3  C   UNL     1       5.967  -3.937  22.750  0.00  0.00    +0.256 C 
ATOM      4  N   UNL     1       6.952  -3.144  23.272  0.00  0.00    -0.222 N 
ATOM      5  C   UNL     1       7.256  -3.505  24.556  0.00  0.00    +0.255 C 
ATOM      6  O   UNL     1       8.064  -3.008  25.318  0.00  0.00    -0.270 OA
ATOM      7  O   UNL     1       5.424  -3.854  21.662  0.00  0.00    -0.269 OA
ATOM      8  C   UNL     1       6.387  -4.625  24.899  0.00  0.00    +0.051 A 
ATOM      9  C   UNL     1       6.289  -5.335  26.078  0.00  0.00    +0.014 A 
ATOM     10  C   UNL     1       5.382  -6.394  26.104  0.00  0.00    +0.003 A 
ATOM     11  C   UNL     1       4.609  -6.707  24.964  0.00  0.00    +0.023 A 
ENDROOT
BRANCH   4  12
ATOM     12  C   UNL     1       7.656  -2.082  22.574  0.00  0.00    +0.171 C 
ATOM     13  C   UNL     1       7.208  -0.701  23.053  0.00  0.00    +0.240 C 
ATOM     14  O   UNL     1       6.226  -0.496  23.762  0.00  0.00    -0.273 OA
ATOM     15  N   UNL     1       7.974   0.348  22.586  0.00  0.00    -0.255 N 
ATOM     16  H   UNL     1       7.665   1.273  22.855  0.00  0.00    +0.158 HD
ATOM     17  C   UNL     1       9.237   0.279  22.051  0.00  0.00    +0.219 C 
ATOM     18  O   UNL     1       9.880   1.298  21.815  0.00  0.00    -0.275 OA
ATOM     19  C   UNL     1       9.766  -1.103  21.726  0.00  0.00    +0.098 C 
ATOM     20  C   UNL     1       9.177  -2.163  22.649  0.00  0.00    +0.041 C 
ENDBRANCH   4  12
BRANCH   1  21
ATOM     21  N   UNL     1       4.030  -6.373  22.634  0.00  0.00    -0.357 N 
ATOM     22  H   UNL     1       3.162  -5.870  22.437  0.00  0.00    +0.142 HD
ATOM     23  H   UNL     1       3.944  -7.377  22.518  0.00  0.00    +0.142 HD
ENDBRANCH   1  21
TORSDOF 2
ENDMDL
