MODEL 1
REMARK VINA RESULT:      -7.0      0.000      0.000
REMARK  Name = 
REMARK  14 active torsions:
REMARK  status: ('A' for Active; 'I' for Inactive)
REMARK    1  A    between atoms: C_1  and  C_2
REMARK    2  A    between atoms: C_2  and  O_3
REMARK    3  A    between atoms: O_3  and  C_4
REMARK    4  A    between atoms: C_5  and  C_32
REMARK    5  A    between atoms: C_8  and  C_9
REMARK    6  A    between atoms: C_9  and  C_10
REMARK    7  A    between atoms: N_12  and  C_13
REMARK    8  A    between atoms: C_13  and  C_15
REMARK    9  A    between atoms: C_13  and  C_19
REMARK   10  A    between atoms: C_15  and  C_16
REMARK   11  A    between atoms: C_16  and  C_17
REMARK   12  A    between atoms: C_16  and  C_18
REMARK   13  A    between atoms: C_24  and  N_25
REMARK   14  A    between atoms: C_32  and  O_33
REMARK                            x       y       z     vdW  Elec       q    Type
REMARK                         _______ _______ _______ _____ _____    ______ ____
ROOT
ATOM      1  C   UNL     1       8.879   0.860  21.830  0.00  0.00    +0.218 C 
ATOM      2  N   UNL     1       9.267   1.289  23.088  0.00  0.00    -0.308 N 
ATOM      3  H   UNL     1       9.733   0.627  23.690  0.00  0.00    +0.149 HD
ATOM      4  O   UNL     1       8.114   1.479  21.096  0.00  0.00    -0.275 OA
ENDROOT
BRANCH   1   5
ATOM      5  C   UNL     1       9.486  -0.453  21.376  0.00  0.00    +0.131 C 
BRANCH   5   8
ATOM      6  C   UNL     1       7.617  -3.328  23.071  0.00  0.00    +0.135 A 
ATOM      7  C   UNL     1       7.975  -2.291  22.187  0.00  0.00    +0.050 A 
ATOM      8  C   UNL     1       9.207  -1.629  22.282  0.00  0.00    -0.035 A 
ATOM      9  C   UNL     1      10.103  -2.018  23.280  0.00  0.00    +0.005 A 
ATOM     10  C   UNL     1       9.769  -3.051  24.163  0.00  0.00    +0.019 A 
ATOM     11  C   UNL     1       8.531  -3.715  24.071  0.00  0.00    +0.100 A 
BRANCH  11  12
ATOM     12  C   UNL     1       8.288  -4.786  25.085  0.00  0.00    +0.340 C 
ATOM     13  O   UNL     1       9.143  -5.596  25.410  0.00  0.00    -0.245 OA
BRANCH  12  14
ATOM     14  O   UNL     1       7.057  -4.808  25.640  0.00  0.00    -0.477 OA
ATOM     15  H   UNL     1       6.950  -4.144  26.350  0.00  0.00    +0.295 HD
ENDBRANCH  12  14
ENDBRANCH  11  12
BRANCH   6  16
ATOM     16  O   UNL     1       6.405  -3.979  23.007  0.00  0.00    -0.491 OA
BRANCH  16  18
ATOM     17  C   UNL     1       7.013  -5.893  21.679  0.00  0.00    +0.048 C 
ATOM     18  C   UNL     1       6.113  -4.679  21.790  0.00  0.00    +0.226 C 
ENDBRANCH  16  18
ENDBRANCH   6  16
ENDBRANCH   5   8
ENDBRANCH   1   5
BRANCH   2  19
ATOM     19  C   UNL     1       8.721   2.520  23.688  0.00  0.00    +0.105 C 
BRANCH  19  20
ATOM     20  C   UNL     1       9.618   3.766  23.546  0.00  0.00    -0.006 A 
ATOM     21  C   UNL     1       9.148   5.110  23.713  0.00  0.00    +0.035 A 
ATOM     22  C   UNL     1      10.145   6.124  23.734  0.00  0.00    +0.023 A 
ATOM     23  C   UNL     1      11.515   5.871  23.632  0.00  0.00    +0.002 A 
ATOM     24  C   UNL     1      11.953   4.574  23.467  0.00  0.00    +0.000 A 
ATOM     25  C   UNL     1      11.020   3.542  23.423  0.00  0.00    +0.007 A 
BRANCH  21  26
ATOM     26  N   UNL     1       7.820   5.514  23.871  0.00  0.00    -0.330 N 
ATOM     27  C   UNL     1       7.191   5.861  25.143  0.00  0.00    +0.105 C 
ATOM     28  C   UNL     1       5.881   5.106  25.351  0.00  0.00    +0.019 C 
ATOM     29  C   UNL     1       4.942   5.206  24.162  0.00  0.00    +0.003 C 
ATOM     30  C   UNL     1       5.675   4.825  22.878  0.00  0.00    +0.019 C 
ATOM     31  C   UNL     1       6.928   5.683  22.699  0.00  0.00    +0.105 C 
ENDBRANCH  21  26
ENDBRANCH  19  20
BRANCH  19  32
ATOM     32  C   UNL     1       8.367   2.324  25.173  0.00  0.00    +0.030 C 
BRANCH  32  33
ATOM     33  C   UNL     1       7.194   1.367  25.461  0.00  0.00    -0.015 C 
ATOM     34  C   UNL     1       7.612  -0.103  25.554  0.00  0.00    +0.007 C 
ATOM     35  C   UNL     1       6.156   1.505  24.343  0.00  0.00    +0.007 C 
ENDBRANCH  32  33
ENDBRANCH  19  32
ENDBRANCH   2  19
TORSDOF 11
ENDMDL
MODEL 2
REMARK VINA RESULT:      -6.9      1.474      3.909
REMARK  Name = 
REMARK  14 active torsions:
REMARK  status: ('A' for Active; 'I' for Inactive)
REMARK    1  A    between atoms: C_1  and  C_2
REMARK    2  A    between atoms: C_2  and  O_3
REMARK    3  A    between atoms: O_3  and  C_4
REMARK    4  A    between atoms: C_5  and  C_32
REMARK    5  A    between atoms: C_8  and  C_9
REMARK    6  A    between atoms: C_9  and  C_10
REMARK    7  A    between atoms: N_12  and  C_13
REMARK    8  A    between atoms: C_13  and  C_15
REMARK    9  A    between atoms: C_13  and  C_19
REMARK   10  A    between atoms: C_15  and  C_16
REMARK   11  A    between atoms: C_16  and  C_17
REMARK   12  A    between atoms: C_16  and  C_18
REMARK   13  A    between atoms: C_24  and  N_25
REMARK   14  A    between atoms: C_32  and  O_33
REMARK                            x       y       z     vdW  Elec       q    Type
REMARK                         _______ _______ _______ _____ _____    ______ ____
ROOT
ATOM      1  C   UNL     1       6.718   1.443  24.806  0.00  0.00    +0.218 C 
ATOM      2  N   UNL     1       7.647   2.451  25.005  0.00  0.00    -0.308 N 
ATOM      3  H   UNL     1       7.960   2.624  25.948  0.00  0.00    +0.149 HD
ATOM      4  O   UNL     1       6.091   1.281  23.763  0.00  0.00    -0.275 OA
ENDROOT
BRANCH   1   5
ATOM      5  C   UNL     1       6.520   0.501  25.977  0.00  0.00    +0.131 C 
BRANCH   5   8
ATOM      6  C   UNL     1       6.999  -3.066  24.682  0.00  0.00    +0.135 A 
ATOM      7  C   UNL     1       6.558  -1.736  24.832  0.00  0.00    +0.050 A 
ATOM      8  C   UNL     1       7.111  -0.876  25.790  0.00  0.00    -0.035 A 
ATOM      9  C   UNL     1       8.132  -1.356  26.613  0.00  0.00    +0.005 A 
ATOM     10  C   UNL     1       8.590  -2.670  26.474  0.00  0.00    +0.019 A 
ATOM     11  C   UNL     1       8.034  -3.537  25.513  0.00  0.00    +0.100 A 
BRANCH  11  12
ATOM     12  C   UNL     1       8.597  -4.921  25.479  0.00  0.00    +0.340 C 
ATOM     13  O   UNL     1       9.424  -5.279  24.654  0.00  0.00    -0.245 OA
BRANCH  12  14
ATOM     14  O   UNL     1       8.144  -5.769  26.428  0.00  0.00    -0.477 OA
ATOM     15  H   UNL     1       7.291  -6.185  26.187  0.00  0.00    +0.295 HD
ENDBRANCH  12  14
ENDBRANCH  11  12
BRANCH   6  16
ATOM     16  O   UNL     1       6.457  -3.933  23.759  0.00  0.00    -0.491 OA
BRANCH  16  18
ATOM     17  C   UNL     1       7.082  -5.262  21.850  0.00  0.00    +0.048 C 
ATOM     18  C   UNL     1       6.979  -3.864  22.425  0.00  0.00    +0.226 C 
ENDBRANCH  16  18
ENDBRANCH   6  16
ENDBRANCH   5   8
ENDBRANCH   1   5
BRANCH   2  19
ATOM     19  C   UNL     1       7.910   3.474  23.978  0.00  0.00    +0.105 C 
BRANCH  19  20
ATOM     20  C   UNL     1       9.341   4.047  23.981  0.00  0.00    -0.006 A 
ATOM     21  C   UNL     1      10.488   3.329  23.509  0.00  0.00    +0.035 A 
ATOM     22  C   UNL     1      11.697   4.074  23.410  0.00  0.00    +0.023 A 
ATOM     23  C   UNL     1      11.800   5.433  23.715  0.00  0.00    +0.002 A 
ATOM     24  C   UNL     1      10.690   6.110  24.173  0.00  0.00    +0.000 A 
ATOM     25  C   UNL     1       9.484   5.428  24.305  0.00  0.00    +0.007 A 
BRANCH  21  26
ATOM     26  N   UNL     1      10.530   1.987  23.126  0.00  0.00    -0.330 N 
ATOM     27  C   UNL     1       9.976   1.447  21.886  0.00  0.00    +0.105 C 
ATOM     28  C   UNL     1       9.065   0.251  22.147  0.00  0.00    +0.019 C 
ATOM     29  C   UNL     1       9.705  -0.801  23.035  0.00  0.00    +0.003 C 
ATOM     30  C   UNL     1      10.253  -0.156  24.306  0.00  0.00    +0.019 C 
ATOM     31  C   UNL     1      11.222   0.975  23.959  0.00  0.00    +0.105 C 
ENDBRANCH  21  26
ENDBRANCH  19  20
BRANCH  19  32
ATOM     32  C   UNL     1       6.905   4.638  24.061  0.00  0.00    +0.030 C 
BRANCH  32  33
ATOM     33  C   UNL     1       6.233   5.037  22.732  0.00  0.00    -0.015 C 
ATOM     34  C   UNL     1       6.919   6.209  22.027  0.00  0.00    +0.007 C 
ATOM     35  C   UNL     1       4.777   5.424  23.011  0.00  0.00    +0.007 C 
ENDBRANCH  32  33
ENDBRANCH  19  32
ENDBRANCH   2  19
TORSDOF 11
ENDMDL
MODEL 3
REMARK VINA RESULT:      -6.8      2.554      7.666
REMARK  Name = 
REMARK  14 active torsions:
REMARK  status: ('A' for Active; 'I' for Inactive)
REMARK    1  A    between atoms: C_1  and  C_2
REMARK    2  A    between atoms: C_2  and  O_3
REMARK    3  A    between atoms: O_3  and  C_4
REMARK    4  A    between atoms: C_5  and  C_32
REMARK    5  A    between atoms: C_8  and  C_9
REMARK    6  A    between atoms: C_9  and  C_10
REMARK    7  A    between atoms: N_12  and  C_13
REMARK    8  A    between atoms: C_13  and  C_15
REMARK    9  A    between atoms: C_13  and  C_19
REMARK   10  A    between atoms: C_15  and  C_16
REMARK   11  A    between atoms: C_16  and  C_17
REMARK   12  A    between atoms: C_16  and  C_18
REMARK   13  A    between atoms: C_24  and  N_25
REMARK   14  A    between atoms: C_32  and  O_33
REMARK                            x       y       z     vdW  Elec       q    Type
REMARK                         _______ _______ _______ _____ _____    ______ ____
ROOT
ATOM      1  C   UNL     1       8.679  -2.556  22.933  0.00  0.00    +0.218 C 
ATOM      2  N   UNL     1       8.389  -3.269  24.084  0.00  0.00    -0.308 N 
ATOM      3  H   UNL     1       9.151  -3.483  24.710  0.00  0.00    +0.149 HD
ATOM      4  O   UNL     1       7.904  -2.427  21.989  0.00  0.00    -0.275 OA
ENDROOT
BRANCH   1   5
ATOM      5  C   UNL     1      10.044  -1.898  22.902  0.00  0.00    +0.131 C 
BRANCH   5   8
ATOM      6  C   UNL     1       9.223   1.811  22.456  0.00  0.00    +0.135 A 
ATOM      7  C   UNL     1       9.201   0.406  22.355  0.00  0.00    +0.050 A 
ATOM      8  C   UNL     1      10.036  -0.406  23.135  0.00  0.00    -0.035 A 
ATOM      9  C   UNL     1      10.909   0.202  24.040  0.00  0.00    +0.005 A 
ATOM     10  C   UNL     1      10.940   1.595  24.161  0.00  0.00    +0.019 A 
ATOM     11  C   UNL     1      10.103   2.413  23.377  0.00  0.00    +0.100 A 
BRANCH  11  12
ATOM     12  C   UNL     1      10.247   3.886  23.586  0.00  0.00    +0.340 C 
ATOM     13  O   UNL     1       9.467   4.536  24.265  0.00  0.00    -0.245 OA
BRANCH  12  14
ATOM     14  O   UNL     1      11.306   4.470  22.985  0.00  0.00    -0.477 OA
ATOM     15  H   UNL     1      11.240   4.459  22.009  0.00  0.00    +0.295 HD
ENDBRANCH  12  14
ENDBRANCH  11  12
BRANCH   6  16
ATOM     16  O   UNL     1       8.424   2.628  21.686  0.00  0.00    -0.491 OA
BRANCH  16  18
ATOM     17  C   UNL     1       6.471   3.731  22.561  0.00  0.00    +0.048 C 
ATOM     18  C   UNL     1       7.007   2.497  21.865  0.00  0.00    +0.226 C 
ENDBRANCH  16  18
ENDBRANCH   6  16
ENDBRANCH   5   8
ENDBRANCH   1   5
BRANCH   2  19
ATOM     19  C   UNL     1       7.123  -4.006  24.239  0.00  0.00    +0.105 C 
BRANCH  19  20
ATOM     20  C   UNL     1       6.698  -4.269  25.698  0.00  0.00    -0.006 A 
ATOM     21  C   UNL     1       6.216  -3.250  26.584  0.00  0.00    +0.035 A 
ATOM     22  C   UNL     1       5.692  -3.698  27.828  0.00  0.00    +0.023 A 
ATOM     23  C   UNL     1       5.604  -5.042  28.196  0.00  0.00    +0.002 A 
ATOM     24  C   UNL     1       6.075  -6.012  27.337  0.00  0.00    +0.000 A 
ATOM     25  C   UNL     1       6.614  -5.630  26.111  0.00  0.00    +0.007 A 
BRANCH  21  26
ATOM     26  N   UNL     1       6.198  -1.875  26.340  0.00  0.00    -0.330 N 
ATOM     27  C   UNL     1       5.324  -1.201  25.381  0.00  0.00    +0.105 C 
ATOM     28  C   UNL     1       6.109  -0.290  24.442  0.00  0.00    +0.019 C 
ATOM     29  C   UNL     1       7.049   0.651  25.174  0.00  0.00    +0.003 C 
ATOM     30  C   UNL     1       7.925  -0.131  26.150  0.00  0.00    +0.019 C 
ATOM     31  C   UNL     1       7.062  -0.949  27.110  0.00  0.00    +0.105 C 
ENDBRANCH  21  26
ENDBRANCH  19  20
BRANCH  19  32
ATOM     32  C   UNL     1       7.142  -5.342  23.476  0.00  0.00    +0.030 C 
BRANCH  32  33
ATOM     33  C   UNL     1       5.987  -5.560  22.478  0.00  0.00    -0.015 C 
ATOM     34  C   UNL     1       6.445  -5.640  21.020  0.00  0.00    +0.007 C 
ATOM     35  C   UNL     1       4.993  -4.401  22.611  0.00  0.00    +0.007 C 
ENDBRANCH  32  33
ENDBRANCH  19  32
ENDBRANCH   2  19
TORSDOF 11
ENDMDL
MODEL 4
REMARK VINA RESULT:      -6.8      2.578      8.191
REMARK  Name = 
REMARK  14 active torsions:
REMARK  status: ('A' for Active; 'I' for Inactive)
REMARK    1  A    between atoms: C_1  and  C_2
REMARK    2  A    between atoms: C_2  and  O_3
REMARK    3  A    between atoms: O_3  and  C_4
REMARK    4  A    between atoms: C_5  and  C_32
REMARK    5  A    between atoms: C_8  and  C_9
REMARK    6  A    between atoms: C_9  and  C_10
REMARK    7  A    between atoms: N_12  and  C_13
REMARK    8  A    between atoms: C_13  and  C_15
REMARK    9  A    between atoms: C_13  and  C_19
REMARK   10  A    between atoms: C_15  and  C_16
REMARK   11  A    between atoms: C_16  and  C_17
REMARK   12  A    between atoms: C_16  and  C_18
REMARK   13  A    between atoms: C_24  and  N_25
REMARK   14  A    between atoms: C_32  and  O_33
REMARK                            x       y       z     vdW  Elec       q    Type
REMARK                         _______ _______ _______ _____ _____    ______ ____
ROOT
ATOM      1  C   UNL     1       9.813  -1.514  23.774  0.00  0.00    +0.218 C 
ATOM      2  N   UNL     1       8.810  -1.363  24.717  0.00  0.00    -0.308 N 
ATOM      3  H   UNL     1       8.774  -0.496  25.232  0.00  0.00    +0.149 HD
ATOM      4  O   UNL     1      10.109  -2.584  23.249  0.00  0.00    -0.275 OA
ENDROOT
BRANCH   1   5
ATOM      5  C   UNL     1      10.540  -0.241  23.389  0.00  0.00    +0.131 C 
BRANCH   5   8
ATOM      6  C   UNL     1       8.786   3.153  23.570  0.00  0.00    +0.135 A 
ATOM      7  C   UNL     1       9.670   2.081  23.802  0.00  0.00    +0.050 A 
ATOM      8  C   UNL     1       9.643   0.917  23.022  0.00  0.00    -0.035 A 
ATOM      9  C   UNL     1       8.716   0.827  21.981  0.00  0.00    +0.005 A 
ATOM     10  C   UNL     1       7.835   1.885  21.730  0.00  0.00    +0.019 A 
ATOM     11  C   UNL     1       7.859   3.054  22.515  0.00  0.00    +0.100 A 
BRANCH  11  12
ATOM     12  C   UNL     1       6.853   4.101  22.157  0.00  0.00    +0.340 C 
ATOM     13  O   UNL     1       5.655   3.961  22.352  0.00  0.00    -0.245 OA
BRANCH  12  14
ATOM     14  O   UNL     1       7.345   5.232  21.607  0.00  0.00    -0.477 OA
ATOM     15  H   UNL     1       6.681   5.713  21.074  0.00  0.00    +0.295 HD
ENDBRANCH  12  14
ENDBRANCH  11  12
BRANCH   6  16
ATOM     16  O   UNL     1       8.783   4.297  24.337  0.00  0.00    -0.491 OA
BRANCH  16  18
ATOM     17  C   UNL     1       9.727   6.389  23.606  0.00  0.00    +0.048 C 
ATOM     18  C   UNL     1       9.984   5.082  24.329  0.00  0.00    +0.226 C 
ENDBRANCH  16  18
ENDBRANCH   6  16
ENDBRANCH   5   8
ENDBRANCH   1   5
BRANCH   2  19
ATOM     19  C   UNL     1       8.050  -2.517  25.230  0.00  0.00    +0.105 C 
BRANCH  19  20
ATOM     20  C   UNL     1       6.585  -2.216  25.605  0.00  0.00    -0.006 A 
ATOM     21  C   UNL     1       5.456  -2.795  24.938  0.00  0.00    +0.035 A 
ATOM     22  C   UNL     1       4.186  -2.556  25.532  0.00  0.00    +0.023 A 
ATOM     23  C   UNL     1       4.004  -1.831  26.712  0.00  0.00    +0.002 A 
ATOM     24  C   UNL     1       5.098  -1.276  27.342  0.00  0.00    +0.000 A 
ATOM     25  C   UNL     1       6.364  -1.464  26.795  0.00  0.00    +0.007 A 
BRANCH  21  26
ATOM     26  N   UNL     1       5.484  -3.576  23.780  0.00  0.00    -0.330 N 
ATOM     27  C   UNL     1       4.975  -4.942  23.673  0.00  0.00    +0.105 C 
ATOM     28  C   UNL     1       6.010  -5.886  23.067  0.00  0.00    +0.019 C 
ATOM     29  C   UNL     1       6.612  -5.359  21.777  0.00  0.00    +0.003 C 
ATOM     30  C   UNL     1       7.121  -3.933  21.976  0.00  0.00    +0.019 C 
ATOM     31  C   UNL     1       6.004  -3.032  22.502  0.00  0.00    +0.105 C 
ENDBRANCH  21  26
ENDBRANCH  19  20
BRANCH  19  32
ATOM     32  C   UNL     1       8.750  -3.173  26.433  0.00  0.00    +0.030 C 
BRANCH  32  33
ATOM     33  C   UNL     1       8.802  -4.714  26.418  0.00  0.00    -0.015 C 
ATOM     34  C   UNL     1       9.025  -5.305  25.024  0.00  0.00    +0.007 C 
ATOM     35  C   UNL     1       7.482  -5.260  26.971  0.00  0.00    +0.007 C 
ENDBRANCH  32  33
ENDBRANCH  19  32
ENDBRANCH   2  19
TORSDOF 11
ENDMDL
MODEL 5
REMARK VINA RESULT:      -6.4      1.855      4.548
REMARK  Name = 
REMARK  14 active torsions:
REMARK  status: ('A' for Active; 'I' for Inactive)
REMARK    1  A    between atoms: C_1  and  C_2
REMARK    2  A    between atoms: C_2  and  O_3
REMARK    3  A    between atoms: O_3  and  C_4
REMARK    4  A    between atoms: C_5  and  C_32
REMARK    5  A    between atoms: C_8  and  C_9
REMARK    6  A    between atoms: C_9  and  C_10
REMARK    7  A    between atoms: N_12  and  C_13
REMARK    8  A    between atoms: C_13  and  C_15
REMARK    9  A    between atoms: C_13  and  C_19
REMARK   10  A    between atoms: C_15  and  C_16
REMARK   11  A    between atoms: C_16  and  C_17
REMARK   12  A    between atoms: C_16  and  C_18
REMARK   13  A    between atoms: C_24  and  N_25
REMARK   14  A    between atoms: C_32  and  O_33
REMARK                            x       y       z     vdW  Elec       q    Type
REMARK                         _______ _______ _______ _____ _____    ______ ____
ROOT
ATOM      1  C   UNL     1      10.165  -0.083  23.704  0.00  0.00    +0.218 C 
ATOM      2  N   UNL     1       9.092   0.611  23.170  0.00  0.00    -0.308 N 
ATOM      3  H   UNL     1       8.715   0.291  22.291  0.00  0.00    +0.149 HD
ATOM      4  O   UNL     1      10.856   0.326  24.634  0.00  0.00    -0.275 OA
ENDROOT
BRANCH   1   5
ATOM      5  C   UNL     1      10.444  -1.434  23.075  0.00  0.00    +0.131 C 
BRANCH   5   8
ATOM      6  C   UNL     1       8.393  -4.417  24.308  0.00  0.00    +0.135 A 
ATOM      7  C   UNL     1       9.360  -3.398  24.209  0.00  0.00    +0.050 A 
ATOM      8  C   UNL     1       9.318  -2.433  23.193  0.00  0.00    -0.035 A 
ATOM      9  C   UNL     1       8.281  -2.487  22.259  0.00  0.00    +0.005 A 
ATOM     10  C   UNL     1       7.307  -3.487  22.345  0.00  0.00    +0.019 A 
ATOM     11  C   UNL     1       7.348  -4.458  23.363  0.00  0.00    +0.100 A 
BRANCH  11  12
ATOM     12  C   UNL     1       6.261  -5.483  23.333  0.00  0.00    +0.340 C 
ATOM     13  O   UNL     1       6.108  -6.257  22.400  0.00  0.00    -0.245 OA
BRANCH  12  14
ATOM     14  O   UNL     1       5.448  -5.518  24.411  0.00  0.00    -0.477 OA
ATOM     15  H   UNL     1       4.598  -5.059  24.259  0.00  0.00    +0.295 HD
ENDBRANCH  12  14
ENDBRANCH  11  12
BRANCH   6  16
ATOM     16  O   UNL     1       8.426  -5.386  25.287  0.00  0.00    -0.491 OA
BRANCH  16  18
ATOM     17  C   UNL     1       7.183  -5.372  27.350  0.00  0.00    +0.048 C 
ATOM     18  C   UNL     1       8.449  -4.927  26.646  0.00  0.00    +0.226 C 
ENDBRANCH  16  18
ENDBRANCH   6  16
ENDBRANCH   5   8
ENDBRANCH   1   5
BRANCH   2  19
ATOM     19  C   UNL     1       8.731   1.960  23.642  0.00  0.00    +0.105 C 
BRANCH  19  20
ATOM     20  C   UNL     1       7.242   2.327  23.483  0.00  0.00    -0.006 A 
ATOM     21  C   UNL     1       6.208   1.864  24.361  0.00  0.00    +0.035 A 
ATOM     22  C   UNL     1       4.925   2.450  24.183  0.00  0.00    +0.023 A 
ATOM     23  C   UNL     1       4.647   3.442  23.240  0.00  0.00    +0.002 A 
ATOM     24  C   UNL     1       5.649   3.875  22.398  0.00  0.00    +0.000 A 
ATOM     25  C   UNL     1       6.922   3.325  22.518  0.00  0.00    +0.007 A 
BRANCH  21  26
ATOM     26  N   UNL     1       6.343   0.913  25.376  0.00  0.00    -0.330 N 
ATOM     27  C   UNL     1       7.225   1.036  26.534  0.00  0.00    +0.105 C 
ATOM     28  C   UNL     1       8.106  -0.198  26.709  0.00  0.00    +0.019 C 
ATOM     29  C   UNL     1       7.322  -1.497  26.678  0.00  0.00    +0.003 C 
ATOM     30  C   UNL     1       6.431  -1.546  25.439  0.00  0.00    +0.019 C 
ATOM     31  C   UNL     1       5.520  -0.320  25.383  0.00  0.00    +0.105 C 
ENDBRANCH  21  26
ENDBRANCH  19  20
BRANCH  19  32
ATOM     32  C   UNL     1       9.589   3.048  22.972  0.00  0.00    +0.030 C 
BRANCH  32  33
ATOM     33  C   UNL     1      10.320   4.008  23.931  0.00  0.00    -0.015 C 
ATOM     34  C   UNL     1       9.590   5.336  24.142  0.00  0.00    +0.007 C 
ATOM     35  C   UNL     1      11.713   4.306  23.367  0.00  0.00    +0.007 C 
ENDBRANCH  32  33
ENDBRANCH  19  32
ENDBRANCH   2  19
TORSDOF 11
ENDMDL
MODEL 6
REMARK VINA RESULT:      -6.4      4.281      8.942
REMARK  Name = 
REMARK  14 active torsions:
REMARK  status: ('A' for Active; 'I' for Inactive)
REMARK    1  A    between atoms: C_1  and  C_2
REMARK    2  A    between atoms: C_2  and  O_3
REMARK    3  A    between atoms: O_3  and  C_4
REMARK    4  A    between atoms: C_5  and  C_32
REMARK    5  A    between atoms: C_8  and  C_9
REMARK    6  A    between atoms: C_9  and  C_10
REMARK    7  A    between atoms: N_12  and  C_13
REMARK    8  A    between atoms: C_13  and  C_15
REMARK    9  A    between atoms: C_13  and  C_19
REMARK   10  A    between atoms: C_15  and  C_16
REMARK   11  A    between atoms: C_16  and  C_17
REMARK   12  A    between atoms: C_16  and  C_18
REMARK   13  A    between atoms: C_24  and  N_25
REMARK   14  A    between atoms: C_32  and  O_33
REMARK                            x       y       z     vdW  Elec       q    Type
REMARK                         _______ _______ _______ _____ _____    ______ ____
ROOT
ATOM      1  C   UNL     1       7.471  -5.593  26.516  0.00  0.00    +0.218 C 
ATOM      2  N   UNL     1       6.294  -5.657  25.789  0.00  0.00    -0.308 N 
ATOM      3  H   UNL     1       6.277  -5.221  24.880  0.00  0.00    +0.149 HD
ATOM      4  O   UNL     1       7.562  -5.876  27.707  0.00  0.00    -0.275 OA
ENDROOT
BRANCH   1   5
ATOM      5  C   UNL     1       8.696  -5.161  25.733  0.00  0.00    +0.131 C 
BRANCH   5   8
ATOM      6  C   UNL     1       9.687  -1.819  24.161  0.00  0.00    +0.135 A 
ATOM      7  C   UNL     1       9.450  -3.192  24.365  0.00  0.00    +0.050 A 
ATOM      8  C   UNL     1       8.821  -3.671  25.523  0.00  0.00    -0.035 A 
ATOM      9  C   UNL     1       8.415  -2.754  26.494  0.00  0.00    +0.005 A 
ATOM     10  C   UNL     1       8.634  -1.385  26.306  0.00  0.00    +0.019 A 
ATOM     11  C   UNL     1       9.268  -0.902  25.145  0.00  0.00    +0.100 A 
BRANCH  11  12
ATOM     12  C   UNL     1       9.461   0.579  25.074  0.00  0.00    +0.340 C 
ATOM     13  O   UNL     1       8.536   1.371  25.171  0.00  0.00    -0.245 OA
BRANCH  12  14
ATOM     14  O   UNL     1      10.731   1.004  24.904  0.00  0.00    -0.477 OA
ATOM     15  H   UNL     1      11.117   0.711  24.054  0.00  0.00    +0.295 HD
ENDBRANCH  12  14
ENDBRANCH  11  12
BRANCH   6  16
ATOM     16  O   UNL     1      10.320  -1.329  23.040  0.00  0.00    -0.491 OA
BRANCH  16  18
ATOM     17  C   UNL     1       9.356   0.164  21.414  0.00  0.00    +0.048 C 
ATOM     18  C   UNL     1       9.546  -1.280  21.833  0.00  0.00    +0.226 C 
ENDBRANCH  16  18
ENDBRANCH   6  16
ENDBRANCH   5   8
ENDBRANCH   1   5
BRANCH   2  19
ATOM     19  C   UNL     1       5.012  -6.011  26.424  0.00  0.00    +0.105 C 
BRANCH  19  20
ATOM     20  C   UNL     1       3.886  -6.396  25.444  0.00  0.00    -0.006 A 
ATOM     21  C   UNL     1       3.534  -5.623  24.289  0.00  0.00    +0.035 A 
ATOM     22  C   UNL     1       2.603  -6.221  23.395  0.00  0.00    +0.023 A 
ATOM     23  C   UNL     1       2.060  -7.495  23.574  0.00  0.00    +0.002 A 
ATOM     24  C   UNL     1       2.403  -8.226  24.691  0.00  0.00    +0.000 A 
ATOM     25  C   UNL     1       3.298  -7.684  25.610  0.00  0.00    +0.007 A 
BRANCH  21  26
ATOM     26  N   UNL     1       4.024  -4.359  23.953  0.00  0.00    -0.330 N 
ATOM     27  C   UNL     1       4.851  -4.059  22.787  0.00  0.00    +0.105 C 
ATOM     28  C   UNL     1       6.109  -3.284  23.168  0.00  0.00    +0.019 C 
ATOM     29  C   UNL     1       5.821  -2.073  24.037  0.00  0.00    +0.003 C 
ATOM     30  C   UNL     1       4.957  -2.472  25.230  0.00  0.00    +0.019 C 
ATOM     31  C   UNL     1       3.677  -3.165  24.760  0.00  0.00    +0.105 C 
ENDBRANCH  21  26
ENDBRANCH  19  20
BRANCH  19  32
ATOM     32  C   UNL     1       4.506  -4.891  27.351  0.00  0.00    +0.030 C 
BRANCH  32  33
ATOM     33  C   UNL     1       4.027  -5.343  28.745  0.00  0.00    -0.015 C 
ATOM     34  C   UNL     1       4.402  -6.789  29.082  0.00  0.00    +0.007 C 
ATOM     35  C   UNL     1       2.502  -5.211  28.813  0.00  0.00    +0.007 C 
ENDBRANCH  32  33
ENDBRANCH  19  32
ENDBRANCH   2  19
TORSDOF 11
ENDMDL
MODEL 7
REMARK VINA RESULT:      -6.3      1.656      4.284
REMARK  Name = 
REMARK  14 active torsions:
REMARK  status: ('A' for Active; 'I' for Inactive)
REMARK    1  A    between atoms: C_1  and  C_2
REMARK    2  A    between atoms: C_2  and  O_3
REMARK    3  A    between atoms: O_3  and  C_4
REMARK    4  A    between atoms: C_5  and  C_32
REMARK    5  A    between atoms: C_8  and  C_9
REMARK    6  A    between atoms: C_9  and  C_10
REMARK    7  A    between atoms: N_12  and  C_13
REMARK    8  A    between atoms: C_13  and  C_15
REMARK    9  A    between atoms: C_13  and  C_19
REMARK   10  A    between atoms: C_15  and  C_16
REMARK   11  A    between atoms: C_16  and  C_17
REMARK   12  A    between atoms: C_16  and  C_18
REMARK   13  A    between atoms: C_24  and  N_25
REMARK   14  A    between atoms: C_32  and  O_33
REMARK                            x       y       z     vdW  Elec       q    Type
REMARK                         _______ _______ _______ _____ _____    ______ ____
ROOT
ATOM      1  C   UNL     1       6.542   1.385  24.875  0.00  0.00    +0.218 C 
ATOM      2  N   UNL     1       7.674   2.182  24.918  0.00  0.00    -0.308 N 
ATOM      3  H   UNL     1       8.267   2.115  25.731  0.00  0.00    +0.149 HD
ATOM      4  O   UNL     1       5.628   1.530  24.068  0.00  0.00    -0.275 OA
ENDROOT
BRANCH   1   5
ATOM      5  C   UNL     1       6.494   0.268  25.899  0.00  0.00    +0.131 C 
BRANCH   5   8
ATOM      6  C   UNL     1       7.055  -3.495  25.515  0.00  0.00    +0.135 A 
ATOM      7  C   UNL     1       6.983  -2.193  26.046  0.00  0.00    +0.050 A 
ATOM      8  C   UNL     1       6.443  -1.124  25.317  0.00  0.00    -0.035 A 
ATOM      9  C   UNL     1       5.959  -1.366  24.030  0.00  0.00    +0.005 A 
ATOM     10  C   UNL     1       6.014  -2.655  23.488  0.00  0.00    +0.019 A 
ATOM     11  C   UNL     1       6.558  -3.729  24.217  0.00  0.00    +0.100 A 
BRANCH  11  12
ATOM     12  C   UNL     1       6.578  -5.050  23.518  0.00  0.00    +0.340 C 
ATOM     13  O   UNL     1       7.551  -5.457  22.901  0.00  0.00    -0.245 OA
BRANCH  12  14
ATOM     14  O   UNL     1       5.451  -5.788  23.612  0.00  0.00    -0.477 OA
ATOM     15  H   UNL     1       4.719  -5.306  24.047  0.00  0.00    +0.295 HD
ENDBRANCH  12  14
ENDBRANCH  11  12
BRANCH   6  16
ATOM     16  O   UNL     1       7.598  -4.556  26.206  0.00  0.00    -0.491 OA
BRANCH  16  18
ATOM     17  C   UNL     1       9.860  -4.955  25.481  0.00  0.00    +0.048 C 
ATOM     18  C   UNL     1       8.974  -4.435  26.595  0.00  0.00    +0.226 C 
ENDBRANCH  16  18
ENDBRANCH   6  16
ENDBRANCH   5   8
ENDBRANCH   1   5
BRANCH   2  19
ATOM     19  C   UNL     1       7.840   3.340  24.021  0.00  0.00    +0.105 C 
BRANCH  19  20
ATOM     20  C   UNL     1       9.270   3.912  23.955  0.00  0.00    -0.006 A 
ATOM     21  C   UNL     1      10.412   3.157  23.532  0.00  0.00    +0.035 A 
ATOM     22  C   UNL     1      11.617   3.891  23.351  0.00  0.00    +0.023 A 
ATOM     23  C   UNL     1      11.722   5.272  23.535  0.00  0.00    +0.002 A 
ATOM     24  C   UNL     1      10.617   5.986  23.947  0.00  0.00    +0.000 A 
ATOM     25  C   UNL     1       9.414   5.316  24.155  0.00  0.00    +0.007 A 
BRANCH  21  26
ATOM     26  N   UNL     1      10.452   1.786  23.267  0.00  0.00    -0.330 N 
ATOM     27  C   UNL     1       9.959   1.149  22.048  0.00  0.00    +0.105 C 
ATOM     28  C   UNL     1       9.014  -0.009  22.356  0.00  0.00    +0.019 C 
ATOM     29  C   UNL     1       9.583  -0.989  23.366  0.00  0.00    +0.003 C 
ATOM     30  C   UNL     1      10.070  -0.244  24.607  0.00  0.00    +0.019 C 
ATOM     31  C   UNL     1      11.077   0.840  24.222  0.00  0.00    +0.105 C 
ENDBRANCH  21  26
ENDBRANCH  19  20
BRANCH  19  32
ATOM     32  C   UNL     1       6.862   4.477  24.369  0.00  0.00    +0.030 C 
BRANCH  32  33
ATOM     33  C   UNL     1       5.866   4.865  23.258  0.00  0.00    -0.015 C 
ATOM     34  C   UNL     1       6.138   6.241  22.645  0.00  0.00    +0.007 C 
ATOM     35  C   UNL     1       4.449   4.866  23.841  0.00  0.00    +0.007 C 
ENDBRANCH  32  33
ENDBRANCH  19  32
ENDBRANCH   2  19
TORSDOF 11
ENDMDL
MODEL 8
REMARK VINA RESULT:      -6.3      1.803      4.348
REMARK  Name = 
REMARK  14 active torsions:
REMARK  status: ('A' for Active; 'I' for Inactive)
REMARK    1  A    between atoms: C_1  and  C_2
REMARK    2  A    between atoms: C_2  and  O_3
REMARK    3  A    between atoms: O_3  and  C_4
REMARK    4  A    between atoms: C_5  and  C_32
REMARK    5  A    between atoms: C_8  and  C_9
REMARK    6  A    between atoms: C_9  and  C_10
REMARK    7  A    between atoms: N_12  and  C_13
REMARK    8  A    between atoms: C_13  and  C_15
REMARK    9  A    between atoms: C_13  and  C_19
REMARK   10  A    between atoms: C_15  and  C_16
REMARK   11  A    between atoms: C_16  and  C_17
REMARK   12  A    between atoms: C_16  and  C_18
REMARK   13  A    between atoms: C_24  and  N_25
REMARK   14  A    between atoms: C_32  and  O_33
REMARK                            x       y       z     vdW  Elec       q    Type
REMARK                         _______ _______ _______ _____ _____    ______ ____
ROOT
ATOM      1  C   UNL     1       8.764   1.040  22.099  0.00  0.00    +0.218 C 
ATOM      2  N   UNL     1       7.436   1.354  22.331  0.00  0.00    -0.308 N 
ATOM      3  H   UNL     1       6.733   0.826  21.836  0.00  0.00    +0.149 HD
ATOM      4  O   UNL     1       9.709   1.740  22.451  0.00  0.00    -0.275 OA
ENDROOT
BRANCH   1   5
ATOM      5  C   UNL     1       9.006  -0.273  21.380  0.00  0.00    +0.131 C 
BRANCH   5   8
ATOM      6  C   UNL     1       7.869  -3.510  23.072  0.00  0.00    +0.135 A 
ATOM      7  C   UNL     1       7.963  -2.409  22.197  0.00  0.00    +0.050 A 
ATOM      8  C   UNL     1       9.020  -1.492  22.272  0.00  0.00    -0.035 A 
ATOM      9  C   UNL     1      10.008  -1.683  23.240  0.00  0.00    +0.005 A 
ATOM     10  C   UNL     1       9.937  -2.775  24.112  0.00  0.00    +0.019 A 
ATOM     11  C   UNL     1       8.875  -3.696  24.040  0.00  0.00    +0.100 A 
BRANCH  11  12
ATOM     12  C   UNL     1       8.904  -4.806  25.041  0.00  0.00    +0.340 C 
ATOM     13  O   UNL     1       8.123  -4.871  25.979  0.00  0.00    -0.245 OA
BRANCH  12  14
ATOM     14  O   UNL     1       9.847  -5.754  24.849  0.00  0.00    -0.477 OA
ATOM     15  H   UNL     1       9.819  -6.458  25.528  0.00  0.00    +0.295 HD
ENDBRANCH  12  14
ENDBRANCH  11  12
BRANCH   6  16
ATOM     16  O   UNL     1       6.830  -4.413  23.027  0.00  0.00    -0.491 OA
BRANCH  16  18
ATOM     17  C   UNL     1       6.248  -5.600  21.014  0.00  0.00    +0.048 C 
ATOM     18  C   UNL     1       7.059  -5.624  22.294  0.00  0.00    +0.226 C 
ENDBRANCH  16  18
ENDBRANCH   6  16
ENDBRANCH   5   8
ENDBRANCH   1   5
BRANCH   2  19
ATOM     19  C   UNL     1       7.041   2.621  22.972  0.00  0.00    +0.105 C 
BRANCH  19  20
ATOM     20  C   UNL     1       5.599   2.653  23.516  0.00  0.00    -0.006 A 
ATOM     21  C   UNL     1       5.201   2.053  24.756  0.00  0.00    +0.035 A 
ATOM     22  C   UNL     1       3.878   2.340  25.195  0.00  0.00    +0.023 A 
ATOM     23  C   UNL     1       2.994   3.173  24.507  0.00  0.00    +0.002 A 
ATOM     24  C   UNL     1       3.387   3.740  23.313  0.00  0.00    +0.000 A 
ATOM     25  C   UNL     1       4.666   3.482  22.827  0.00  0.00    +0.007 A 
BRANCH  21  26
ATOM     26  N   UNL     1       5.984   1.236  25.574  0.00  0.00    -0.330 N 
ATOM     27  C   UNL     1       7.289   1.597  26.124  0.00  0.00    +0.105 C 
ATOM     28  C   UNL     1       8.338   0.525  25.843  0.00  0.00    +0.019 C 
ATOM     29  C   UNL     1       7.881  -0.870  26.229  0.00  0.00    +0.003 C 
ATOM     30  C   UNL     1       6.516  -1.168  25.613  0.00  0.00    +0.019 C 
ATOM     31  C   UNL     1       5.502  -0.095  26.012  0.00  0.00    +0.105 C 
ENDBRANCH  21  26
ENDBRANCH  19  20
BRANCH  19  32
ATOM     32  C   UNL     1       7.248   3.824  22.035  0.00  0.00    +0.030 C 
BRANCH  32  33
ATOM     33  C   UNL     1       7.985   5.031  22.649  0.00  0.00    -0.015 C 
ATOM     34  C   UNL     1       8.236   4.894  24.153  0.00  0.00    +0.007 C 
ATOM     35  C   UNL     1       7.152   6.295  22.410  0.00  0.00    +0.007 C 
ENDBRANCH  32  33
ENDBRANCH  19  32
ENDBRANCH   2  19
TORSDOF 11
ENDMDL
MODEL 9
REMARK VINA RESULT:      -6.2      2.074      4.073
REMARK  Name = 
REMARK  14 active torsions:
REMARK  status: ('A' for Active; 'I' for Inactive)
REMARK    1  A    between atoms: C_1  and  C_2
REMARK    2  A    between atoms: C_2  and  O_3
REMARK    3  A    between atoms: O_3  and  C_4
REMARK    4  A    between atoms: C_5  and  C_32
REMARK    5  A    between atoms: C_8  and  C_9
REMARK    6  A    between atoms: C_9  and  C_10
REMARK    7  A    between atoms: N_12  and  C_13
REMARK    8  A    between atoms: C_13  and  C_15
REMARK    9  A    between atoms: C_13  and  C_19
REMARK   10  A    between atoms: C_15  and  C_16
REMARK   11  A    between atoms: C_16  and  C_17
REMARK   12  A    between atoms: C_16  and  C_18
REMARK   13  A    between atoms: C_24  and  N_25
REMARK   14  A    between atoms: C_32  and  O_33
REMARK                            x       y       z     vdW  Elec       q    Type
REMARK                         _______ _______ _______ _____ _____    ______ ____
ROOT
ATOM      1  C   UNL     1       7.639   0.039  24.778  0.00  0.00    +0.218 C 
ATOM      2  N   UNL     1       6.896   0.690  23.808  0.00  0.00    -0.308 N 
ATOM      3  H   UNL     1       6.161   0.173  23.352  0.00  0.00    +0.149 HD
ATOM      4  O   UNL     1       8.693   0.468  25.242  0.00  0.00    -0.275 OA
ENDROOT
BRANCH   1   5
ATOM      5  C   UNL     1       7.056  -1.269  25.275  0.00  0.00    +0.131 C 
BRANCH   5   8
ATOM      6  C   UNL     1       5.243  -3.838  23.098  0.00  0.00    +0.135 A 
ATOM      7  C   UNL     1       5.515  -2.801  24.011  0.00  0.00    +0.050 A 
ATOM      8  C   UNL     1       6.811  -2.303  24.203  0.00  0.00    -0.035 A 
ATOM      9  C   UNL     1       7.858  -2.852  23.458  0.00  0.00    +0.005 A 
ATOM     10  C   UNL     1       7.606  -3.877  22.540  0.00  0.00    +0.019 A 
ATOM     11  C   UNL     1       6.305  -4.380  22.348  0.00  0.00    +0.100 A 
BRANCH  11  12
ATOM     12  C   UNL     1       6.173  -5.488  21.353  0.00  0.00    +0.340 C 
ATOM     13  O   UNL     1       5.968  -5.289  20.166  0.00  0.00    -0.245 OA
BRANCH  12  14
ATOM     14  O   UNL     1       6.303  -6.741  21.841  0.00  0.00    -0.477 OA
ATOM     15  H   UNL     1       5.445  -7.203  21.930  0.00  0.00    +0.295 HD
ENDBRANCH  12  14
ENDBRANCH  11  12
BRANCH   6  16
ATOM     16  O   UNL     1       3.980  -4.353  22.908  0.00  0.00    -0.491 OA
BRANCH  16  18
ATOM     17  C   UNL     1       3.198  -6.091  24.382  0.00  0.00    +0.048 C 
ATOM     18  C   UNL     1       3.202  -4.604  24.087  0.00  0.00    +0.226 C 
ENDBRANCH  16  18
ENDBRANCH   6  16
ENDBRANCH   5   8
ENDBRANCH   1   5
BRANCH   2  19
ATOM     19  C   UNL     1       7.361   1.945  23.190  0.00  0.00    +0.105 C 
BRANCH  19  20
ATOM     20  C   UNL     1       6.350   3.108  23.240  0.00  0.00    -0.006 A 
ATOM     21  C   UNL     1       6.674   4.427  23.696  0.00  0.00    +0.035 A 
ATOM     22  C   UNL     1       5.676   5.422  23.498  0.00  0.00    +0.023 A 
ATOM     23  C   UNL     1       4.450   5.180  22.875  0.00  0.00    +0.002 A 
ATOM     24  C   UNL     1       4.148   3.906  22.445  0.00  0.00    +0.000 A 
ATOM     25  C   UNL     1       5.082   2.888  22.627  0.00  0.00    +0.007 A 
BRANCH  21  26
ATOM     26  N   UNL     1       7.869   4.830  24.296  0.00  0.00    -0.330 N 
ATOM     27  C   UNL     1       8.156   4.770  25.727  0.00  0.00    +0.105 C 
ATOM     28  C   UNL     1       8.667   6.106  26.260  0.00  0.00    +0.019 C 
ATOM     29  C   UNL     1       9.806   6.678  25.435  0.00  0.00    +0.003 C 
ATOM     30  C   UNL     1       9.424   6.709  23.958  0.00  0.00    +0.019 C 
ATOM     31  C   UNL     1       9.008   5.317  23.481  0.00  0.00    +0.105 C 
ENDBRANCH  21  26
ENDBRANCH  19  20
BRANCH  19  32
ATOM     32  C   UNL     1       7.807   1.733  21.732  0.00  0.00    +0.030 C 
BRANCH  32  33
ATOM     33  C   UNL     1       9.289   1.359  21.535  0.00  0.00    -0.015 C 
ATOM     34  C   UNL     1       9.551  -0.149  21.578  0.00  0.00    +0.007 C 
ATOM     35  C   UNL     1      10.120   2.026  22.635  0.00  0.00    +0.007 C 
ENDBRANCH  32  33
ENDBRANCH  19  32
ENDBRANCH   2  19
TORSDOF 11
ENDMDL
