MODEL 1
REMARK VINA RESULT:      -4.7      0.000      0.000
REMARK  Name = 
REMARK  12 active torsions:
REMARK  status: ('A' for Active; 'I' for Inactive)
REMARK    1  A    between atoms: O_1  and  C_2
REMARK    2  A    between atoms: C_2  and  C_3
REMARK    3  A    between atoms: C_3  and  O_5
REMARK    4  A    between atoms: C_3  and  C_6
REMARK    5  A    between atoms: C_6  and  O_8
REMARK    6  A    between atoms: C_6  and  C_9
REMARK    7  A    between atoms: C_9  and  O_11
REMARK    8  A    between atoms: C_9  and  C_12
REMARK    9  A    between atoms: C_12  and  O_13
REMARK   10  A    between atoms: O_13  and  P_14
REMARK   11  A    between atoms: P_14  and  O_15
REMARK   12  A    between atoms: P_14  and  O_16
REMARK                            x       y       z     vdW  Elec       q    Type
REMARK                         _______ _______ _______ _____ _____    ______ ____
ROOT
ATOM      1  C   UNL     1       8.716  -1.957  23.283  0.00  0.00    +0.172 C 
ENDROOT
BRANCH   1   2
ATOM      2  O   UNL     1       8.087  -2.773  22.295  0.00  0.00    -0.387 OA
ATOM      3  H   UNL     1       8.690  -3.537  22.149  0.00  0.00    +0.210 HD
ENDBRANCH   1   2
BRANCH   1   4
ATOM      4  C   UNL     1       9.403  -0.716  22.649  0.00  0.00    +0.176 C 
BRANCH   4   5
ATOM      5  O   UNL     1       9.804  -0.961  21.291  0.00  0.00    -0.387 OA
ATOM      6  H   UNL     1       9.117  -0.614  20.696  0.00  0.00    +0.210 HD
ENDBRANCH   4   5
BRANCH   4   7
ATOM      7  C   UNL     1       8.477   0.520  22.677  0.00  0.00    +0.171 C 
BRANCH   7   8
ATOM      8  O   UNL     1       7.095   0.123  22.771  0.00  0.00    -0.387 OA
ATOM      9  H   UNL     1       7.014  -0.632  22.150  0.00  0.00    +0.210 HD
ENDBRANCH   7   8
BRANCH   7  10
ATOM     10  C   UNL     1       8.654   1.397  21.432  0.00  0.00    +0.189 C 
BRANCH  10  11
ATOM     11  O   UNL     1       9.931   2.038  21.510  0.00  0.00    -0.392 OA
ATOM     12  H   UNL     1       9.772   2.991  21.385  0.00  0.00    +0.210 HD
ENDBRANCH  10  11
ENDBRANCH   7  10
ENDBRANCH   4   7
ENDBRANCH   1   4
BRANCH   1  13
ATOM     13  C   UNL     1       9.689  -2.827  24.082  0.00  0.00    +0.206 C 
BRANCH  13  14
ATOM     14  O   UNL     1       8.988  -3.440  25.151  0.00  0.00    -0.284 OA
BRANCH  14  15
ATOM     15  P   UNL     1       8.945  -5.039  25.184  0.00  0.00    +0.472 P 
ATOM     16  O   UNL     1       8.107  -5.663  26.240  0.00  0.00    -0.228 OA
BRANCH  15  17
ATOM     17  O   UNL     1      10.487  -5.434  25.180  0.00  0.00    -0.303 OA
ATOM     18  H   UNL     1      11.036  -4.724  24.798  0.00  0.00    +0.222 HD
ENDBRANCH  15  17
BRANCH  15  19
ATOM     19  O   UNL     1       8.495  -5.442  23.708  0.00  0.00    -0.303 OA
ATOM     20  H   UNL     1       9.241  -5.880  23.253  0.00  0.00    +0.222 HD
ENDBRANCH  15  19
ENDBRANCH  14  15
ENDBRANCH  13  14
ENDBRANCH   1  13
TORSDOF 12
ENDMDL
MODEL 2
REMARK VINA RESULT:      -4.7      2.558      5.614
REMARK  Name = 
REMARK  12 active torsions:
REMARK  status: ('A' for Active; 'I' for Inactive)
REMARK    1  A    between atoms: O_1  and  C_2
REMARK    2  A    between atoms: C_2  and  C_3
REMARK    3  A    between atoms: C_3  and  O_5
REMARK    4  A    between atoms: C_3  and  C_6
REMARK    5  A    between atoms: C_6  and  O_8
REMARK    6  A    between atoms: C_6  and  C_9
REMARK    7  A    between atoms: C_9  and  O_11
REMARK    8  A    between atoms: C_9  and  C_12
REMARK    9  A    between atoms: C_12  and  O_13
REMARK   10  A    between atoms: O_13  and  P_14
REMARK   11  A    between atoms: P_14  and  O_15
REMARK   12  A    between atoms: P_14  and  O_16
REMARK                            x       y       z     vdW  Elec       q    Type
REMARK                         _______ _______ _______ _____ _____    ______ ____
ROOT
ATOM      1  C   UNL     1      10.461  -1.414  22.673  0.00  0.00    +0.172 C 
ENDROOT
BRANCH   1   2
ATOM      2  O   UNL     1      10.035  -1.436  21.311  0.00  0.00    -0.387 OA
ATOM      3  H   UNL     1      10.192  -0.530  20.962  0.00  0.00    +0.210 HD
ENDBRANCH   1   2
BRANCH   1   4
ATOM      4  C   UNL     1       9.621  -2.382  23.553  0.00  0.00    +0.176 C 
BRANCH   4   5
ATOM      5  O   UNL     1       9.214  -1.768  24.785  0.00  0.00    -0.387 OA
ATOM      6  H   UNL     1       8.314  -1.415  24.676  0.00  0.00    +0.210 HD
ENDBRANCH   4   5
BRANCH   4   7
ATOM      7  C   UNL     1       8.363  -2.877  22.806  0.00  0.00    +0.171 C 
BRANCH   7   8
ATOM      8  O   UNL     1       7.351  -1.853  22.770  0.00  0.00    -0.387 OA
ATOM      9  H   UNL     1       6.663  -2.166  23.395  0.00  0.00    +0.210 HD
ENDBRANCH   7   8
BRANCH   7  10
ATOM     10  C   UNL     1       7.770  -4.134  23.455  0.00  0.00    +0.189 C 
BRANCH  10  11
ATOM     11  O   UNL     1       8.816  -4.819  24.150  0.00  0.00    -0.392 OA
ATOM     12  H   UNL     1       8.426  -5.154  24.978  0.00  0.00    +0.210 HD
ENDBRANCH  10  11
ENDBRANCH   7  10
ENDBRANCH   4   7
ENDBRANCH   1   4
BRANCH   1  13
ATOM     13  C   UNL     1      10.409   0.032  23.173  0.00  0.00    +0.206 C 
BRANCH  13  14
ATOM     14  O   UNL     1       9.092   0.531  23.007  0.00  0.00    -0.284 OA
BRANCH  14  15
ATOM     15  P   UNL     1       8.899   1.802  22.055  0.00  0.00    +0.472 P 
ATOM     16  O   UNL     1       7.977   2.862  22.537  0.00  0.00    -0.228 OA
BRANCH  15  17
ATOM     17  O   UNL     1       8.546   1.142  20.651  0.00  0.00    -0.303 OA
ATOM     18  H   UNL     1       8.168   0.250  20.761  0.00  0.00    +0.222 HD
ENDBRANCH  15  17
BRANCH  15  19
ATOM     19  O   UNL     1      10.385   2.328  21.810  0.00  0.00    -0.303 OA
ATOM     20  H   UNL     1      10.725   2.728  22.635  0.00  0.00    +0.222 HD
ENDBRANCH  15  19
ENDBRANCH  14  15
ENDBRANCH  13  14
ENDBRANCH   1  13
TORSDOF 12
ENDMDL
MODEL 3
REMARK VINA RESULT:      -4.6      1.799      2.472
REMARK  Name = 
REMARK  12 active torsions:
REMARK  status: ('A' for Active; 'I' for Inactive)
REMARK    1  A    between atoms: O_1  and  C_2
REMARK    2  A    between atoms: C_2  and  C_3
REMARK    3  A    between atoms: C_3  and  O_5
REMARK    4  A    between atoms: C_3  and  C_6
REMARK    5  A    between atoms: C_6  and  O_8
REMARK    6  A    between atoms: C_6  and  C_9
REMARK    7  A    between atoms: C_9  and  O_11
REMARK    8  A    between atoms: C_9  and  C_12
REMARK    9  A    between atoms: C_12  and  O_13
REMARK   10  A    between atoms: O_13  and  P_14
REMARK   11  A    between atoms: P_14  and  O_15
REMARK   12  A    between atoms: P_14  and  O_16
REMARK                            x       y       z     vdW  Elec       q    Type
REMARK                         _______ _______ _______ _____ _____    ______ ____
ROOT
ATOM      1  C   UNL     1       7.933  -2.946  23.538  0.00  0.00    +0.172 C 
ENDROOT
BRANCH   1   2
ATOM      2  O   UNL     1       7.411  -2.700  22.232  0.00  0.00    -0.387 OA
ATOM      3  H   UNL     1       8.176  -2.416  21.683  0.00  0.00    +0.210 HD
ENDBRANCH   1   2
BRANCH   1   4
ATOM      4  C   UNL     1       9.261  -2.175  23.780  0.00  0.00    +0.176 C 
BRANCH   4   5
ATOM      5  O   UNL     1      10.394  -3.057  23.808  0.00  0.00    -0.387 OA
ATOM      6  H   UNL     1      10.166  -3.842  24.335  0.00  0.00    +0.210 HD
ENDBRANCH   4   5
BRANCH   4   7
ATOM      7  C   UNL     1       9.496  -1.100  22.696  0.00  0.00    +0.171 C 
BRANCH   7   8
ATOM      8  O   UNL     1      10.190  -1.656  21.563  0.00  0.00    -0.387 OA
ATOM      9  H   UNL     1       9.960  -2.609  21.578  0.00  0.00    +0.210 HD
ENDBRANCH   7   8
BRANCH   7  10
ATOM     10  C   UNL     1      10.304   0.088  23.233  0.00  0.00    +0.189 C 
BRANCH  10  11
ATOM     11  O   UNL     1      10.539  -0.122  24.629  0.00  0.00    -0.392 OA
ATOM     12  H   UNL     1       9.758   0.225  25.098  0.00  0.00    +0.210 HD
ENDBRANCH  10  11
ENDBRANCH   7  10
ENDBRANCH   4   7
ENDBRANCH   1   4
BRANCH   1  13
ATOM     13  C   UNL     1       8.088  -4.458  23.721  0.00  0.00    +0.206 C 
BRANCH  13  14
ATOM     14  O   UNL     1       7.533  -4.830  24.972  0.00  0.00    -0.284 OA
BRANCH  14  15
ATOM     15  P   UNL     1       8.529  -4.931  26.219  0.00  0.00    +0.472 P 
ATOM     16  O   UNL     1       8.769  -3.682  26.985  0.00  0.00    -0.228 OA
BRANCH  15  17
ATOM     17  O   UNL     1       9.813  -5.631  25.589  0.00  0.00    -0.303 OA
ATOM     18  H   UNL     1       9.642  -6.568  25.380  0.00  0.00    +0.222 HD
ENDBRANCH  15  17
BRANCH  15  19
ATOM     19  O   UNL     1       7.915  -6.104  27.108  0.00  0.00    -0.303 OA
ATOM     20  H   UNL     1       8.422  -6.924  26.954  0.00  0.00    +0.222 HD
ENDBRANCH  15  19
ENDBRANCH  14  15
ENDBRANCH  13  14
ENDBRANCH   1  13
TORSDOF 12
ENDMDL
MODEL 4
REMARK VINA RESULT:      -4.6      3.074      5.124
REMARK  Name = 
REMARK  12 active torsions:
REMARK  status: ('A' for Active; 'I' for Inactive)
REMARK    1  A    between atoms: O_1  and  C_2
REMARK    2  A    between atoms: C_2  and  C_3
REMARK    3  A    between atoms: C_3  and  O_5
REMARK    4  A    between atoms: C_3  and  C_6
REMARK    5  A    between atoms: C_6  and  O_8
REMARK    6  A    between atoms: C_6  and  C_9
REMARK    7  A    between atoms: C_9  and  O_11
REMARK    8  A    between atoms: C_9  and  C_12
REMARK    9  A    between atoms: C_12  and  O_13
REMARK   10  A    between atoms: O_13  and  P_14
REMARK   11  A    between atoms: P_14  and  O_15
REMARK   12  A    between atoms: P_14  and  O_16
REMARK                            x       y       z     vdW  Elec       q    Type
REMARK                         _______ _______ _______ _____ _____    ______ ____
ROOT
ATOM      1  C   UNL     1       8.556  -4.934  25.042  0.00  0.00    +0.172 C 
ENDROOT
BRANCH   1   2
ATOM      2  O   UNL     1       9.361  -5.817  24.261  0.00  0.00    -0.387 OA
ATOM      3  H   UNL     1      10.188  -5.323  24.059  0.00  0.00    +0.210 HD
ENDBRANCH   1   2
BRANCH   1   4
ATOM      4  C   UNL     1       7.104  -4.847  24.495  0.00  0.00    +0.176 C 
BRANCH   4   5
ATOM      5  O   UNL     1       6.609  -3.499  24.504  0.00  0.00    -0.387 OA
ATOM      6  H   UNL     1       6.359  -3.251  23.598  0.00  0.00    +0.210 HD
ENDBRANCH   4   5
BRANCH   4   7
ATOM      7  C   UNL     1       7.008  -5.400  23.055  0.00  0.00    +0.171 C 
BRANCH   7   8
ATOM      8  O   UNL     1       7.523  -4.448  22.105  0.00  0.00    -0.387 OA
ATOM      9  H   UNL     1       7.692  -3.640  22.633  0.00  0.00    +0.210 HD
ENDBRANCH   7   8
BRANCH   7  10
ATOM     10  C   UNL     1       5.565  -5.748  22.671  0.00  0.00    +0.189 C 
BRANCH  10  11
ATOM     11  O   UNL     1       4.888  -4.539  22.318  0.00  0.00    -0.392 OA
ATOM     12  H   UNL     1       4.217  -4.384  23.008  0.00  0.00    +0.210 HD
ENDBRANCH  10  11
ENDBRANCH   7  10
ENDBRANCH   4   7
ENDBRANCH   1   4
BRANCH   1  13
ATOM     13  C   UNL     1       9.248  -3.570  25.100  0.00  0.00    +0.206 C 
BRANCH  13  14
ATOM     14  O   UNL     1       9.780  -3.268  23.821  0.00  0.00    -0.284 OA
BRANCH  14  15
ATOM     15  P   UNL     1       9.697  -1.749  23.328  0.00  0.00    +0.472 P 
ATOM     16  O   UNL     1      10.187  -0.713  24.272  0.00  0.00    -0.228 OA
BRANCH  15  17
ATOM     17  O   UNL     1       8.184  -1.614  22.854  0.00  0.00    -0.303 OA
ATOM     18  H   UNL     1       7.579  -1.523  23.613  0.00  0.00    +0.222 HD
ENDBRANCH  15  17
BRANCH  15  19
ATOM     19  O   UNL     1      10.480  -1.752  21.939  0.00  0.00    -0.303 OA
ATOM     20  H   UNL     1       9.847  -1.590  21.212  0.00  0.00    +0.222 HD
ENDBRANCH  15  19
ENDBRANCH  14  15
ENDBRANCH  13  14
ENDBRANCH   1  13
TORSDOF 12
ENDMDL
MODEL 5
REMARK VINA RESULT:      -4.5      2.537      3.662
REMARK  Name = 
REMARK  12 active torsions:
REMARK  status: ('A' for Active; 'I' for Inactive)
REMARK    1  A    between atoms: O_1  and  C_2
REMARK    2  A    between atoms: C_2  and  C_3
REMARK    3  A    between atoms: C_3  and  O_5
REMARK    4  A    between atoms: C_3  and  C_6
REMARK    5  A    between atoms: C_6  and  O_8
REMARK    6  A    between atoms: C_6  and  C_9
REMARK    7  A    between atoms: C_9  and  O_11
REMARK    8  A    between atoms: C_9  and  C_12
REMARK    9  A    between atoms: C_12  and  O_13
REMARK   10  A    between atoms: O_13  and  P_14
REMARK   11  A    between atoms: P_14  and  O_15
REMARK   12  A    between atoms: P_14  and  O_16
REMARK                            x       y       z     vdW  Elec       q    Type
REMARK                         _______ _______ _______ _____ _____    ______ ____
ROOT
ATOM      1  C   UNL     1      10.068   1.891  23.982  0.00  0.00    +0.172 C 
ENDROOT
BRANCH   1   2
ATOM      2  O   UNL     1       9.244   1.886  25.147  0.00  0.00    -0.387 OA
ATOM      3  H   UNL     1       8.446   2.413  24.918  0.00  0.00    +0.210 HD
ENDBRANCH   1   2
BRANCH   1   4
ATOM      4  C   UNL     1       9.310   2.449  22.745  0.00  0.00    +0.176 C 
BRANCH   4   5
ATOM      5  O   UNL     1       9.748   1.832  21.525  0.00  0.00    -0.387 OA
ATOM      6  H   UNL     1       9.305   0.971  21.434  0.00  0.00    +0.210 HD
ENDBRANCH   4   5
BRANCH   4   7
ATOM      7  C   UNL     1       7.783   2.251  22.881  0.00  0.00    +0.171 C 
BRANCH   7   8
ATOM      8  O   UNL     1       7.376   0.995  22.304  0.00  0.00    -0.387 OA
ATOM      9  H   UNL     1       6.404   0.972  22.429  0.00  0.00    +0.210 HD
ENDBRANCH   7   8
BRANCH   7  10
ATOM     10  C   UNL     1       6.997   3.381  22.206  0.00  0.00    +0.189 C 
BRANCH  10  11
ATOM     11  O   UNL     1       7.898   4.460  21.939  0.00  0.00    -0.392 OA
ATOM     12  H   UNL     1       7.814   5.083  22.684  0.00  0.00    +0.210 HD
ENDBRANCH  10  11
ENDBRANCH   7  10
ENDBRANCH   4   7
ENDBRANCH   1   4
BRANCH   1  13
ATOM     13  C   UNL     1      10.598   0.473  23.757  0.00  0.00    +0.206 C 
BRANCH  13  14
ATOM     14  O   UNL     1       9.516  -0.441  23.827  0.00  0.00    -0.284 OA
BRANCH  14  15
ATOM     15  P   UNL     1       9.637  -1.793  22.983  0.00  0.00    +0.472 P 
ATOM     16  O   UNL     1      10.217  -2.968  23.683  0.00  0.00    -0.228 OA
BRANCH  15  17
ATOM     17  O   UNL     1      10.385  -1.319  21.661  0.00  0.00    -0.303 OA
ATOM     18  H   UNL     1      10.195  -1.912  20.911  0.00  0.00    +0.222 HD
ENDBRANCH  15  17
BRANCH  15  19
ATOM     19  O   UNL     1       8.155  -2.050  22.452  0.00  0.00    -0.303 OA
ATOM     20  H   UNL     1       7.665  -2.582  23.109  0.00  0.00    +0.222 HD
ENDBRANCH  15  19
ENDBRANCH  14  15
ENDBRANCH  13  14
ENDBRANCH   1  13
TORSDOF 12
ENDMDL
MODEL 6
REMARK VINA RESULT:      -4.5      3.266      5.650
REMARK  Name = 
REMARK  12 active torsions:
REMARK  status: ('A' for Active; 'I' for Inactive)
REMARK    1  A    between atoms: O_1  and  C_2
REMARK    2  A    between atoms: C_2  and  C_3
REMARK    3  A    between atoms: C_3  and  O_5
REMARK    4  A    between atoms: C_3  and  C_6
REMARK    5  A    between atoms: C_6  and  O_8
REMARK    6  A    between atoms: C_6  and  C_9
REMARK    7  A    between atoms: C_9  and  O_11
REMARK    8  A    between atoms: C_9  and  C_12
REMARK    9  A    between atoms: C_12  and  O_13
REMARK   10  A    between atoms: O_13  and  P_14
REMARK   11  A    between atoms: P_14  and  O_15
REMARK   12  A    between atoms: P_14  and  O_16
REMARK                            x       y       z     vdW  Elec       q    Type
REMARK                         _______ _______ _______ _____ _____    ______ ____
ROOT
ATOM      1  C   UNL     1       8.731  -3.388  24.063  0.00  0.00    +0.172 C 
ENDROOT
BRANCH   1   2
ATOM      2  O   UNL     1      10.099  -3.066  23.814  0.00  0.00    -0.387 OA
ATOM      3  H   UNL     1      10.432  -3.754  23.196  0.00  0.00    +0.210 HD
ENDBRANCH   1   2
BRANCH   1   4
ATOM      4  C   UNL     1       8.591  -4.686  24.905  0.00  0.00    +0.176 C 
BRANCH   4   5
ATOM      5  O   UNL     1       9.689  -5.586  24.688  0.00  0.00    -0.387 OA
ATOM      6  H   UNL     1       9.820  -6.118  25.492  0.00  0.00    +0.210 HD
ENDBRANCH   4   5
BRANCH   4   7
ATOM      7  C   UNL     1       8.496  -4.374  26.415  0.00  0.00    +0.171 C 
BRANCH   7   8
ATOM      8  O   UNL     1       9.647  -4.880  27.117  0.00  0.00    -0.387 OA
ATOM      9  H   UNL     1       9.979  -5.609  26.551  0.00  0.00    +0.210 HD
ENDBRANCH   7   8
BRANCH   7  10
ATOM     10  C   UNL     1       7.232  -4.972  27.045  0.00  0.00    +0.189 C 
BRANCH  10  11
ATOM     11  O   UNL     1       7.611  -6.113  27.820  0.00  0.00    -0.392 OA
ATOM     12  H   UNL     1       7.328  -6.898  27.316  0.00  0.00    +0.210 HD
ENDBRANCH  10  11
ENDBRANCH   7  10
ENDBRANCH   4   7
ENDBRANCH   1   4
BRANCH   1  13
ATOM     13  C   UNL     1       8.002  -3.474  22.720  0.00  0.00    +0.206 C 
BRANCH  13  14
ATOM     14  O   UNL     1       7.481  -4.784  22.561  0.00  0.00    -0.284 OA
BRANCH  14  15
ATOM     15  P   UNL     1       5.918  -4.923  22.251  0.00  0.00    +0.472 P 
ATOM     16  O   UNL     1       5.268  -3.773  21.571  0.00  0.00    -0.228 OA
BRANCH  15  17
ATOM     17  O   UNL     1       5.313  -5.342  23.662  0.00  0.00    -0.303 OA
ATOM     18  H   UNL     1       4.783  -6.157  23.595  0.00  0.00    +0.222 HD
ENDBRANCH  15  17
BRANCH  15  19
ATOM     19  O   UNL     1       5.809  -6.283  21.426  0.00  0.00    -0.303 OA
ATOM     20  H   UNL     1       6.484  -6.286  20.720  0.00  0.00    +0.222 HD
ENDBRANCH  15  19
ENDBRANCH  14  15
ENDBRANCH  13  14
ENDBRANCH   1  13
TORSDOF 12
ENDMDL
MODEL 7
REMARK VINA RESULT:      -4.5      3.002      5.543
REMARK  Name = 
REMARK  12 active torsions:
REMARK  status: ('A' for Active; 'I' for Inactive)
REMARK    1  A    between atoms: O_1  and  C_2
REMARK    2  A    between atoms: C_2  and  C_3
REMARK    3  A    between atoms: C_3  and  O_5
REMARK    4  A    between atoms: C_3  and  C_6
REMARK    5  A    between atoms: C_6  and  O_8
REMARK    6  A    between atoms: C_6  and  C_9
REMARK    7  A    between atoms: C_9  and  O_11
REMARK    8  A    between atoms: C_9  and  C_12
REMARK    9  A    between atoms: C_12  and  O_13
REMARK   10  A    between atoms: O_13  and  P_14
REMARK   11  A    between atoms: P_14  and  O_15
REMARK   12  A    between atoms: P_14  and  O_16
REMARK                            x       y       z     vdW  Elec       q    Type
REMARK                         _______ _______ _______ _____ _____    ______ ____
ROOT
ATOM      1  C   UNL     1       9.475  -0.748  24.336  0.00  0.00    +0.172 C 
ENDROOT
BRANCH   1   2
ATOM      2  O   UNL     1       9.024  -1.356  25.546  0.00  0.00    -0.387 OA
ATOM      3  H   UNL     1       9.803  -1.826  25.920  0.00  0.00    +0.210 HD
ENDBRANCH   1   2
BRANCH   1   4
ATOM      4  C   UNL     1      10.136  -1.785  23.385  0.00  0.00    +0.176 C 
BRANCH   4   5
ATOM      5  O   UNL     1      10.175  -3.097  23.967  0.00  0.00    -0.387 OA
ATOM      6  H   UNL     1       9.807  -3.732  23.330  0.00  0.00    +0.210 HD
ENDBRANCH   4   5
BRANCH   4   7
ATOM      7  C   UNL     1       9.395  -1.864  22.032  0.00  0.00    +0.171 C 
BRANCH   7   8
ATOM      8  O   UNL     1       9.676  -0.705  21.224  0.00  0.00    -0.387 OA
ATOM      9  H   UNL     1       9.871   0.004  21.872  0.00  0.00    +0.210 HD
ENDBRANCH   7   8
BRANCH   7  10
ATOM     10  C   UNL     1       7.877  -1.981  22.216  0.00  0.00    +0.189 C 
BRANCH  10  11
ATOM     11  O   UNL     1       7.564  -3.341  22.528  0.00  0.00    -0.392 OA
ATOM     12  H   UNL     1       7.998  -3.889  21.850  0.00  0.00    +0.210 HD
ENDBRANCH  10  11
ENDBRANCH   7  10
ENDBRANCH   4   7
ENDBRANCH   1   4
BRANCH   1  13
ATOM     13  C   UNL     1      10.413   0.407  24.693  0.00  0.00    +0.206 C 
BRANCH  13  14
ATOM     14  O   UNL     1      10.799   1.073  23.502  0.00  0.00    -0.284 OA
BRANCH  14  15
ATOM     15  P   UNL     1       9.998   2.400  23.108  0.00  0.00    +0.472 P 
ATOM     16  O   UNL     1       8.854   2.773  23.979  0.00  0.00    -0.228 OA
BRANCH  15  17
ATOM     17  O   UNL     1       9.668   2.170  21.568  0.00  0.00    -0.303 OA
ATOM     18  H   UNL     1       9.397   3.000  21.134  0.00  0.00    +0.222 HD
ENDBRANCH  15  17
BRANCH  15  19
ATOM     19  O   UNL     1      11.126   3.525  23.041  0.00  0.00    -0.303 OA
ATOM     20  H   UNL     1      11.260   3.900  23.934  0.00  0.00    +0.222 HD
ENDBRANCH  15  19
ENDBRANCH  14  15
ENDBRANCH  13  14
ENDBRANCH   1  13
TORSDOF 12
ENDMDL
MODEL 8
REMARK VINA RESULT:      -4.4      1.312      1.755
REMARK  Name = 
REMARK  12 active torsions:
REMARK  status: ('A' for Active; 'I' for Inactive)
REMARK    1  A    between atoms: O_1  and  C_2
REMARK    2  A    between atoms: C_2  and  C_3
REMARK    3  A    between atoms: C_3  and  O_5
REMARK    4  A    between atoms: C_3  and  C_6
REMARK    5  A    between atoms: C_6  and  O_8
REMARK    6  A    between atoms: C_6  and  C_9
REMARK    7  A    between atoms: C_9  and  O_11
REMARK    8  A    between atoms: C_9  and  C_12
REMARK    9  A    between atoms: C_12  and  O_13
REMARK   10  A    between atoms: O_13  and  P_14
REMARK   11  A    between atoms: P_14  and  O_15
REMARK   12  A    between atoms: P_14  and  O_16
REMARK                            x       y       z     vdW  Elec       q    Type
REMARK                         _______ _______ _______ _____ _____    ______ ____
ROOT
ATOM      1  C   UNL     1       9.951  -1.291  24.193  0.00  0.00    +0.172 C 
ENDROOT
BRANCH   1   2
ATOM      2  O   UNL     1       9.041  -0.866  25.207  0.00  0.00    -0.387 OA
ATOM      3  H   UNL     1       9.449  -1.124  26.063  0.00  0.00    +0.210 HD
ENDBRANCH   1   2
BRANCH   1   4
ATOM      4  C   UNL     1      10.165  -0.190  23.116  0.00  0.00    +0.176 C 
BRANCH   4   5
ATOM      5  O   UNL     1      10.014  -0.708  21.785  0.00  0.00    -0.387 OA
ATOM      6  H   UNL     1      10.800  -0.466  21.265  0.00  0.00    +0.210 HD
ENDBRANCH   4   5
BRANCH   4   7
ATOM      7  C   UNL     1       9.180   0.985  23.305  0.00  0.00    +0.171 C 
BRANCH   7   8
ATOM      8  O   UNL     1       7.937   0.727  22.625  0.00  0.00    -0.387 OA
ATOM      9  H   UNL     1       7.270   0.676  23.343  0.00  0.00    +0.210 HD
ENDBRANCH   7   8
BRANCH   7  10
ATOM     10  C   UNL     1       9.760   2.307  22.787  0.00  0.00    +0.189 C 
BRANCH  10  11
ATOM     11  O   UNL     1       9.994   2.176  21.382  0.00  0.00    -0.392 OA
ATOM     12  H   UNL     1       9.205   1.742  21.008  0.00  0.00    +0.210 HD
ENDBRANCH  10  11
ENDBRANCH   7  10
ENDBRANCH   4   7
ENDBRANCH   1   4
BRANCH   1  13
ATOM     13  C   UNL     1       9.437  -2.604  23.599  0.00  0.00    +0.206 C 
BRANCH  13  14
ATOM     14  O   UNL     1      10.047  -3.688  24.281  0.00  0.00    -0.284 OA
BRANCH  14  15
ATOM     15  P   UNL     1       9.103  -4.623  25.171  0.00  0.00    +0.472 P 
ATOM     16  O   UNL     1       7.902  -5.188  24.504  0.00  0.00    -0.228 OA
BRANCH  15  17
ATOM     17  O   UNL     1       8.840  -3.732  26.463  0.00  0.00    -0.303 OA
ATOM     18  H   UNL     1       8.001  -3.240  26.393  0.00  0.00    +0.222 HD
ENDBRANCH  15  17
BRANCH  15  19
ATOM     19  O   UNL     1      10.090  -5.742  25.735  0.00  0.00    -0.303 OA
ATOM     20  H   UNL     1       9.964  -5.825  26.701  0.00  0.00    +0.222 HD
ENDBRANCH  15  19
ENDBRANCH  14  15
ENDBRANCH  13  14
ENDBRANCH   1  13
TORSDOF 12
ENDMDL
MODEL 9
REMARK VINA RESULT:      -4.4      1.482      1.861
REMARK  Name = 
REMARK  12 active torsions:
REMARK  status: ('A' for Active; 'I' for Inactive)
REMARK    1  A    between atoms: O_1  and  C_2
REMARK    2  A    between atoms: C_2  and  C_3
REMARK    3  A    between atoms: C_3  and  O_5
REMARK    4  A    between atoms: C_3  and  C_6
REMARK    5  A    between atoms: C_6  and  O_8
REMARK    6  A    between atoms: C_6  and  C_9
REMARK    7  A    between atoms: C_9  and  O_11
REMARK    8  A    between atoms: C_9  and  C_12
REMARK    9  A    between atoms: C_12  and  O_13
REMARK   10  A    between atoms: O_13  and  P_14
REMARK   11  A    between atoms: P_14  and  O_15
REMARK   12  A    between atoms: P_14  and  O_16
REMARK                            x       y       z     vdW  Elec       q    Type
REMARK                         _______ _______ _______ _____ _____    ______ ____
ROOT
ATOM      1  C   UNL     1       8.992  -1.375  22.180  0.00  0.00    +0.172 C 
ENDROOT
BRANCH   1   2
ATOM      2  O   UNL     1      10.224  -1.632  21.507  0.00  0.00    -0.387 OA
ATOM      3  H   UNL     1      10.365  -2.603  21.561  0.00  0.00    +0.210 HD
ENDBRANCH   1   2
BRANCH   1   4
ATOM      4  C   UNL     1       9.118  -0.186  23.174  0.00  0.00    +0.176 C 
BRANCH   4   5
ATOM      5  O   UNL     1      10.353  -0.231  23.907  0.00  0.00    -0.387 OA
ATOM      6  H   UNL     1      10.150  -0.306  24.855  0.00  0.00    +0.210 HD
ENDBRANCH   4   5
BRANCH   4   7
ATOM      7  C   UNL     1       9.023   1.173  22.446  0.00  0.00    +0.171 C 
BRANCH   7   8
ATOM      8  O   UNL     1       9.013   0.990  21.017  0.00  0.00    -0.387 OA
ATOM      9  H   UNL     1       8.189   1.430  20.719  0.00  0.00    +0.210 HD
ENDBRANCH   7   8
BRANCH   7  10
ATOM     10  C   UNL     1      10.185   2.103  22.815  0.00  0.00    +0.189 C 
BRANCH  10  11
ATOM     11  O   UNL     1       9.945   2.627  24.124  0.00  0.00    -0.392 OA
ATOM     12  H   UNL     1       9.127   3.154  24.067  0.00  0.00    +0.210 HD
ENDBRANCH  10  11
ENDBRANCH   7  10
ENDBRANCH   4   7
ENDBRANCH   1   4
BRANCH   1  13
ATOM     13  C   UNL     1       8.532  -2.666  22.860  0.00  0.00    +0.206 C 
BRANCH  13  14
ATOM     14  O   UNL     1       9.546  -3.105  23.750  0.00  0.00    -0.284 OA
BRANCH  14  15
ATOM     15  P   UNL     1       9.123  -4.132  24.900  0.00  0.00    +0.472 P 
ATOM     16  O   UNL     1       8.689  -3.545  26.193  0.00  0.00    -0.228 OA
BRANCH  15  17
ATOM     17  O   UNL     1      10.364  -5.128  24.958  0.00  0.00    -0.303 OA
ATOM     18  H   UNL     1      11.155  -4.737  24.543  0.00  0.00    +0.222 HD
ENDBRANCH  15  17
BRANCH  15  19
ATOM     19  O   UNL     1       8.003  -5.037  24.215  0.00  0.00    -0.303 OA
ATOM     20  H   UNL     1       8.132  -5.031  23.247  0.00  0.00    +0.222 HD
ENDBRANCH  15  19
ENDBRANCH  14  15
ENDBRANCH  13  14
ENDBRANCH   1  13
TORSDOF 12
ENDMDL
