MODEL 1
REMARK VINA RESULT:      -6.4      0.000      0.000
REMARK  Name = 
REMARK  12 active torsions:
REMARK  status: ('A' for Active; 'I' for Inactive)
REMARK    1  A    between atoms: C_1  and  C_2
REMARK    2  A    between atoms: C_2  and  C_3
REMARK    3  A    between atoms: C_3  and  C_4
REMARK    4  A    between atoms: C_3  and  C_6
REMARK    5  A    between atoms: C_4  and  C_5
REMARK    6  A    between atoms: C_6  and  N_7
REMARK    7  A    between atoms: C_6  and  C_11
REMARK    8  A    between atoms: C_8  and  C_9
REMARK    9  A    between atoms: C_13  and  O_15
REMARK   10  A    between atoms: C_16  and  C_25
REMARK   11  A    between atoms: C_19  and  N_21
REMARK   12  A    between atoms: C_25  and  O_26
REMARK                            x       y       z     vdW  Elec       q    Type
REMARK                         _______ _______ _______ _____ _____    ______ ____
ROOT
ATOM      1  C   UNL     1       8.941  -2.681  25.112  0.00  0.00    +0.079 C 
ATOM      2  C   UNL     1       7.706  -2.012  25.763  0.00  0.00    +0.196 C 
ATOM      3  C   UNL     1       6.778  -3.144  26.223  0.00  0.00    +0.062 C 
ATOM      4  C   UNL     1       7.382  -4.445  25.698  0.00  0.00    +0.130 C 
ATOM      5  C   UNL     1       8.865  -4.124  25.629  0.00  0.00    +0.137 C 
ENDROOT
BRANCH   2   6
ATOM      6  N   UNL     1       8.141  -1.214  26.913  0.00  0.00    -0.110 NA
ATOM      7  C   UNL     1       7.509  -0.129  27.181  0.00  0.00    +0.377 C 
ATOM      8  N   UNL     1       7.945   0.684  28.166  0.00  0.00    -0.289 N 
ATOM      9  H   UNL     1       7.237   1.120  28.739  0.00  0.00    +0.255 HD
ATOM     10  H   UNL     1       8.672   0.245  28.718  0.00  0.00    +0.255 HD
ATOM     11  N   UNL     1       6.411   0.376  26.578  0.00  0.00    -0.289 N 
ATOM     12  H   UNL     1       5.918   1.106  27.068  0.00  0.00    +0.255 HD
ATOM     13  H   UNL     1       5.806  -0.279  26.098  0.00  0.00    +0.255 HD
ENDBRANCH   2   6
BRANCH   4  14
ATOM     14  C   UNL     1       7.070  -5.620  26.598  0.00  0.00    +0.310 C 
ATOM     15  O   UNL     1       6.091  -6.339  26.449  0.00  0.00    -0.251 OA
BRANCH  14  16
ATOM     16  O   UNL     1       8.027  -5.888  27.513  0.00  0.00    -0.480 OA
ATOM     17  H   UNL     1       8.669  -5.145  27.639  0.00  0.00    +0.295 HD
ENDBRANCH  14  16
ENDBRANCH   4  14
BRANCH   5  18
ATOM     18  O   UNL     1       9.570  -5.119  24.906  0.00  0.00    -0.391 OA
ATOM     19  H   UNL     1       9.107  -5.335  24.067  0.00  0.00    +0.210 HD
ENDBRANCH   5  18
BRANCH   1  20
ATOM     20  C   UNL     1       9.008  -2.438  23.571  0.00  0.00    +0.085 C 
BRANCH  20  21
ATOM     21  N   UNL     1       7.666  -2.330  22.976  0.00  0.00    -0.312 N 
ATOM     22  H   UNL     1       7.190  -1.437  23.022  0.00  0.00    +0.149 HD
ATOM     23  C   UNL     1       7.033  -3.389  22.369  0.00  0.00    +0.210 C 
ATOM     24  O   UNL     1       7.529  -4.511  22.323  0.00  0.00    -0.276 OA
ATOM     25  C   UNL     1       5.653  -3.105  21.842  0.00  0.00    +0.109 C 
ENDBRANCH  20  21
BRANCH  20  26
ATOM     26  C   UNL     1       9.873  -1.187  23.159  0.00  0.00    +0.009 C 
BRANCH  26  28
ATOM     27  C   UNL     1       9.223   0.598  21.379  0.00  0.00    +0.004 C 
ATOM     28  C   UNL     1       9.679  -0.825  21.665  0.00  0.00    +0.002 C 
ENDBRANCH  26  28
BRANCH  26  29
ATOM     29  C   UNL     1       9.647   0.017  24.109  0.00  0.00    +0.002 C 
ATOM     30  C   UNL     1      10.904   0.596  24.742  0.00  0.00    +0.004 C 
ENDBRANCH  26  29
ENDBRANCH  20  26
ENDBRANCH   1  20
TORSDOF 9
ENDMDL
MODEL 2
REMARK VINA RESULT:      -6.0      2.652      4.121
REMARK  Name = 
REMARK  12 active torsions:
REMARK  status: ('A' for Active; 'I' for Inactive)
REMARK    1  A    between atoms: C_1  and  C_2
REMARK    2  A    between atoms: C_2  and  C_3
REMARK    3  A    between atoms: C_3  and  C_4
REMARK    4  A    between atoms: C_3  and  C_6
REMARK    5  A    between atoms: C_4  and  C_5
REMARK    6  A    between atoms: C_6  and  N_7
REMARK    7  A    between atoms: C_6  and  C_11
REMARK    8  A    between atoms: C_8  and  C_9
REMARK    9  A    between atoms: C_13  and  O_15
REMARK   10  A    between atoms: C_16  and  C_25
REMARK   11  A    between atoms: C_19  and  N_21
REMARK   12  A    between atoms: C_25  and  O_26
REMARK                            x       y       z     vdW  Elec       q    Type
REMARK                         _______ _______ _______ _____ _____    ______ ____
ROOT
ATOM      1  C   UNL     1       7.067  -3.454  23.276  0.00  0.00    +0.079 C 
ATOM      2  C   UNL     1       7.233  -4.151  24.649  0.00  0.00    +0.196 C 
ATOM      3  C   UNL     1       6.002  -5.047  24.844  0.00  0.00    +0.062 C 
ATOM      4  C   UNL     1       5.056  -4.749  23.683  0.00  0.00    +0.130 C 
ATOM      5  C   UNL     1       6.003  -4.313  22.579  0.00  0.00    +0.137 C 
ENDROOT
BRANCH   2   6
ATOM      6  N   UNL     1       8.453  -4.962  24.632  0.00  0.00    -0.110 NA
ATOM      7  C   UNL     1       9.220  -4.938  25.662  0.00  0.00    +0.377 C 
ATOM      8  N   UNL     1      10.403  -5.587  25.642  0.00  0.00    -0.289 N 
ATOM      9  H   UNL     1      10.675  -6.057  26.494  0.00  0.00    +0.255 HD
ATOM     10  H   UNL     1      10.488  -6.183  24.828  0.00  0.00    +0.255 HD
ATOM     11  N   UNL     1       9.028  -4.303  26.839  0.00  0.00    -0.289 N 
ATOM     12  H   UNL     1       9.613  -4.586  27.610  0.00  0.00    +0.255 HD
ATOM     13  H   UNL     1       8.072  -4.098  27.102  0.00  0.00    +0.255 HD
ENDBRANCH   2   6
BRANCH   4  14
ATOM     14  C   UNL     1       4.220  -5.951  23.307  0.00  0.00    +0.310 C 
ATOM     15  O   UNL     1       3.200  -5.877  22.635  0.00  0.00    -0.251 OA
BRANCH  14  16
ATOM     16  O   UNL     1       4.755  -7.137  23.675  0.00  0.00    -0.480 OA
ATOM     17  H   UNL     1       4.537  -7.875  23.052  0.00  0.00    +0.295 HD
ENDBRANCH  14  16
ENDBRANCH   4  14
BRANCH   5  18
ATOM     18  O   UNL     1       5.295  -3.730  21.497  0.00  0.00    -0.391 OA
ATOM     19  H   UNL     1       4.436  -3.362  21.800  0.00  0.00    +0.210 HD
ENDBRANCH   5  18
BRANCH   1  20
ATOM     20  C   UNL     1       6.820  -1.918  23.414  0.00  0.00    +0.085 C 
BRANCH  20  21
ATOM     21  N   UNL     1       6.947  -1.466  24.809  0.00  0.00    -0.312 N 
ATOM     22  H   UNL     1       7.876  -1.316  25.183  0.00  0.00    +0.149 HD
ATOM     23  C   UNL     1       5.860  -1.247  25.623  0.00  0.00    +0.210 C 
ATOM     24  O   UNL     1       4.710  -1.458  25.251  0.00  0.00    -0.276 OA
ATOM     25  C   UNL     1       6.178  -0.816  27.028  0.00  0.00    +0.109 C 
ENDBRANCH  20  21
BRANCH  20  26
ATOM     26  C   UNL     1       7.740  -1.037  22.485  0.00  0.00    +0.009 C 
BRANCH  26  28
ATOM     27  C   UNL     1       8.299   1.483  22.155  0.00  0.00    +0.004 C 
ATOM     28  C   UNL     1       8.047   0.339  23.126  0.00  0.00    +0.002 C 
ENDBRANCH  26  28
BRANCH  26  29
ATOM     29  C   UNL     1       9.016  -1.797  22.040  0.00  0.00    +0.002 C 
ATOM     30  C   UNL     1      10.216  -1.658  22.965  0.00  0.00    +0.004 C 
ENDBRANCH  26  29
ENDBRANCH  20  26
ENDBRANCH   1  20
TORSDOF 9
ENDMDL
MODEL 3
REMARK VINA RESULT:      -6.0      2.580      5.397
REMARK  Name = 
REMARK  12 active torsions:
REMARK  status: ('A' for Active; 'I' for Inactive)
REMARK    1  A    between atoms: C_1  and  C_2
REMARK    2  A    between atoms: C_2  and  C_3
REMARK    3  A    between atoms: C_3  and  C_4
REMARK    4  A    between atoms: C_3  and  C_6
REMARK    5  A    between atoms: C_4  and  C_5
REMARK    6  A    between atoms: C_6  and  N_7
REMARK    7  A    between atoms: C_6  and  C_11
REMARK    8  A    between atoms: C_8  and  C_9
REMARK    9  A    between atoms: C_13  and  O_15
REMARK   10  A    between atoms: C_16  and  C_25
REMARK   11  A    between atoms: C_19  and  N_21
REMARK   12  A    between atoms: C_25  and  O_26
REMARK                            x       y       z     vdW  Elec       q    Type
REMARK                         _______ _______ _______ _____ _____    ______ ____
ROOT
ATOM      1  C   UNL     1       6.783  -2.634  24.169  0.00  0.00    +0.079 C 
ATOM      2  C   UNL     1       7.812  -3.292  23.218  0.00  0.00    +0.196 C 
ATOM      3  C   UNL     1       7.160  -4.569  22.672  0.00  0.00    +0.062 C 
ATOM      4  C   UNL     1       5.841  -4.742  23.422  0.00  0.00    +0.130 C 
ATOM      5  C   UNL     1       5.464  -3.313  23.774  0.00  0.00    +0.137 C 
ENDROOT
BRANCH   2   6
ATOM      6  N   UNL     1       8.112  -2.367  22.121  0.00  0.00    -0.110 NA
ATOM      7  C   UNL     1       9.240  -1.752  22.128  0.00  0.00    +0.377 C 
ATOM      8  N   UNL     1       9.507  -0.816  21.194  0.00  0.00    -0.289 N 
ATOM      9  H   UNL     1      10.450  -0.793  20.834  0.00  0.00    +0.255 HD
ATOM     10  H   UNL     1       8.813  -0.814  20.457  0.00  0.00    +0.255 HD
ATOM     11  N   UNL     1      10.265  -1.886  22.998  0.00  0.00    -0.289 N 
ATOM     12  H   UNL     1      11.153  -1.502  22.716  0.00  0.00    +0.255 HD
ATOM     13  H   UNL     1      10.336  -2.764  23.496  0.00  0.00    +0.255 HD
ENDBRANCH   2   6
BRANCH   4  14
ATOM     14  C   UNL     1       4.796  -5.441  22.582  0.00  0.00    +0.310 C 
ATOM     15  O   UNL     1       3.593  -5.327  22.773  0.00  0.00    -0.251 OA
BRANCH  14  16
ATOM     16  O   UNL     1       5.295  -6.113  21.521  0.00  0.00    -0.480 OA
ATOM     17  H   UNL     1       5.296  -5.581  20.685  0.00  0.00    +0.295 HD
ENDBRANCH  14  16
ENDBRANCH   4  14
BRANCH   5  18
ATOM     18  O   UNL     1       4.402  -3.280  24.713  0.00  0.00    -0.391 OA
ATOM     19  H   UNL     1       4.664  -2.785  25.519  0.00  0.00    +0.210 HD
ENDBRANCH   5  18
BRANCH   1  20
ATOM     20  C   UNL     1       7.235  -2.684  25.663  0.00  0.00    +0.085 C 
BRANCH  20  21
ATOM     21  N   UNL     1       6.274  -2.005  26.548  0.00  0.00    -0.312 N 
ATOM     22  H   UNL     1       5.420  -2.492  26.794  0.00  0.00    +0.149 HD
ATOM     23  C   UNL     1       6.487  -0.742  27.047  0.00  0.00    +0.210 C 
ATOM     24  O   UNL     1       7.474  -0.077  26.750  0.00  0.00    -0.276 OA
ATOM     25  C   UNL     1       5.385  -0.193  27.912  0.00  0.00    +0.109 C 
ENDBRANCH  20  21
BRANCH  20  26
ATOM     26  C   UNL     1       7.511  -4.141  26.198  0.00  0.00    +0.009 C 
BRANCH  26  28
ATOM     27  C   UNL     1       9.831  -5.132  25.555  0.00  0.00    +0.004 C 
ATOM     28  C   UNL     1       9.004  -4.343  26.559  0.00  0.00    +0.002 C 
ENDBRANCH  26  28
BRANCH  26  29
ATOM     29  C   UNL     1       6.550  -4.531  27.351  0.00  0.00    +0.002 C 
ATOM     30  C   UNL     1       5.653  -5.729  27.077  0.00  0.00    +0.004 C 
ENDBRANCH  26  29
ENDBRANCH  20  26
ENDBRANCH   1  20
TORSDOF 9
ENDMDL
MODEL 4
REMARK VINA RESULT:      -6.0      3.222      5.191
REMARK  Name = 
REMARK  12 active torsions:
REMARK  status: ('A' for Active; 'I' for Inactive)
REMARK    1  A    between atoms: C_1  and  C_2
REMARK    2  A    between atoms: C_2  and  C_3
REMARK    3  A    between atoms: C_3  and  C_4
REMARK    4  A    between atoms: C_3  and  C_6
REMARK    5  A    between atoms: C_4  and  C_5
REMARK    6  A    between atoms: C_6  and  N_7
REMARK    7  A    between atoms: C_6  and  C_11
REMARK    8  A    between atoms: C_8  and  C_9
REMARK    9  A    between atoms: C_13  and  O_15
REMARK   10  A    between atoms: C_16  and  C_25
REMARK   11  A    between atoms: C_19  and  N_21
REMARK   12  A    between atoms: C_25  and  O_26
REMARK                            x       y       z     vdW  Elec       q    Type
REMARK                         _______ _______ _______ _____ _____    ______ ____
ROOT
ATOM      1  C   UNL     1       6.498  -2.529  24.984  0.00  0.00    +0.079 C 
ATOM      2  C   UNL     1       7.775  -2.920  25.769  0.00  0.00    +0.196 C 
ATOM      3  C   UNL     1       8.291  -1.641  26.441  0.00  0.00    +0.062 C 
ATOM      4  C   UNL     1       7.427  -0.493  25.922  0.00  0.00    +0.130 C 
ATOM      5  C   UNL     1       6.110  -1.180  25.605  0.00  0.00    +0.137 C 
ENDROOT
BRANCH   2   6
ATOM      6  N   UNL     1       7.430  -3.922  26.781  0.00  0.00    -0.110 NA
ATOM      7  C   UNL     1       7.965  -5.086  26.698  0.00  0.00    +0.377 C 
ATOM      8  N   UNL     1       7.592  -6.066  27.548  0.00  0.00    -0.289 N 
ATOM      9  H   UNL     1       8.323  -6.676  27.883  0.00  0.00    +0.255 HD
ATOM     10  H   UNL     1       7.013  -5.709  28.298  0.00  0.00    +0.255 HD
ATOM     11  N   UNL     1       8.892  -5.525  25.819  0.00  0.00    -0.289 N 
ATOM     12  H   UNL     1       9.366  -6.385  26.049  0.00  0.00    +0.255 HD
ATOM     13  H   UNL     1       9.489  -4.828  25.391  0.00  0.00    +0.255 HD
ENDBRANCH   2   6
BRANCH   4  14
ATOM     14  C   UNL     1       7.287   0.619  26.937  0.00  0.00    +0.310 C 
ATOM     15  O   UNL     1       6.526   1.566  26.795  0.00  0.00    -0.251 OA
BRANCH  14  16
ATOM     16  O   UNL     1       7.986   0.422  28.077  0.00  0.00    -0.480 OA
ATOM     17  H   UNL     1       7.838  -0.471  28.478  0.00  0.00    +0.295 HD
ENDBRANCH  14  16
ENDBRANCH   4  14
BRANCH   5  18
ATOM     18  O   UNL     1       5.259  -0.332  24.852  0.00  0.00    -0.391 OA
ATOM     19  H   UNL     1       4.325  -0.429  25.141  0.00  0.00    +0.210 HD
ENDBRANCH   5  18
BRANCH   1  20
ATOM     20  C   UNL     1       6.700  -2.614  23.438  0.00  0.00    +0.085 C 
BRANCH  20  21
ATOM     21  N   UNL     1       8.121  -2.524  23.066  0.00  0.00    -0.312 N 
ATOM     22  H   UNL     1       8.703  -3.345  23.187  0.00  0.00    +0.149 HD
ATOM     23  C   UNL     1       8.690  -1.375  22.569  0.00  0.00    +0.210 C 
ATOM     24  O   UNL     1       8.057  -0.331  22.444  0.00  0.00    -0.276 OA
ATOM     25  C   UNL     1      10.162  -1.456  22.270  0.00  0.00    +0.109 C 
ENDBRANCH  20  21
BRANCH  20  26
ATOM     26  C   UNL     1       6.059  -3.895  22.780  0.00  0.00    +0.009 C 
BRANCH  26  28
ATOM     27  C   UNL     1       6.598  -5.972  21.307  0.00  0.00    +0.004 C 
ATOM     28  C   UNL     1       7.125  -4.767  22.070  0.00  0.00    +0.002 C 
ENDBRANCH  26  28
BRANCH  26  29
ATOM     29  C   UNL     1       5.193  -4.696  23.786  0.00  0.00    +0.002 C 
ATOM     30  C   UNL     1       3.712  -4.785  23.448  0.00  0.00    +0.004 C 
ENDBRANCH  26  29
ENDBRANCH  20  26
ENDBRANCH   1  20
TORSDOF 9
ENDMDL
MODEL 5
REMARK VINA RESULT:      -5.9      3.317      5.699
REMARK  Name = 
REMARK  12 active torsions:
REMARK  status: ('A' for Active; 'I' for Inactive)
REMARK    1  A    between atoms: C_1  and  C_2
REMARK    2  A    between atoms: C_2  and  C_3
REMARK    3  A    between atoms: C_3  and  C_4
REMARK    4  A    between atoms: C_3  and  C_6
REMARK    5  A    between atoms: C_4  and  C_5
REMARK    6  A    between atoms: C_6  and  N_7
REMARK    7  A    between atoms: C_6  and  C_11
REMARK    8  A    between atoms: C_8  and  C_9
REMARK    9  A    between atoms: C_13  and  O_15
REMARK   10  A    between atoms: C_16  and  C_25
REMARK   11  A    between atoms: C_19  and  N_21
REMARK   12  A    between atoms: C_25  and  O_26
REMARK                            x       y       z     vdW  Elec       q    Type
REMARK                         _______ _______ _______ _____ _____    ______ ____
ROOT
ATOM      1  C   UNL     1       6.902  -2.774  24.334  0.00  0.00    +0.079 C 
ATOM      2  C   UNL     1       8.215  -3.553  24.072  0.00  0.00    +0.196 C 
ATOM      3  C   UNL     1       8.979  -2.782  22.987  0.00  0.00    +0.062 C 
ATOM      4  C   UNL     1       8.052  -1.668  22.506  0.00  0.00    +0.130 C 
ATOM      5  C   UNL     1       7.192  -1.394  23.728  0.00  0.00    +0.137 C 
ENDROOT
BRANCH   2   6
ATOM      6  N   UNL     1       9.000  -3.601  25.308  0.00  0.00    -0.110 NA
ATOM      7  C   UNL     1       9.439  -4.739  25.712  0.00  0.00    +0.377 C 
ATOM      8  N   UNL     1      10.074  -4.838  26.899  0.00  0.00    -0.289 N 
ATOM      9  H   UNL     1      10.865  -5.464  26.936  0.00  0.00    +0.255 HD
ATOM     10  H   UNL     1      10.284  -3.927  27.287  0.00  0.00    +0.255 HD
ATOM     11  N   UNL     1       9.339  -5.942  25.105  0.00  0.00    -0.289 N 
ATOM     12  H   UNL     1       9.941  -6.675  25.447  0.00  0.00    +0.255 HD
ATOM     13  H   UNL     1       9.218  -5.943  24.101  0.00  0.00    +0.255 HD
ENDBRANCH   2   6
BRANCH   4  14
ATOM     14  C   UNL     1       8.818  -0.452  22.036  0.00  0.00    +0.310 C 
ATOM     15  O   UNL     1       8.525   0.692  22.356  0.00  0.00    -0.251 OA
BRANCH  14  16
ATOM     16  O   UNL     1       9.931  -0.738  21.325  0.00  0.00    -0.480 OA
ATOM     17  H   UNL     1      10.240  -1.672  21.438  0.00  0.00    +0.295 HD
ENDBRANCH  14  16
ENDBRANCH   4  14
BRANCH   5  18
ATOM     18  O   UNL     1       6.081  -0.576  23.399  0.00  0.00    -0.391 OA
ATOM     19  H   UNL     1       5.427  -1.074  22.861  0.00  0.00    +0.210 HD
ENDBRANCH   5  18
BRANCH   1  20
ATOM     20  C   UNL     1       5.640  -3.557  23.852  0.00  0.00    +0.085 C 
BRANCH  20  21
ATOM     21  N   UNL     1       5.996  -4.680  22.970  0.00  0.00    -0.312 N 
ATOM     22  H   UNL     1       6.336  -5.534  23.393  0.00  0.00    +0.149 HD
ATOM     23  C   UNL     1       5.890  -4.614  21.600  0.00  0.00    +0.210 C 
ATOM     24  O   UNL     1       5.534  -3.594  21.019  0.00  0.00    -0.276 OA
ATOM     25  C   UNL     1       6.326  -5.846  20.856  0.00  0.00    +0.109 C 
ENDBRANCH  20  21
BRANCH  20  26
ATOM     26  C   UNL     1       4.722  -4.073  25.025  0.00  0.00    +0.009 C 
BRANCH  26  28
ATOM     27  C   UNL     1       2.619  -4.994  23.798  0.00  0.00    +0.004 C 
ATOM     28  C   UNL     1       3.219  -3.915  24.687  0.00  0.00    +0.002 C 
ENDBRANCH  26  28
BRANCH  26  29
ATOM     29  C   UNL     1       5.096  -5.512  25.466  0.00  0.00    +0.002 C 
ATOM     30  C   UNL     1       5.946  -5.610  26.725  0.00  0.00    +0.004 C 
ENDBRANCH  26  29
ENDBRANCH  20  26
ENDBRANCH   1  20
TORSDOF 9
ENDMDL
MODEL 6
REMARK VINA RESULT:      -5.9      3.778      5.532
REMARK  Name = 
REMARK  12 active torsions:
REMARK  status: ('A' for Active; 'I' for Inactive)
REMARK    1  A    between atoms: C_1  and  C_2
REMARK    2  A    between atoms: C_2  and  C_3
REMARK    3  A    between atoms: C_3  and  C_4
REMARK    4  A    between atoms: C_3  and  C_6
REMARK    5  A    between atoms: C_4  and  C_5
REMARK    6  A    between atoms: C_6  and  N_7
REMARK    7  A    between atoms: C_6  and  C_11
REMARK    8  A    between atoms: C_8  and  C_9
REMARK    9  A    between atoms: C_13  and  O_15
REMARK   10  A    between atoms: C_16  and  C_25
REMARK   11  A    between atoms: C_19  and  N_21
REMARK   12  A    between atoms: C_25  and  O_26
REMARK                            x       y       z     vdW  Elec       q    Type
REMARK                         _______ _______ _______ _____ _____    ______ ____
ROOT
ATOM      1  C   UNL     1       5.751  -5.990  25.661  0.00  0.00    +0.079 C 
ATOM      2  C   UNL     1       6.635  -5.132  26.598  0.00  0.00    +0.196 C 
ATOM      3  C   UNL     1       6.033  -5.248  28.005  0.00  0.00    +0.062 C 
ATOM      4  C   UNL     1       4.726  -6.023  27.860  0.00  0.00    +0.130 C 
ATOM      5  C   UNL     1       4.982  -6.889  26.639  0.00  0.00    +0.137 C 
ENDROOT
BRANCH   2   6
ATOM      6  N   UNL     1       8.002  -5.659  26.586  0.00  0.00    -0.110 NA
ATOM      7  C   UNL     1       8.897  -5.026  25.917  0.00  0.00    +0.377 C 
ATOM      8  N   UNL     1      10.141  -5.537  25.796  0.00  0.00    -0.289 N 
ATOM      9  H   UNL     1      10.905  -4.879  25.835  0.00  0.00    +0.255 HD
ATOM     10  H   UNL     1      10.280  -6.329  26.411  0.00  0.00    +0.255 HD
ATOM     11  N   UNL     1       8.779  -3.858  25.248  0.00  0.00    -0.289 N 
ATOM     12  H   UNL     1       9.635  -3.396  24.984  0.00  0.00    +0.255 HD
ATOM     13  H   UNL     1       8.047  -3.227  25.549  0.00  0.00    +0.255 HD
ENDBRANCH   2   6
BRANCH   4  14
ATOM     14  C   UNL     1       4.399  -6.826  29.099  0.00  0.00    +0.310 C 
ATOM     15  O   UNL     1       5.032  -6.738  30.142  0.00  0.00    -0.251 OA
BRANCH  14  16
ATOM     16  O   UNL     1       3.273  -7.566  29.001  0.00  0.00    -0.480 OA
ATOM     17  H   UNL     1       2.444  -7.027  29.048  0.00  0.00    +0.295 HD
ENDBRANCH  14  16
ENDBRANCH   4  14
BRANCH   5  18
ATOM     18  O   UNL     1       3.783  -7.488  26.175  0.00  0.00    -0.391 OA
ATOM     19  H   UNL     1       3.216  -7.763  26.929  0.00  0.00    +0.210 HD
ENDBRANCH   5  18
BRANCH   1  20
ATOM     20  C   UNL     1       4.943  -5.123  24.644  0.00  0.00    +0.085 C 
BRANCH  20  21
ATOM     21  N   UNL     1       5.574  -3.812  24.421  0.00  0.00    -0.312 N 
ATOM     22  H   UNL     1       6.494  -3.787  23.998  0.00  0.00    +0.149 HD
ATOM     23  C   UNL     1       4.970  -2.626  24.767  0.00  0.00    +0.210 C 
ATOM     24  O   UNL     1       3.879  -2.585  25.328  0.00  0.00    -0.276 OA
ATOM     25  C   UNL     1       5.773  -1.384  24.493  0.00  0.00    +0.109 C 
ENDBRANCH  20  21
BRANCH  20  26
ATOM     26  C   UNL     1       4.689  -5.833  23.260  0.00  0.00    +0.009 C 
BRANCH  26  28
ATOM     27  C   UNL     1       2.242  -5.189  23.870  0.00  0.00    +0.004 C 
ATOM     28  C   UNL     1       3.177  -5.965  22.954  0.00  0.00    +0.002 C 
ENDBRANCH  26  28
BRANCH  26  29
ATOM     29  C   UNL     1       5.485  -5.164  22.108  0.00  0.00    +0.002 C 
ATOM     30  C   UNL     1       6.736  -5.906  21.662  0.00  0.00    +0.004 C 
ENDBRANCH  26  29
ENDBRANCH  20  26
ENDBRANCH   1  20
TORSDOF 9
ENDMDL
MODEL 7
REMARK VINA RESULT:      -5.8      1.354      1.933
REMARK  Name = 
REMARK  12 active torsions:
REMARK  status: ('A' for Active; 'I' for Inactive)
REMARK    1  A    between atoms: C_1  and  C_2
REMARK    2  A    between atoms: C_2  and  C_3
REMARK    3  A    between atoms: C_3  and  C_4
REMARK    4  A    between atoms: C_3  and  C_6
REMARK    5  A    between atoms: C_4  and  C_5
REMARK    6  A    between atoms: C_6  and  N_7
REMARK    7  A    between atoms: C_6  and  C_11
REMARK    8  A    between atoms: C_8  and  C_9
REMARK    9  A    between atoms: C_13  and  O_15
REMARK   10  A    between atoms: C_16  and  C_25
REMARK   11  A    between atoms: C_19  and  N_21
REMARK   12  A    between atoms: C_25  and  O_26
REMARK                            x       y       z     vdW  Elec       q    Type
REMARK                         _______ _______ _______ _____ _____    ______ ____
ROOT
ATOM      1  C   UNL     1       8.527  -1.345  25.244  0.00  0.00    +0.079 C 
ATOM      2  C   UNL     1       7.360  -1.237  26.257  0.00  0.00    +0.196 C 
ATOM      3  C   UNL     1       6.995  -2.669  26.667  0.00  0.00    +0.062 C 
ATOM      4  C   UNL     1       7.819  -3.602  25.783  0.00  0.00    +0.130 C 
ATOM      5  C   UNL     1       9.051  -2.769  25.471  0.00  0.00    +0.137 C 
ENDROOT
BRANCH   2   6
ATOM      6  N   UNL     1       7.808  -0.473  27.425  0.00  0.00    -0.110 NA
ATOM      7  C   UNL     1       7.178   0.604  27.731  0.00  0.00    +0.377 C 
ATOM      8  N   UNL     1       7.624   1.388  28.735  0.00  0.00    -0.289 N 
ATOM      9  H   UNL     1       6.922   1.807  29.327  0.00  0.00    +0.255 HD
ATOM     10  H   UNL     1       8.357   0.934  29.266  0.00  0.00    +0.255 HD
ATOM     11  N   UNL     1       6.073   1.125  27.154  0.00  0.00    -0.289 N 
ATOM     12  H   UNL     1       5.585   1.841  27.670  0.00  0.00    +0.255 HD
ATOM     13  H   UNL     1       5.464   0.484  26.661  0.00  0.00    +0.255 HD
ENDBRANCH   2   6
BRANCH   4  14
ATOM     14  C   UNL     1       8.145  -4.905  26.478  0.00  0.00    +0.310 C 
ATOM     15  O   UNL     1       7.396  -5.872  26.477  0.00  0.00    -0.251 OA
BRANCH  14  16
ATOM     16  O   UNL     1       9.389  -4.959  27.003  0.00  0.00    -0.480 OA
ATOM     17  H   UNL     1       9.672  -4.110  27.427  0.00  0.00    +0.295 HD
ENDBRANCH  14  16
ENDBRANCH   4  14
BRANCH   5  18
ATOM     18  O   UNL     1       9.818  -3.359  24.434  0.00  0.00    -0.391 OA
ATOM     19  H   UNL     1      10.381  -2.687  23.991  0.00  0.00    +0.210 HD
ENDBRANCH   5  18
BRANCH   1  20
ATOM     20  C   UNL     1       8.104  -0.920  23.802  0.00  0.00    +0.085 C 
BRANCH  20  21
ATOM     21  N   UNL     1       6.852  -1.572  23.385  0.00  0.00    -0.312 N 
ATOM     22  H   UNL     1       5.977  -1.201  23.734  0.00  0.00    +0.149 HD
ATOM     23  C   UNL     1       6.823  -2.663  22.548  0.00  0.00    +0.210 C 
ATOM     24  O   UNL     1       7.846  -3.195  22.129  0.00  0.00    -0.276 OA
ATOM     25  C   UNL     1       5.456  -3.217  22.251  0.00  0.00    +0.109 C 
ENDBRANCH  20  21
BRANCH  20  26
ATOM     26  C   UNL     1       7.982   0.639  23.605  0.00  0.00    +0.009 C 
BRANCH  26  28
ATOM     27  C   UNL     1       8.515   2.805  24.945  0.00  0.00    +0.004 C 
ATOM     28  C   UNL     1       8.955   1.410  24.531  0.00  0.00    +0.002 C 
ENDBRANCH  26  28
BRANCH  26  29
ATOM     29  C   UNL     1       8.110   1.049  22.115  0.00  0.00    +0.002 C 
ATOM     30  C   UNL     1       9.515   0.977  21.535  0.00  0.00    +0.004 C 
ENDBRANCH  26  29
ENDBRANCH  20  26
ENDBRANCH   1  20
TORSDOF 9
ENDMDL
MODEL 8
REMARK VINA RESULT:      -5.8      3.626      6.323
REMARK  Name = 
REMARK  12 active torsions:
REMARK  status: ('A' for Active; 'I' for Inactive)
REMARK    1  A    between atoms: C_1  and  C_2
REMARK    2  A    between atoms: C_2  and  C_3
REMARK    3  A    between atoms: C_3  and  C_4
REMARK    4  A    between atoms: C_3  and  C_6
REMARK    5  A    between atoms: C_4  and  C_5
REMARK    6  A    between atoms: C_6  and  N_7
REMARK    7  A    between atoms: C_6  and  C_11
REMARK    8  A    between atoms: C_8  and  C_9
REMARK    9  A    between atoms: C_13  and  O_15
REMARK   10  A    between atoms: C_16  and  C_25
REMARK   11  A    between atoms: C_19  and  N_21
REMARK   12  A    between atoms: C_25  and  O_26
REMARK                            x       y       z     vdW  Elec       q    Type
REMARK                         _______ _______ _______ _____ _____    ______ ____
ROOT
ATOM      1  C   UNL     1       5.650  -4.601  25.961  0.00  0.00    +0.079 C 
ATOM      2  C   UNL     1       6.634  -5.565  26.667  0.00  0.00    +0.196 C 
ATOM      3  C   UNL     1       8.035  -5.243  26.129  0.00  0.00    +0.062 C 
ATOM      4  C   UNL     1       7.848  -4.224  25.006  0.00  0.00    +0.130 C 
ATOM      5  C   UNL     1       6.573  -3.505  25.412  0.00  0.00    +0.137 C 
ENDROOT
BRANCH   2   6
ATOM      6  N   UNL     1       6.580  -5.334  28.113  0.00  0.00    -0.110 NA
ATOM      7  C   UNL     1       6.099  -6.257  28.864  0.00  0.00    +0.377 C 
ATOM      8  N   UNL     1       5.936  -6.040  30.186  0.00  0.00    -0.289 N 
ATOM      9  H   UNL     1       6.147  -6.813  30.801  0.00  0.00    +0.255 HD
ATOM     10  H   UNL     1       6.382  -5.180  30.480  0.00  0.00    +0.255 HD
ATOM     11  N   UNL     1       5.679  -7.493  28.514  0.00  0.00    -0.289 N 
ATOM     12  H   UNL     1       5.556  -8.160  29.260  0.00  0.00    +0.255 HD
ATOM     13  H   UNL     1       6.067  -7.889  27.667  0.00  0.00    +0.255 HD
ENDBRANCH   2   6
BRANCH   4  14
ATOM     14  C   UNL     1       9.036  -3.297  24.875  0.00  0.00    +0.310 C 
ATOM     15  O   UNL     1      10.016  -3.554  24.189  0.00  0.00    -0.251 OA
BRANCH  14  16
ATOM     16  O   UNL     1       8.878  -2.102  25.486  0.00  0.00    -0.480 OA
ATOM     17  H   UNL     1       8.448  -2.170  26.375  0.00  0.00    +0.295 HD
ENDBRANCH  14  16
ENDBRANCH   4  14
BRANCH   5  18
ATOM     18  O   UNL     1       6.080  -2.701  24.353  0.00  0.00    -0.391 OA
ATOM     19  H   UNL     1       5.099  -2.719  24.329  0.00  0.00    +0.210 HD
ENDBRANCH   5  18
BRANCH   1  20
ATOM     20  C   UNL     1       4.695  -5.343  24.973  0.00  0.00    +0.085 C 
BRANCH  20  21
ATOM     21  N   UNL     1       5.422  -5.885  23.813  0.00  0.00    -0.312 N 
ATOM     22  H   UNL     1       6.034  -6.679  23.957  0.00  0.00    +0.149 HD
ATOM     23  C   UNL     1       5.307  -5.356  22.549  0.00  0.00    +0.210 C 
ATOM     24  O   UNL     1       4.624  -4.365  22.312  0.00  0.00    -0.276 OA
ATOM     25  C   UNL     1       6.146  -6.019  21.490  0.00  0.00    +0.109 C 
ENDBRANCH  20  21
BRANCH  20  26
ATOM     26  C   UNL     1       3.841  -6.485  25.645  0.00  0.00    +0.009 C 
BRANCH  26  28
ATOM     27  C   UNL     1       2.199  -6.951  27.610  0.00  0.00    +0.004 C 
ATOM     28  C   UNL     1       2.882  -5.922  26.723  0.00  0.00    +0.002 C 
ENDBRANCH  26  28
BRANCH  26  29
ATOM     29  C   UNL     1       3.121  -7.369  24.595  0.00  0.00    +0.002 C 
ATOM     30  C   UNL     1       1.956  -6.708  23.872  0.00  0.00    +0.004 C 
ENDBRANCH  26  29
ENDBRANCH  20  26
ENDBRANCH   1  20
TORSDOF 9
ENDMDL
MODEL 9
REMARK VINA RESULT:      -5.8      2.750      4.986
REMARK  Name = 
REMARK  12 active torsions:
REMARK  status: ('A' for Active; 'I' for Inactive)
REMARK    1  A    between atoms: C_1  and  C_2
REMARK    2  A    between atoms: C_2  and  C_3
REMARK    3  A    between atoms: C_3  and  C_4
REMARK    4  A    between atoms: C_3  and  C_6
REMARK    5  A    between atoms: C_4  and  C_5
REMARK    6  A    between atoms: C_6  and  N_7
REMARK    7  A    between atoms: C_6  and  C_11
REMARK    8  A    between atoms: C_8  and  C_9
REMARK    9  A    between atoms: C_13  and  O_15
REMARK   10  A    between atoms: C_16  and  C_25
REMARK   11  A    between atoms: C_19  and  N_21
REMARK   12  A    between atoms: C_25  and  O_26
REMARK                            x       y       z     vdW  Elec       q    Type
REMARK                         _______ _______ _______ _____ _____    ______ ____
ROOT
ATOM      1  C   UNL     1       6.527  -2.573  23.992  0.00  0.00    +0.079 C 
ATOM      2  C   UNL     1       7.728  -3.186  23.230  0.00  0.00    +0.196 C 
ATOM      3  C   UNL     1       7.280  -4.567  22.733  0.00  0.00    +0.062 C 
ATOM      4  C   UNL     1       5.902  -4.824  23.338  0.00  0.00    +0.130 C 
ATOM      5  C   UNL     1       5.343  -3.423  23.511  0.00  0.00    +0.137 C 
ENDROOT
BRANCH   2   6
ATOM      6  N   UNL     1       8.068  -2.324  22.095  0.00  0.00    -0.110 NA
ATOM      7  C   UNL     1       9.214  -1.743  22.088  0.00  0.00    +0.377 C 
ATOM      8  N   UNL     1       9.520  -0.861  21.114  0.00  0.00    -0.289 N 
ATOM      9  H   UNL     1      10.468  -0.883  20.766  0.00  0.00    +0.255 HD
ATOM     10  H   UNL     1       8.835  -0.874  20.369  0.00  0.00    +0.255 HD
ATOM     11  N   UNL     1      10.225  -1.866  22.976  0.00  0.00    -0.289 N 
ATOM     12  H   UNL     1      11.127  -1.522  22.688  0.00  0.00    +0.255 HD
ATOM     13  H   UNL     1      10.263  -2.721  23.516  0.00  0.00    +0.255 HD
ENDBRANCH   2   6
BRANCH   4  14
ATOM     14  C   UNL     1       5.045  -5.699  22.451  0.00  0.00    +0.310 C 
ATOM     15  O   UNL     1       3.828  -5.775  22.555  0.00  0.00    -0.251 OA
BRANCH  14  16
ATOM     16  O   UNL     1       5.720  -6.305  21.449  0.00  0.00    -0.480 OA
ATOM     17  H   UNL     1       5.867  -5.719  20.665  0.00  0.00    +0.295 HD
ENDBRANCH  14  16
ENDBRANCH   4  14
BRANCH   5  18
ATOM     18  O   UNL     1       4.174  -3.433  24.314  0.00  0.00    -0.391 OA
ATOM     19  H   UNL     1       3.701  -2.575  24.252  0.00  0.00    +0.210 HD
ENDBRANCH   5  18
BRANCH   1  20
ATOM     20  C   UNL     1       6.792  -2.454  25.526  0.00  0.00    +0.085 C 
BRANCH  20  21
ATOM     21  N   UNL     1       6.042  -3.465  26.290  0.00  0.00    -0.312 N 
ATOM     22  H   UNL     1       6.122  -4.435  26.011  0.00  0.00    +0.149 HD
ATOM     23  C   UNL     1       5.238  -3.145  27.359  0.00  0.00    +0.210 C 
ATOM     24  O   UNL     1       5.056  -1.986  27.718  0.00  0.00    -0.276 OA
ATOM     25  C   UNL     1       4.524  -4.301  28.003  0.00  0.00    +0.109 C 
ENDBRANCH  20  21
BRANCH  20  26
ATOM     26  C   UNL     1       8.318  -2.517  25.917  0.00  0.00    +0.009 C 
BRANCH  26  28
ATOM     27  C   UNL     1       7.808  -0.072  26.651  0.00  0.00    +0.004 C 
ATOM     28  C   UNL     1       8.757  -1.260  26.708  0.00  0.00    +0.002 C 
ENDBRANCH  26  28
BRANCH  26  29
ATOM     29  C   UNL     1       8.681  -3.842  26.636  0.00  0.00    +0.002 C 
ATOM     30  C   UNL     1       9.470  -4.842  25.803  0.00  0.00    +0.004 C 
ENDBRANCH  26  29
ENDBRANCH  20  26
ENDBRANCH   1  20
TORSDOF 9
ENDMDL
