MODEL 1
REMARK VINA RESULT:      -6.8      0.000      0.000
REMARK  Name = 
REMARK  9 active torsions:
REMARK  status: ('A' for Active; 'I' for Inactive)
REMARK    1  A    between atoms: C_1  and  N_2
REMARK    2  A    between atoms: N_2  and  C_3
REMARK    3  A    between atoms: C_4  and  C_6
REMARK    4  A    between atoms: C_8  and  C_22
REMARK    5  A    between atoms: C_10  and  N_11
REMARK    6  A    between atoms: C_12  and  C_14
REMARK    7  A    between atoms: C_17  and  C_18
REMARK    8  A    between atoms: C_25  and  C_28
REMARK    9  A    between atoms: N_30  and  O_31
REMARK                            x       y       z     vdW  Elec       q    Type
REMARK                         _______ _______ _______ _____ _____    ______ ____
ROOT
ATOM      1  C   UNL     1       9.533   3.585  23.510  0.00  0.00    +0.039 A 
ATOM      2  C   UNL     1       8.368   3.953  22.833  0.00  0.00    +0.036 A 
ATOM      3  C   UNL     1       7.296   3.066  22.747  0.00  0.00    +0.035 A 
ATOM      4  C   UNL     1       7.464   1.753  23.205  0.00  0.00    +0.032 A 
ATOM      5  C   UNL     1       8.654   1.307  23.809  0.00  0.00    -0.015 A 
ATOM      6  C   UNL     1       9.674   2.260  23.975  0.00  0.00    +0.021 A 
ENDROOT
BRANCH   5   7
ATOM      7  C   UNL     1       8.806  -0.100  24.258  0.00  0.00    -0.018 A 
ATOM      8  C   UNL     1       8.573  -0.473  25.595  0.00  0.00    +0.009 A 
ATOM      9  C   UNL     1       8.689  -1.804  26.018  0.00  0.00    +0.014 A 
ATOM     10  C   UNL     1       9.053  -2.801  25.108  0.00  0.00    +0.039 A 
ATOM     11  C   UNL     1       9.341  -2.450  23.790  0.00  0.00    +0.014 A 
ATOM     12  C   UNL     1       9.208  -1.119  23.371  0.00  0.00    +0.009 A 
BRANCH  10  13
ATOM     13  C   UNL     1       9.147  -4.231  25.502  0.00  0.00    +0.267 C 
ATOM     14  N   UNL     1       8.380  -4.619  26.581  0.00  0.00    -0.193 N 
ATOM     15  H   UNL     1       7.573  -4.087  26.887  0.00  0.00    +0.183 HD
ATOM     16  O   UNL     1       9.820  -5.033  24.860  0.00  0.00    -0.268 OA
BRANCH  14  17
ATOM     17  O   UNL     1       8.318  -6.017  26.797  0.00  0.00    -0.295 OA
ATOM     18  H   UNL     1       7.419  -6.238  26.469  0.00  0.00    +0.241 HD
ENDBRANCH  14  17
ENDBRANCH  10  13
ENDBRANCH   5   7
BRANCH   1  21
ATOM     19  C   UNL     1      11.702   6.504  24.692  0.00  0.00    +0.132 C 
ATOM     20  N   UNL     1      10.511   5.694  24.487  0.00  0.00    -0.304 N 
ATOM     21  C   UNL     1      10.672   4.522  23.735  0.00  0.00    +0.246 C 
ATOM     22  O   UNL     1      11.765   4.196  23.266  0.00  0.00    -0.270 OA
ATOM     23  C   UNL     1       9.324   6.064  25.243  0.00  0.00    +0.132 C 
ENDBRANCH   1  21
BRANCH   3  24
ATOM     24  N   UNL     1       6.070   3.548  22.221  0.00  0.00    -0.281 N 
ATOM     25  H   UNL     1       6.073   3.823  21.247  0.00  0.00    +0.155 HD
ATOM     26  C   UNL     1       4.966   3.918  22.979  0.00  0.00    +0.248 C 
ATOM     27  O   UNL     1       4.891   3.890  24.202  0.00  0.00    -0.270 OA
BRANCH  26  28
ATOM     28  C   UNL     1       3.807   4.485  22.235  0.00  0.00    +0.037 A 
ATOM     29  C   UNL     1       3.658   5.878  22.241  0.00  0.00    +0.013 A 
ATOM     30  C   UNL     1       2.585   6.480  21.585  0.00  0.00    +0.004 A 
ATOM     31  C   UNL     1       1.643   5.700  20.907  0.00  0.00    -0.050 A 
ATOM     32  C   UNL     1       0.502   6.370  20.202  0.00  0.00    +0.044 C 
ATOM     33  C   UNL     1       1.780   4.304  20.922  0.00  0.00    +0.004 A 
ATOM     34  C   UNL     1       2.857   3.695  21.581  0.00  0.00    +0.013 A 
ENDBRANCH  26  28
ENDBRANCH   3  24
TORSDOF 6
ENDMDL
MODEL 2
REMARK VINA RESULT:      -6.6      2.848      8.388
REMARK  Name = 
REMARK  9 active torsions:
REMARK  status: ('A' for Active; 'I' for Inactive)
REMARK    1  A    between atoms: C_1  and  N_2
REMARK    2  A    between atoms: N_2  and  C_3
REMARK    3  A    between atoms: C_4  and  C_6
REMARK    4  A    between atoms: C_8  and  C_22
REMARK    5  A    between atoms: C_10  and  N_11
REMARK    6  A    between atoms: C_12  and  C_14
REMARK    7  A    between atoms: C_17  and  C_18
REMARK    8  A    between atoms: C_25  and  C_28
REMARK    9  A    between atoms: N_30  and  O_31
REMARK                            x       y       z     vdW  Elec       q    Type
REMARK                         _______ _______ _______ _____ _____    ______ ____
ROOT
ATOM      1  C   UNL     1       4.741   3.425  24.462  0.00  0.00    +0.039 A 
ATOM      2  C   UNL     1       4.623   2.035  24.509  0.00  0.00    +0.036 A 
ATOM      3  C   UNL     1       5.763   1.232  24.521  0.00  0.00    +0.035 A 
ATOM      4  C   UNL     1       7.014   1.830  24.323  0.00  0.00    +0.032 A 
ATOM      5  C   UNL     1       7.175   3.220  24.176  0.00  0.00    -0.015 A 
ATOM      6  C   UNL     1       6.013   4.006  24.277  0.00  0.00    +0.021 A 
ENDROOT
BRANCH   5   7
ATOM      7  C   UNL     1       8.515   3.817  23.941  0.00  0.00    -0.018 A 
ATOM      8  C   UNL     1       8.725   5.205  24.025  0.00  0.00    +0.009 A 
ATOM      9  C   UNL     1       9.993   5.771  23.831  0.00  0.00    +0.014 A 
ATOM     10  C   UNL     1      11.088   4.954  23.536  0.00  0.00    +0.039 A 
ATOM     11  C   UNL     1      10.896   3.579  23.394  0.00  0.00    +0.014 A 
ATOM     12  C   UNL     1       9.629   3.021  23.605  0.00  0.00    +0.009 A 
BRANCH  10  13
ATOM     13  C   UNL     1      12.458   5.504  23.364  0.00  0.00    +0.267 C 
ATOM     14  N   UNL     1      12.965   5.487  22.082  0.00  0.00    -0.193 N 
ATOM     15  H   UNL     1      12.367   5.419  21.266  0.00  0.00    +0.183 HD
ATOM     16  O   UNL     1      13.073   6.006  24.301  0.00  0.00    -0.268 OA
BRANCH  14  17
ATOM     17  O   UNL     1      14.171   6.210  21.907  0.00  0.00    -0.295 OA
ATOM     18  H   UNL     1      14.765   5.531  21.518  0.00  0.00    +0.241 HD
ENDBRANCH  14  17
ENDBRANCH  10  13
ENDBRANCH   5   7
BRANCH   1  21
ATOM     19  C   UNL     1       1.672   5.554  23.642  0.00  0.00    +0.132 C 
ATOM     20  N   UNL     1       2.830   4.701  23.423  0.00  0.00    -0.304 N 
ATOM     21  C   UNL     1       3.569   4.343  24.559  0.00  0.00    +0.246 C 
ATOM     22  O   UNL     1       3.257   4.734  25.687  0.00  0.00    -0.270 OA
ATOM     23  C   UNL     1       2.992   4.139  22.090  0.00  0.00    +0.132 C 
ENDBRANCH   1  21
BRANCH   3  24
ATOM     24  N   UNL     1       5.602  -0.156  24.761  0.00  0.00    -0.281 N 
ATOM     25  H   UNL     1       5.273  -0.421  25.680  0.00  0.00    +0.155 HD
ATOM     26  C   UNL     1       6.102  -1.170  23.952  0.00  0.00    +0.248 C 
ATOM     27  O   UNL     1       6.755  -1.015  22.926  0.00  0.00    -0.270 OA
BRANCH  26  28
ATOM     28  C   UNL     1       5.900  -2.565  24.431  0.00  0.00    +0.037 A 
ATOM     29  C   UNL     1       4.579  -3.011  24.574  0.00  0.00    +0.013 A 
ATOM     30  C   UNL     1       4.312  -4.299  25.039  0.00  0.00    +0.004 A 
ATOM     31  C   UNL     1       5.360  -5.165  25.364  0.00  0.00    -0.050 A 
ATOM     32  C   UNL     1       5.048  -6.547  25.854  0.00  0.00    +0.044 C 
ATOM     33  C   UNL     1       6.681  -4.709  25.242  0.00  0.00    +0.004 A 
ATOM     34  C   UNL     1       6.954  -3.415  24.776  0.00  0.00    +0.013 A 
ENDBRANCH  26  28
ENDBRANCH   3  24
TORSDOF 6
ENDMDL
MODEL 3
REMARK VINA RESULT:      -6.6      3.010      8.805
REMARK  Name = 
REMARK  9 active torsions:
REMARK  status: ('A' for Active; 'I' for Inactive)
REMARK    1  A    between atoms: C_1  and  N_2
REMARK    2  A    between atoms: N_2  and  C_3
REMARK    3  A    between atoms: C_4  and  C_6
REMARK    4  A    between atoms: C_8  and  C_22
REMARK    5  A    between atoms: C_10  and  N_11
REMARK    6  A    between atoms: C_12  and  C_14
REMARK    7  A    between atoms: C_17  and  C_18
REMARK    8  A    between atoms: C_25  and  C_28
REMARK    9  A    between atoms: N_30  and  O_31
REMARK                            x       y       z     vdW  Elec       q    Type
REMARK                         _______ _______ _______ _____ _____    ______ ____
ROOT
ATOM      1  C   UNL     1       4.901   2.424  24.579  0.00  0.00    +0.039 A 
ATOM      2  C   UNL     1       4.971   1.112  25.052  0.00  0.00    +0.036 A 
ATOM      3  C   UNL     1       6.201   0.556  25.402  0.00  0.00    +0.035 A 
ATOM      4  C   UNL     1       7.373   1.271  25.120  0.00  0.00    +0.032 A 
ATOM      5  C   UNL     1       7.357   2.560  24.556  0.00  0.00    -0.015 A 
ATOM      6  C   UNL     1       6.094   3.130  24.317  0.00  0.00    +0.021 A 
ENDROOT
BRANCH   5   7
ATOM      7  C   UNL     1       8.619   3.278  24.247  0.00  0.00    -0.018 A 
ATOM      8  C   UNL     1       8.740   4.666  24.439  0.00  0.00    +0.009 A 
ATOM      9  C   UNL     1       9.938   5.345  24.174  0.00  0.00    +0.014 A 
ATOM     10  C   UNL     1      11.050   4.644  23.698  0.00  0.00    +0.039 A 
ATOM     11  C   UNL     1      10.941   3.277  23.448  0.00  0.00    +0.014 A 
ATOM     12  C   UNL     1       9.744   2.604  23.730  0.00  0.00    +0.009 A 
BRANCH  10  13
ATOM     13  C   UNL     1      12.353   5.314  23.443  0.00  0.00    +0.267 C 
ATOM     14  N   UNL     1      12.833   5.243  22.153  0.00  0.00    -0.193 N 
ATOM     15  H   UNL     1      12.229   5.050  21.362  0.00  0.00    +0.183 HD
ATOM     16  O   UNL     1      12.932   5.950  24.320  0.00  0.00    -0.268 OA
BRANCH  14  17
ATOM     17  O   UNL     1      13.954   6.067  21.888  0.00  0.00    -0.295 OA
ATOM     18  H   UNL     1      13.970   6.085  20.905  0.00  0.00    +0.241 HD
ENDBRANCH  14  17
ENDBRANCH  10  13
ENDBRANCH   5   7
BRANCH   1  21
ATOM     19  C   UNL     1       1.751   4.574  24.861  0.00  0.00    +0.132 C 
ATOM     20  N   UNL     1       2.974   3.898  25.266  0.00  0.00    -0.304 N 
ATOM     21  C   UNL     1       3.610   3.115  24.293  0.00  0.00    +0.246 C 
ATOM     22  O   UNL     1       3.155   3.000  23.152  0.00  0.00    -0.270 OA
ATOM     23  C   UNL     1       3.525   4.257  26.565  0.00  0.00    +0.132 C 
ENDBRANCH   1  21
BRANCH   3  24
ATOM     24  N   UNL     1       6.206  -0.703  26.053  0.00  0.00    -0.281 N 
ATOM     25  H   UNL     1       6.409  -0.699  27.044  0.00  0.00    +0.155 HD
ATOM     26  C   UNL     1       6.221  -1.936  25.410  0.00  0.00    +0.248 C 
ATOM     27  O   UNL     1       6.240  -2.114  24.197  0.00  0.00    -0.270 OA
BRANCH  26  28
ATOM     28  C   UNL     1       6.316  -3.140  26.280  0.00  0.00    +0.037 A 
ATOM     29  C   UNL     1       5.327  -3.306  27.258  0.00  0.00    +0.013 A 
ATOM     30  C   UNL     1       5.362  -4.399  28.124  0.00  0.00    +0.004 A 
ATOM     31  C   UNL     1       6.384  -5.347  28.025  0.00  0.00    -0.050 A 
ATOM     32  C   UNL     1       6.397  -6.518  28.962  0.00  0.00    +0.044 C 
ATOM     33  C   UNL     1       7.387  -5.168  27.060  0.00  0.00    +0.004 A 
ATOM     34  C   UNL     1       7.355  -4.070  26.189  0.00  0.00    +0.013 A 
ENDBRANCH  26  28
ENDBRANCH   3  24
TORSDOF 6
ENDMDL
MODEL 4
REMARK VINA RESULT:      -6.6      3.696      8.354
REMARK  Name = 
REMARK  9 active torsions:
REMARK  status: ('A' for Active; 'I' for Inactive)
REMARK    1  A    between atoms: C_1  and  N_2
REMARK    2  A    between atoms: N_2  and  C_3
REMARK    3  A    between atoms: C_4  and  C_6
REMARK    4  A    between atoms: C_8  and  C_22
REMARK    5  A    between atoms: C_10  and  N_11
REMARK    6  A    between atoms: C_12  and  C_14
REMARK    7  A    between atoms: C_17  and  C_18
REMARK    8  A    between atoms: C_25  and  C_28
REMARK    9  A    between atoms: N_30  and  O_31
REMARK                            x       y       z     vdW  Elec       q    Type
REMARK                         _______ _______ _______ _____ _____    ______ ____
ROOT
ATOM      1  C   UNL     1       5.109   2.876  25.647  0.00  0.00    +0.039 A 
ATOM      2  C   UNL     1       4.917   1.547  25.263  0.00  0.00    +0.036 A 
ATOM      3  C   UNL     1       5.971   0.812  24.722  0.00  0.00    +0.035 A 
ATOM      4  C   UNL     1       7.171   1.470  24.421  0.00  0.00    +0.032 A 
ATOM      5  C   UNL     1       7.380   2.832  24.703  0.00  0.00    -0.015 A 
ATOM      6  C   UNL     1       6.332   3.513  25.347  0.00  0.00    +0.021 A 
ENDROOT
BRANCH   5   7
ATOM      7  C   UNL     1       8.657   3.502  24.346  0.00  0.00    -0.018 A 
ATOM      8  C   UNL     1       8.830   4.888  24.514  0.00  0.00    +0.009 A 
ATOM      9  C   UNL     1      10.042   5.521  24.204  0.00  0.00    +0.014 A 
ATOM     10  C   UNL     1      11.115   4.776  23.705  0.00  0.00    +0.039 A 
ATOM     11  C   UNL     1      10.951   3.410  23.478  0.00  0.00    +0.014 A 
ATOM     12  C   UNL     1       9.742   2.783  23.805  0.00  0.00    +0.009 A 
BRANCH  10  13
ATOM     13  C   UNL     1      12.431   5.397  23.402  0.00  0.00    +0.267 C 
ATOM     14  N   UNL     1      12.837   5.354  22.085  0.00  0.00    -0.193 N 
ATOM     15  H   UNL     1      12.183   5.216  21.323  0.00  0.00    +0.183 HD
ATOM     16  O   UNL     1      13.085   5.974  24.266  0.00  0.00    -0.268 OA
BRANCH  14  17
ATOM     17  O   UNL     1      13.979   6.137  21.786  0.00  0.00    -0.295 OA
ATOM     18  H   UNL     1      13.653   6.708  21.057  0.00  0.00    +0.241 HD
ENDBRANCH  14  17
ENDBRANCH  10  13
ENDBRANCH   5   7
BRANCH   1  21
ATOM     19  C   UNL     1       2.881   4.507  28.292  0.00  0.00    +0.132 C 
ATOM     20  N   UNL     1       3.897   3.634  27.723  0.00  0.00    -0.304 N 
ATOM     21  C   UNL     1       4.058   3.683  26.333  0.00  0.00    +0.246 C 
ATOM     22  O   UNL     1       3.372   4.423  25.624  0.00  0.00    -0.270 OA
ATOM     23  C   UNL     1       4.779   2.953  28.660  0.00  0.00    +0.132 C 
ENDBRANCH   1  21
BRANCH   3  24
ATOM     24  N   UNL     1       5.785  -0.580  24.526  0.00  0.00    -0.281 N 
ATOM     25  H   UNL     1       5.041  -0.852  23.896  0.00  0.00    +0.155 HD
ATOM     26  C   UNL     1       6.346  -1.580  25.311  0.00  0.00    +0.248 C 
ATOM     27  O   UNL     1       7.071  -1.408  26.285  0.00  0.00    -0.270 OA
BRANCH  26  28
ATOM     28  C   UNL     1       5.951  -2.979  24.991  0.00  0.00    +0.037 A 
ATOM     29  C   UNL     1       4.951  -3.160  24.026  0.00  0.00    +0.013 A 
ATOM     30  C   UNL     1       4.513  -4.441  23.689  0.00  0.00    +0.004 A 
ATOM     31  C   UNL     1       5.070  -5.564  24.309  0.00  0.00    -0.050 A 
ATOM     32  C   UNL     1       4.590  -6.932  23.925  0.00  0.00    +0.044 C 
ATOM     33  C   UNL     1       6.055  -5.380  25.292  0.00  0.00    +0.004 A 
ATOM     34  C   UNL     1       6.496  -4.094  25.633  0.00  0.00    +0.013 A 
ENDBRANCH  26  28
ENDBRANCH   3  24
TORSDOF 6
ENDMDL
MODEL 5
REMARK VINA RESULT:      -6.4      4.468      6.942
REMARK  Name = 
REMARK  9 active torsions:
REMARK  status: ('A' for Active; 'I' for Inactive)
REMARK    1  A    between atoms: C_1  and  N_2
REMARK    2  A    between atoms: N_2  and  C_3
REMARK    3  A    between atoms: C_4  and  C_6
REMARK    4  A    between atoms: C_8  and  C_22
REMARK    5  A    between atoms: C_10  and  N_11
REMARK    6  A    between atoms: C_12  and  C_14
REMARK    7  A    between atoms: C_17  and  C_18
REMARK    8  A    between atoms: C_25  and  C_28
REMARK    9  A    between atoms: N_30  and  O_31
REMARK                            x       y       z     vdW  Elec       q    Type
REMARK                         _______ _______ _______ _____ _____    ______ ____
ROOT
ATOM      1  C   UNL     1       5.608   1.179  27.855  0.00  0.00    +0.039 A 
ATOM      2  C   UNL     1       6.756   1.768  27.321  0.00  0.00    +0.036 A 
ATOM      3  C   UNL     1       7.277   1.318  26.109  0.00  0.00    +0.035 A 
ATOM      4  C   UNL     1       6.732   0.169  25.522  0.00  0.00    +0.032 A 
ATOM      5  C   UNL     1       5.634  -0.516  26.073  0.00  0.00    -0.015 A 
ATOM      6  C   UNL     1       5.068   0.031  27.238  0.00  0.00    +0.021 A 
ENDROOT
BRANCH   5   7
ATOM      7  C   UNL     1       5.099  -1.746  25.437  0.00  0.00    -0.018 A 
ATOM      8  C   UNL     1       5.632  -2.242  24.232  0.00  0.00    +0.009 A 
ATOM      9  C   UNL     1       5.149  -3.417  23.642  0.00  0.00    +0.014 A 
ATOM     10  C   UNL     1       4.105  -4.126  24.242  0.00  0.00    +0.039 A 
ATOM     11  C   UNL     1       3.523  -3.628  25.408  0.00  0.00    +0.014 A 
ATOM     12  C   UNL     1       4.022  -2.460  26.000  0.00  0.00    +0.009 A 
BRANCH  10  13
ATOM     13  C   UNL     1       3.588  -5.399  23.675  0.00  0.00    +0.267 C 
ATOM     14  N   UNL     1       4.147  -6.559  24.170  0.00  0.00    -0.193 N 
ATOM     15  H   UNL     1       4.624  -6.589  25.064  0.00  0.00    +0.183 HD
ATOM     16  O   UNL     1       2.669  -5.415  22.861  0.00  0.00    -0.268 OA
BRANCH  14  17
ATOM     17  O   UNL     1       3.491  -7.751  23.778  0.00  0.00    -0.295 OA
ATOM     18  H   UNL     1       3.117  -8.070  24.629  0.00  0.00    +0.241 HD
ENDBRANCH  14  17
ENDBRANCH  10  13
ENDBRANCH   5   7
BRANCH   1  21
ATOM     19  C   UNL     1       3.355   3.090  30.284  0.00  0.00    +0.132 C 
ATOM     20  N   UNL     1       3.991   2.718  29.029  0.00  0.00    -0.304 N 
ATOM     21  C   UNL     1       4.935   1.684  29.088  0.00  0.00    +0.246 C 
ATOM     22  O   UNL     1       5.217   1.120  30.148  0.00  0.00    -0.270 OA
ATOM     23  C   UNL     1       3.447   3.306  27.814  0.00  0.00    +0.132 C 
ENDBRANCH   1  21
BRANCH   3  24
ATOM     24  N   UNL     1       8.324   2.066  25.512  0.00  0.00    -0.281 N 
ATOM     25  H   UNL     1       9.245   1.956  25.916  0.00  0.00    +0.155 HD
ATOM     26  C   UNL     1       8.147   3.114  24.616  0.00  0.00    +0.248 C 
ATOM     27  O   UNL     1       7.072   3.547  24.220  0.00  0.00    -0.270 OA
BRANCH  26  28
ATOM     28  C   UNL     1       9.377   3.829  24.176  0.00  0.00    +0.037 A 
ATOM     29  C   UNL     1      10.418   3.052  23.649  0.00  0.00    +0.013 A 
ATOM     30  C   UNL     1      11.609   3.649  23.236  0.00  0.00    +0.004 A 
ATOM     31  C   UNL     1      11.779   5.033  23.338  0.00  0.00    -0.050 A 
ATOM     32  C   UNL     1      13.065   5.653  22.880  0.00  0.00    +0.044 C 
ATOM     33  C   UNL     1      10.745   5.806  23.887  0.00  0.00    +0.004 A 
ATOM     34  C   UNL     1       9.547   5.210  24.304  0.00  0.00    +0.013 A 
ENDBRANCH  26  28
ENDBRANCH   3  24
TORSDOF 6
ENDMDL
MODEL 6
REMARK VINA RESULT:      -5.9      1.694      2.190
REMARK  Name = 
REMARK  9 active torsions:
REMARK  status: ('A' for Active; 'I' for Inactive)
REMARK    1  A    between atoms: C_1  and  N_2
REMARK    2  A    between atoms: N_2  and  C_3
REMARK    3  A    between atoms: C_4  and  C_6
REMARK    4  A    between atoms: C_8  and  C_22
REMARK    5  A    between atoms: C_10  and  N_11
REMARK    6  A    between atoms: C_12  and  C_14
REMARK    7  A    between atoms: C_17  and  C_18
REMARK    8  A    between atoms: C_25  and  C_28
REMARK    9  A    between atoms: N_30  and  O_31
REMARK                            x       y       z     vdW  Elec       q    Type
REMARK                         _______ _______ _______ _____ _____    ______ ____
ROOT
ATOM      1  C   UNL     1       8.799   1.609  23.664  0.00  0.00    +0.039 A 
ATOM      2  C   UNL     1       7.712   2.154  22.977  0.00  0.00    +0.036 A 
ATOM      3  C   UNL     1       6.440   1.600  23.120  0.00  0.00    +0.035 A 
ATOM      4  C   UNL     1       6.301   0.400  23.830  0.00  0.00    +0.032 A 
ATOM      5  C   UNL     1       7.383  -0.238  24.460  0.00  0.00    -0.015 A 
ATOM      6  C   UNL     1       8.630   0.407  24.384  0.00  0.00    +0.021 A 
ENDROOT
BRANCH   5   7
ATOM      7  C   UNL     1       7.202  -1.524  25.182  0.00  0.00    -0.018 A 
ATOM      8  C   UNL     1       6.461  -1.598  26.376  0.00  0.00    +0.009 A 
ATOM      9  C   UNL     1       6.264  -2.813  27.046  0.00  0.00    +0.014 A 
ATOM     10  C   UNL     1       6.817  -3.992  26.538  0.00  0.00    +0.039 A 
ATOM     11  C   UNL     1       7.601  -3.938  25.386  0.00  0.00    +0.014 A 
ATOM     12  C   UNL     1       7.780  -2.721  24.714  0.00  0.00    +0.009 A 
BRANCH  10  13
ATOM     13  C   UNL     1       6.600  -5.309  27.192  0.00  0.00    +0.267 C 
ATOM     14  N   UNL     1       5.376  -5.905  26.971  0.00  0.00    -0.193 N 
ATOM     15  H   UNL     1       4.790  -5.656  26.182  0.00  0.00    +0.183 HD
ATOM     16  O   UNL     1       7.487  -5.862  27.836  0.00  0.00    -0.268 OA
BRANCH  14  17
ATOM     17  O   UNL     1       5.276  -7.246  27.418  0.00  0.00    -0.295 OA
ATOM     18  H   UNL     1       5.288  -7.139  28.394  0.00  0.00    +0.241 HD
ENDBRANCH  14  17
ENDBRANCH  10  13
ENDBRANCH   5   7
BRANCH   1  21
ATOM     19  C   UNL     1      11.705   4.094  23.597  0.00  0.00    +0.132 C 
ATOM     20  N   UNL     1      10.335   3.605  23.549  0.00  0.00    -0.304 N 
ATOM     21  C   UNL     1      10.161   2.218  23.643  0.00  0.00    +0.246 C 
ATOM     22  O   UNL     1      11.118   1.449  23.756  0.00  0.00    -0.270 OA
ATOM     23  C   UNL     1       9.277   4.603  23.613  0.00  0.00    +0.132 C 
ENDBRANCH   1  21
BRANCH   3  24
ATOM     24  N   UNL     1       5.340   2.297  22.560  0.00  0.00    -0.281 N 
ATOM     25  H   UNL     1       5.185   2.173  21.568  0.00  0.00    +0.155 HD
ATOM     26  C   UNL     1       4.639   3.320  23.186  0.00  0.00    +0.248 C 
ATOM     27  O   UNL     1       4.871   3.772  24.302  0.00  0.00    -0.270 OA
BRANCH  26  28
ATOM     28  C   UNL     1       3.572   3.984  22.387  0.00  0.00    +0.037 A 
ATOM     29  C   UNL     1       3.496   5.381  22.450  0.00  0.00    +0.013 A 
ATOM     30  C   UNL     1       2.510   6.071  21.746  0.00  0.00    +0.004 A 
ATOM     31  C   UNL     1       1.583   5.376  20.964  0.00  0.00    -0.050 A 
ATOM     32  C   UNL     1       0.536   6.139  20.209  0.00  0.00    +0.044 C 
ATOM     33  C   UNL     1       1.645   3.975  20.920  0.00  0.00    +0.004 A 
ATOM     34  C   UNL     1       2.635   3.278  21.627  0.00  0.00    +0.013 A 
ENDBRANCH  26  28
ENDBRANCH   3  24
TORSDOF 6
ENDMDL
MODEL 7
REMARK VINA RESULT:      -5.7      4.476      7.168
REMARK  Name = 
REMARK  9 active torsions:
REMARK  status: ('A' for Active; 'I' for Inactive)
REMARK    1  A    between atoms: C_1  and  N_2
REMARK    2  A    between atoms: N_2  and  C_3
REMARK    3  A    between atoms: C_4  and  C_6
REMARK    4  A    between atoms: C_8  and  C_22
REMARK    5  A    between atoms: C_10  and  N_11
REMARK    6  A    between atoms: C_12  and  C_14
REMARK    7  A    between atoms: C_17  and  C_18
REMARK    8  A    between atoms: C_25  and  C_28
REMARK    9  A    between atoms: N_30  and  O_31
REMARK                            x       y       z     vdW  Elec       q    Type
REMARK                         _______ _______ _______ _____ _____    ______ ____
ROOT
ATOM      1  C   UNL     1       4.253   0.718  27.365  0.00  0.00    +0.039 A 
ATOM      2  C   UNL     1       5.453   1.339  27.013  0.00  0.00    +0.036 A 
ATOM      3  C   UNL     1       6.362   0.690  26.178  0.00  0.00    +0.035 A 
ATOM      4  C   UNL     1       6.129  -0.648  25.833  0.00  0.00    +0.032 A 
ATOM      5  C   UNL     1       4.980  -1.347  26.243  0.00  0.00    -0.015 A 
ATOM      6  C   UNL     1       4.034  -0.626  26.994  0.00  0.00    +0.021 A 
ENDROOT
BRANCH   5   7
ATOM      7  C   UNL     1       4.779  -2.773  25.879  0.00  0.00    -0.018 A 
ATOM      8  C   UNL     1       5.866  -3.656  25.742  0.00  0.00    +0.009 A 
ATOM      9  C   UNL     1       5.680  -5.009  25.425  0.00  0.00    +0.014 A 
ATOM     10  C   UNL     1       4.391  -5.512  25.228  0.00  0.00    +0.039 A 
ATOM     11  C   UNL     1       3.300  -4.647  25.306  0.00  0.00    +0.014 A 
ATOM     12  C   UNL     1       3.494  -3.299  25.637  0.00  0.00    +0.009 A 
BRANCH  10  13
ATOM     13  C   UNL     1       4.143  -6.948  24.932  0.00  0.00    +0.267 C 
ATOM     14  N   UNL     1       3.224  -7.586  25.738  0.00  0.00    -0.193 N 
ATOM     15  H   UNL     1       2.528  -7.077  26.270  0.00  0.00    +0.183 HD
ATOM     16  O   UNL     1       4.678  -7.511  23.981  0.00  0.00    -0.268 OA
BRANCH  14  17
ATOM     17  O   UNL     1       2.846  -8.880  25.302  0.00  0.00    -0.295 OA
ATOM     18  H   UNL     1       3.430  -9.014  24.523  0.00  0.00    +0.241 HD
ENDBRANCH  14  17
ENDBRANCH  10  13
ENDBRANCH   5   7
BRANCH   1  21
ATOM     19  C   UNL     1       2.067   1.992  30.232  0.00  0.00    +0.132 C 
ATOM     20  N   UNL     1       3.106   1.235  29.550  0.00  0.00    -0.304 N 
ATOM     21  C   UNL     1       3.190   1.398  28.161  0.00  0.00    +0.246 C 
ATOM     22  O   UNL     1       2.420   2.140  27.545  0.00  0.00    -0.270 OA
ATOM     23  C   UNL     1       4.079   0.549  30.387  0.00  0.00    +0.132 C 
ENDBRANCH   1  21
BRANCH   3  24
ATOM     24  N   UNL     1       7.472   1.428  25.695  0.00  0.00    -0.281 N 
ATOM     25  H   UNL     1       8.156   1.719  26.382  0.00  0.00    +0.155 HD
ATOM     26  C   UNL     1       7.560   2.004  24.433  0.00  0.00    +0.248 C 
ATOM     27  O   UNL     1       6.698   1.965  23.563  0.00  0.00    -0.270 OA
BRANCH  26  28
ATOM     28  C   UNL     1       8.777   2.817  24.155  0.00  0.00    +0.037 A 
ATOM     29  C   UNL     1       8.697   4.195  24.393  0.00  0.00    +0.013 A 
ATOM     30  C   UNL     1       9.789   5.024  24.136  0.00  0.00    +0.004 A 
ATOM     31  C   UNL     1      10.981   4.489  23.638  0.00  0.00    -0.050 A 
ATOM     32  C   UNL     1      12.144   5.399  23.376  0.00  0.00    +0.044 C 
ATOM     33  C   UNL     1      11.052   3.113  23.378  0.00  0.00    +0.004 A 
ATOM     34  C   UNL     1       9.956   2.276  23.635  0.00  0.00    +0.013 A 
ENDBRANCH  26  28
ENDBRANCH   3  24
TORSDOF 6
ENDMDL
MODEL 8
REMARK VINA RESULT:      -5.7      3.909      6.721
REMARK  Name = 
REMARK  9 active torsions:
REMARK  status: ('A' for Active; 'I' for Inactive)
REMARK    1  A    between atoms: C_1  and  N_2
REMARK    2  A    between atoms: N_2  and  C_3
REMARK    3  A    between atoms: C_4  and  C_6
REMARK    4  A    between atoms: C_8  and  C_22
REMARK    5  A    between atoms: C_10  and  N_11
REMARK    6  A    between atoms: C_12  and  C_14
REMARK    7  A    between atoms: C_17  and  C_18
REMARK    8  A    between atoms: C_25  and  C_28
REMARK    9  A    between atoms: N_30  and  O_31
REMARK                            x       y       z     vdW  Elec       q    Type
REMARK                         _______ _______ _______ _____ _____    ______ ____
ROOT
ATOM      1  C   UNL     1       4.274   1.949  26.325  0.00  0.00    +0.039 A 
ATOM      2  C   UNL     1       5.493   2.586  26.081  0.00  0.00    +0.036 A 
ATOM      3  C   UNL     1       6.633   1.836  25.795  0.00  0.00    +0.035 A 
ATOM      4  C   UNL     1       6.574   0.442  25.914  0.00  0.00    +0.032 A 
ATOM      5  C   UNL     1       5.392  -0.241  26.250  0.00  0.00    -0.015 A 
ATOM      6  C   UNL     1       4.237   0.542  26.426  0.00  0.00    +0.021 A 
ENDROOT
BRANCH   5   7
ATOM      7  C   UNL     1       5.373  -1.719  26.393  0.00  0.00    -0.018 A 
ATOM      8  C   UNL     1       5.629  -2.566  25.299  0.00  0.00    +0.009 A 
ATOM      9  C   UNL     1       5.639  -3.962  25.435  0.00  0.00    +0.014 A 
ATOM     10  C   UNL     1       5.382  -4.547  26.677  0.00  0.00    +0.039 A 
ATOM     11  C   UNL     1       5.073  -3.732  27.766  0.00  0.00    +0.014 A 
ATOM     12  C   UNL     1       5.080  -2.338  27.625  0.00  0.00    +0.009 A 
BRANCH  10  13
ATOM     13  C   UNL     1       5.423  -6.020  26.878  0.00  0.00    +0.267 C 
ATOM     14  N   UNL     1       5.787  -6.454  28.135  0.00  0.00    -0.193 N 
ATOM     15  H   UNL     1       5.718  -5.858  28.953  0.00  0.00    +0.183 HD
ATOM     16  O   UNL     1       5.087  -6.800  25.992  0.00  0.00    -0.268 OA
BRANCH  14  17
ATOM     17  O   UNL     1       5.608  -7.841  28.362  0.00  0.00    -0.295 OA
ATOM     18  H   UNL     1       6.008  -8.235  27.556  0.00  0.00    +0.241 HD
ENDBRANCH  14  17
ENDBRANCH  10  13
ENDBRANCH   5   7
BRANCH   1  21
ATOM     19  C   UNL     1       1.390   3.936  27.860  0.00  0.00    +0.132 C 
ATOM     20  N   UNL     1       2.628   3.175  27.789  0.00  0.00    -0.304 N 
ATOM     21  C   UNL     1       2.996   2.692  26.527  0.00  0.00    +0.246 C 
ATOM     22  O   UNL     1       2.305   2.896  25.525  0.00  0.00    -0.270 OA
ATOM     23  C   UNL     1       3.462   3.161  28.983  0.00  0.00    +0.132 C 
ENDBRANCH   1  21
BRANCH   3  24
ATOM     24  N   UNL     1       7.797   2.525  25.368  0.00  0.00    -0.281 N 
ATOM     25  H   UNL     1       8.392   2.900  26.095  0.00  0.00    +0.155 HD
ATOM     26  C   UNL     1       8.042   2.951  24.068  0.00  0.00    +0.248 C 
ATOM     27  O   UNL     1       7.293   2.803  23.110  0.00  0.00    -0.270 OA
BRANCH  26  28
ATOM     28  C   UNL     1       9.287   3.738  23.849  0.00  0.00    +0.037 A 
ATOM     29  C   UNL     1      10.437   3.032  23.474  0.00  0.00    +0.013 A 
ATOM     30  C   UNL     1      11.645   3.698  23.271  0.00  0.00    +0.004 A 
ATOM     31  C   UNL     1      11.724   5.085  23.437  0.00  0.00    -0.050 A 
ATOM     32  C   UNL     1      13.032   5.781  23.207  0.00  0.00    +0.044 C 
ATOM     33  C   UNL     1      10.578   5.788  23.835  0.00  0.00    +0.004 A 
ATOM     34  C   UNL     1       9.362   5.121  24.040  0.00  0.00    +0.013 A 
ENDBRANCH  26  28
ENDBRANCH   3  24
TORSDOF 6
ENDMDL
MODEL 9
REMARK VINA RESULT:      -5.6      5.268      7.894
REMARK  Name = 
REMARK  9 active torsions:
REMARK  status: ('A' for Active; 'I' for Inactive)
REMARK    1  A    between atoms: C_1  and  N_2
REMARK    2  A    between atoms: N_2  and  C_3
REMARK    3  A    between atoms: C_4  and  C_6
REMARK    4  A    between atoms: C_8  and  C_22
REMARK    5  A    between atoms: C_10  and  N_11
REMARK    6  A    between atoms: C_12  and  C_14
REMARK    7  A    between atoms: C_17  and  C_18
REMARK    8  A    between atoms: C_25  and  C_28
REMARK    9  A    between atoms: N_30  and  O_31
REMARK                            x       y       z     vdW  Elec       q    Type
REMARK                         _______ _______ _______ _____ _____    ______ ____
ROOT
ATOM      1  C   UNL     1       3.915  -0.454  27.801  0.00  0.00    +0.039 A 
ATOM      2  C   UNL     1       5.126   0.115  27.401  0.00  0.00    +0.036 A 
ATOM      3  C   UNL     1       5.836  -0.425  26.329  0.00  0.00    +0.035 A 
ATOM      4  C   UNL     1       5.402  -1.633  25.768  0.00  0.00    +0.032 A 
ATOM      5  C   UNL     1       4.238  -2.294  26.201  0.00  0.00    -0.015 A 
ATOM      6  C   UNL     1       3.491  -1.663  27.211  0.00  0.00    +0.021 A 
ENDROOT
BRANCH   5   7
ATOM      7  C   UNL     1       3.822  -3.588  25.601  0.00  0.00    -0.018 A 
ATOM      8  C   UNL     1       3.282  -4.622  26.387  0.00  0.00    +0.009 A 
ATOM      9  C   UNL     1       2.863  -5.834  25.821  0.00  0.00    +0.014 A 
ATOM     10  C   UNL     1       2.985  -6.045  24.445  0.00  0.00    +0.039 A 
ATOM     11  C   UNL     1       3.566  -5.057  23.651  0.00  0.00    +0.014 A 
ATOM     12  C   UNL     1       3.968  -3.843  24.222  0.00  0.00    +0.009 A 
BRANCH  10  13
ATOM     13  C   UNL     1       2.516  -7.298  23.796  0.00  0.00    +0.267 C 
ATOM     14  N   UNL     1       1.982  -7.166  22.531  0.00  0.00    -0.193 N 
ATOM     15  H   UNL     1       2.178  -6.363  21.944  0.00  0.00    +0.183 HD
ATOM     16  O   UNL     1       2.659  -8.394  24.331  0.00  0.00    -0.268 OA
BRANCH  14  17
ATOM     17  O   UNL     1       1.748  -8.387  21.853  0.00  0.00    -0.295 OA
ATOM     18  H   UNL     1       2.627  -8.824  21.904  0.00  0.00    +0.241 HD
ENDBRANCH  14  17
ENDBRANCH  10  13
ENDBRANCH   5   7
BRANCH   1  21
ATOM     19  C   UNL     1       1.285   1.599  29.670  0.00  0.00    +0.132 C 
ATOM     20  N   UNL     1       2.114   1.136  28.567  0.00  0.00    -0.304 N 
ATOM     21  C   UNL     1       3.052   0.138  28.864  0.00  0.00    +0.246 C 
ATOM     22  O   UNL     1       3.175  -0.321  30.002  0.00  0.00    -0.270 OA
ATOM     23  C   UNL     1       1.756   1.598  27.234  0.00  0.00    +0.132 C 
ENDBRANCH   1  21
BRANCH   3  24
ATOM     24  N   UNL     1       6.956   0.293  25.838  0.00  0.00    -0.281 N 
ATOM     25  H   UNL     1       7.567   0.706  26.530  0.00  0.00    +0.155 HD
ATOM     26  C   UNL     1       7.131   0.697  24.520  0.00  0.00    +0.248 C 
ATOM     27  O   UNL     1       6.348   0.500  23.597  0.00  0.00    -0.270 OA
BRANCH  26  28
ATOM     28  C   UNL     1       8.336   1.522  24.229  0.00  0.00    +0.037 A 
ATOM     29  C   UNL     1       8.127   2.847  23.827  0.00  0.00    +0.013 A 
ATOM     30  C   UNL     1       9.206   3.674  23.517  0.00  0.00    +0.004 A 
ATOM     31  C   UNL     1      10.515   3.192  23.608  0.00  0.00    -0.050 A 
ATOM     32  C   UNL     1      11.660   4.101  23.277  0.00  0.00    +0.044 C 
ATOM     33  C   UNL     1      10.723   1.857  23.989  0.00  0.00    +0.004 A 
ATOM     34  C   UNL     1       9.640   1.023  24.300  0.00  0.00    +0.013 A 
ENDBRANCH  26  28
ENDBRANCH   3  24
TORSDOF 6
ENDMDL
