MODEL 1
REMARK VINA RESULT:      -5.7      0.000      0.000
REMARK  Name = 
REMARK  16 active torsions:
REMARK  status: ('A' for Active; 'I' for Inactive)
REMARK    1  A    between atoms: C_1  and  C_2
REMARK    2  A    between atoms: C_2  and  C_3
REMARK    3  A    between atoms: C_2  and  C_4
REMARK    4  A    between atoms: C_2  and  C_10
REMARK    5  A    between atoms: C_4  and  O_5
REMARK    6  A    between atoms: O_5  and  P_6
REMARK    7  A    between atoms: P_6  and  O_7
REMARK    8  A    between atoms: P_6  and  O_8
REMARK    9  A    between atoms: C_10  and  O_12
REMARK   10  A    between atoms: C_10  and  C_13
REMARK   11  A    between atoms: N_15  and  C_16
REMARK   12  A    between atoms: C_16  and  C_17
REMARK   13  A    between atoms: C_17  and  C_18
REMARK   14  A    between atoms: N_20  and  C_21
REMARK   15  A    between atoms: C_21  and  C_22
REMARK   16  A    between atoms: C_22  and  S_23
REMARK                            x       y       z     vdW  Elec       q    Type
REMARK                         _______ _______ _______ _____ _____    ______ ____
ROOT
ATOM      1  C   UNL     1       8.912  -3.075  24.463  0.00  0.00    +0.208 C 
ENDROOT
BRANCH   1   2
ATOM      2  C   UNL     1       9.867  -2.094  23.745  0.00  0.00    +0.242 C 
ATOM      3  N   UNL     1       9.958  -0.849  24.360  0.00  0.00    -0.313 N 
ATOM      4  H   UNL     1       9.980  -0.899  25.370  0.00  0.00    +0.149 HD
ATOM      5  O   UNL     1      10.522  -2.355  22.739  0.00  0.00    -0.273 OA
BRANCH   3   6
ATOM      6  C   UNL     1      10.774   0.143  23.687  0.00  0.00    +0.113 C 
BRANCH   6   7
ATOM      7  C   UNL     1       9.977   1.143  22.868  0.00  0.00    +0.114 C 
BRANCH   7   8
ATOM      8  C   UNL     1       9.553   2.299  23.755  0.00  0.00    +0.215 C 
ATOM      9  N   UNL     1       9.958   3.530  23.295  0.00  0.00    -0.314 N 
ATOM     10  H   UNL     1      10.584   3.592  22.502  0.00  0.00    +0.149 HD
ATOM     11  O   UNL     1       8.904   2.160  24.787  0.00  0.00    -0.276 OA
BRANCH   9  12
ATOM     12  C   UNL     1       9.677   4.738  24.056  0.00  0.00    +0.114 C 
BRANCH  12  13
ATOM     13  C   UNL     1      10.576   5.919  23.681  0.00  0.00    +0.084 C 
BRANCH  13  14
ATOM     14  S   UNL     1      12.292   5.381  23.383  0.00  0.00    -0.177 S 
ATOM     15  H   UNL     1      12.096   4.096  23.709  0.00  0.00    +0.102 HD
ENDBRANCH  13  14
ENDBRANCH  12  13
ENDBRANCH   9  12
ENDBRANCH   7   8
ENDBRANCH   6   7
ENDBRANCH   3   6
ENDBRANCH   1   2
BRANCH   1  17
ATOM     16  C   UNL     1       7.539  -4.414  22.774  0.00  0.00    +0.016 C 
ATOM     17  C   UNL     1       7.505  -3.261  23.808  0.00  0.00    +0.024 C 
ATOM     18  C   UNL     1       7.046  -2.000  23.048  0.00  0.00    +0.016 C 
BRANCH  17  19
ATOM     19  C   UNL     1       6.461  -3.666  24.878  0.00  0.00    +0.181 C 
BRANCH  19  20
ATOM     20  O   UNL     1       6.599  -5.014  25.279  0.00  0.00    -0.286 OA
BRANCH  20  21
ATOM     21  P   UNL     1       6.668  -5.215  26.996  0.00  0.00    +0.472 P 
ATOM     22  O   UNL     1       6.731  -5.394  28.533  0.00  0.00    -0.228 OA
BRANCH  21  23
ATOM     23  O   UNL     1       8.144  -5.879  26.765  0.00  0.00    -0.303 OA
ATOM     24  H   UNL     1       8.143  -6.426  25.959  0.00  0.00    +0.222 HD
ENDBRANCH  21  23
BRANCH  21  25
ATOM     25  O   UNL     1       5.868  -6.613  26.712  0.00  0.00    -0.303 OA
ATOM     26  H   UNL     1       6.193  -6.910  25.837  0.00  0.00    +0.222 HD
ENDBRANCH  21  25
ENDBRANCH  20  21
ENDBRANCH  19  20
ENDBRANCH  17  19
ENDBRANCH   1  17
BRANCH   1  27
ATOM     27  O   UNL     1       9.628  -4.311  24.589  0.00  0.00    -0.382 OA
ATOM     28  H   UNL     1      10.543  -4.166  24.302  0.00  0.00    +0.210 HD
ENDBRANCH   1  27
TORSDOF 14
ENDMDL
MODEL 2
REMARK VINA RESULT:      -5.6      4.557      7.053
REMARK  Name = 
REMARK  16 active torsions:
REMARK  status: ('A' for Active; 'I' for Inactive)
REMARK    1  A    between atoms: C_1  and  C_2
REMARK    2  A    between atoms: C_2  and  C_3
REMARK    3  A    between atoms: C_2  and  C_4
REMARK    4  A    between atoms: C_2  and  C_10
REMARK    5  A    between atoms: C_4  and  O_5
REMARK    6  A    between atoms: O_5  and  P_6
REMARK    7  A    between atoms: P_6  and  O_7
REMARK    8  A    between atoms: P_6  and  O_8
REMARK    9  A    between atoms: C_10  and  O_12
REMARK   10  A    between atoms: C_10  and  C_13
REMARK   11  A    between atoms: N_15  and  C_16
REMARK   12  A    between atoms: C_16  and  C_17
REMARK   13  A    between atoms: C_17  and  C_18
REMARK   14  A    between atoms: N_20  and  C_21
REMARK   15  A    between atoms: C_21  and  C_22
REMARK   16  A    between atoms: C_22  and  S_23
REMARK                            x       y       z     vdW  Elec       q    Type
REMARK                         _______ _______ _______ _____ _____    ______ ____
ROOT
ATOM      1  C   UNL     1       9.209  -2.514  24.032  0.00  0.00    +0.208 C 
ENDROOT
BRANCH   1   2
ATOM      2  C   UNL     1       8.278  -2.904  22.862  0.00  0.00    +0.242 C 
ATOM      3  N   UNL     1       7.596  -4.101  23.062  0.00  0.00    -0.313 N 
ATOM      4  H   UNL     1       7.264  -4.221  24.011  0.00  0.00    +0.149 HD
ATOM      5  O   UNL     1       8.106  -2.239  21.844  0.00  0.00    -0.273 OA
BRANCH   3   6
ATOM      6  C   UNL     1       6.770  -4.563  21.964  0.00  0.00    +0.113 C 
BRANCH   6   7
ATOM      7  C   UNL     1       6.244  -5.977  22.143  0.00  0.00    +0.114 C 
BRANCH   7   8
ATOM      8  C   UNL     1       4.917  -5.933  22.878  0.00  0.00    +0.215 C 
ATOM      9  N   UNL     1       4.751  -6.952  23.786  0.00  0.00    -0.314 N 
ATOM     10  H   UNL     1       5.425  -7.706  23.829  0.00  0.00    +0.149 HD
ATOM     11  O   UNL     1       4.066  -5.068  22.692  0.00  0.00    -0.276 OA
BRANCH   9  12
ATOM     12  C   UNL     1       3.513  -7.084  24.538  0.00  0.00    +0.114 C 
BRANCH  12  13
ATOM     13  C   UNL     1       3.602  -6.536  25.965  0.00  0.00    +0.084 C 
BRANCH  13  14
ATOM     14  S   UNL     1       2.473  -5.126  26.208  0.00  0.00    -0.177 S 
ATOM     15  H   UNL     1       2.503  -5.150  27.548  0.00  0.00    +0.102 HD
ENDBRANCH  13  14
ENDBRANCH  12  13
ENDBRANCH   9  12
ENDBRANCH   7   8
ENDBRANCH   6   7
ENDBRANCH   3   6
ENDBRANCH   1   2
BRANCH   1  17
ATOM     16  C   UNL     1       7.195  -1.104  24.731  0.00  0.00    +0.016 C 
ATOM     17  C   UNL     1       8.542  -1.713  25.197  0.00  0.00    +0.024 C 
ATOM     18  C   UNL     1       9.418  -0.536  25.671  0.00  0.00    +0.016 C 
BRANCH  17  19
ATOM     19  C   UNL     1       8.208  -2.657  26.379  0.00  0.00    +0.181 C 
BRANCH  19  20
ATOM     20  O   UNL     1       7.240  -3.627  26.034  0.00  0.00    -0.286 OA
BRANCH  20  21
ATOM     21  P   UNL     1       7.215  -4.983  27.108  0.00  0.00    +0.472 P 
ATOM     22  O   UNL     1       7.193  -6.196  28.070  0.00  0.00    -0.228 OA
BRANCH  21  23
ATOM     23  O   UNL     1       8.846  -4.977  27.003  0.00  0.00    -0.303 OA
ATOM     24  H   UNL     1       9.234  -4.654  27.835  0.00  0.00    +0.222 HD
ENDBRANCH  21  23
BRANCH  21  25
ATOM     25  O   UNL     1       7.016  -5.866  25.744  0.00  0.00    -0.303 OA
ATOM     26  H   UNL     1       7.925  -6.116  25.478  0.00  0.00    +0.222 HD
ENDBRANCH  21  25
ENDBRANCH  20  21
ENDBRANCH  19  20
ENDBRANCH  17  19
ENDBRANCH   1  17
BRANCH   1  27
ATOM     27  O   UNL     1       9.821  -3.730  24.480  0.00  0.00    -0.382 OA
ATOM     28  H   UNL     1       9.300  -4.477  24.145  0.00  0.00    +0.210 HD
ENDBRANCH   1  27
TORSDOF 14
ENDMDL
MODEL 3
REMARK VINA RESULT:      -5.5      3.985      6.963
REMARK  Name = 
REMARK  16 active torsions:
REMARK  status: ('A' for Active; 'I' for Inactive)
REMARK    1  A    between atoms: C_1  and  C_2
REMARK    2  A    between atoms: C_2  and  C_3
REMARK    3  A    between atoms: C_2  and  C_4
REMARK    4  A    between atoms: C_2  and  C_10
REMARK    5  A    between atoms: C_4  and  O_5
REMARK    6  A    between atoms: O_5  and  P_6
REMARK    7  A    between atoms: P_6  and  O_7
REMARK    8  A    between atoms: P_6  and  O_8
REMARK    9  A    between atoms: C_10  and  O_12
REMARK   10  A    between atoms: C_10  and  C_13
REMARK   11  A    between atoms: N_15  and  C_16
REMARK   12  A    between atoms: C_16  and  C_17
REMARK   13  A    between atoms: C_17  and  C_18
REMARK   14  A    between atoms: N_20  and  C_21
REMARK   15  A    between atoms: C_21  and  C_22
REMARK   16  A    between atoms: C_22  and  S_23
REMARK                            x       y       z     vdW  Elec       q    Type
REMARK                         _______ _______ _______ _____ _____    ______ ____
ROOT
ATOM      1  C   UNL     1      10.332   0.090  24.074  0.00  0.00    +0.208 C 
ENDROOT
BRANCH   1   2
ATOM      2  C   UNL     1      10.070  -1.365  23.624  0.00  0.00    +0.242 C 
ATOM      3  N   UNL     1       9.342  -2.114  24.543  0.00  0.00    -0.313 N 
ATOM      4  H   UNL     1       8.590  -1.596  24.980  0.00  0.00    +0.149 HD
ATOM      5  O   UNL     1      10.430  -1.849  22.554  0.00  0.00    -0.273 OA
BRANCH   3   6
ATOM      6  C   UNL     1       9.135  -3.511  24.215  0.00  0.00    +0.113 C 
BRANCH   6   7
ATOM      7  C   UNL     1       9.404  -4.461  25.370  0.00  0.00    +0.114 C 
BRANCH   7   8
ATOM      8  C   UNL     1       8.250  -4.399  26.354  0.00  0.00    +0.215 C 
ATOM      9  N   UNL     1       7.892  -5.622  26.869  0.00  0.00    -0.314 N 
ATOM     10  H   UNL     1       8.307  -6.468  26.497  0.00  0.00    +0.149 HD
ATOM     11  O   UNL     1       7.686  -3.356  26.673  0.00  0.00    -0.276 OA
BRANCH   9  12
ATOM     12  C   UNL     1       6.771  -5.743  27.787  0.00  0.00    +0.114 C 
BRANCH  12  13
ATOM     13  C   UNL     1       5.460  -6.139  27.103  0.00  0.00    +0.084 C 
BRANCH  13  14
ATOM     14  S   UNL     1       4.299  -4.735  27.029  0.00  0.00    -0.177 S 
ATOM     15  H   UNL     1       3.986  -4.742  28.333  0.00  0.00    +0.102 HD
ENDBRANCH  13  14
ENDBRANCH  12  13
ENDBRANCH   9  12
ENDBRANCH   7   8
ENDBRANCH   6   7
ENDBRANCH   3   6
ENDBRANCH   1   2
BRANCH   1  17
ATOM     16  C   UNL     1      10.008   1.493  21.963  0.00  0.00    +0.016 C 
ATOM     17  C   UNL     1       9.461   1.186  23.380  0.00  0.00    +0.024 C 
ATOM     18  C   UNL     1       9.474   2.519  24.155  0.00  0.00    +0.016 C 
BRANCH  17  19
ATOM     19  C   UNL     1       8.010   0.681  23.186  0.00  0.00    +0.181 C 
BRANCH  19  20
ATOM     20  O   UNL     1       7.145   1.124  24.212  0.00  0.00    -0.286 OA
BRANCH  20  21
ATOM     21  P   UNL     1       6.044  -0.094  24.756  0.00  0.00    +0.472 P 
ATOM     22  O   UNL     1       5.058  -1.185  25.242  0.00  0.00    -0.228 OA
BRANCH  21  23
ATOM     23  O   UNL     1       7.225  -0.571  25.781  0.00  0.00    -0.303 OA
ATOM     24  H   UNL     1       7.888  -1.100  25.304  0.00  0.00    +0.222 HD
ENDBRANCH  21  23
BRANCH  21  25
ATOM     25  O   UNL     1       6.625  -0.965  23.498  0.00  0.00    -0.303 OA
ATOM     26  H   UNL     1       5.889  -0.990  22.854  0.00  0.00    +0.222 HD
ENDBRANCH  21  25
ENDBRANCH  20  21
ENDBRANCH  19  20
ENDBRANCH  17  19
ENDBRANCH   1  17
BRANCH   1  27
ATOM     27  O   UNL     1      10.193   0.099  25.501  0.00  0.00    -0.382 OA
ATOM     28  H   UNL     1      11.054   0.318  25.891  0.00  0.00    +0.210 HD
ENDBRANCH   1  27
TORSDOF 14
ENDMDL
MODEL 4
REMARK VINA RESULT:      -5.5      1.611      1.702
REMARK  Name = 
REMARK  16 active torsions:
REMARK  status: ('A' for Active; 'I' for Inactive)
REMARK    1  A    between atoms: C_1  and  C_2
REMARK    2  A    between atoms: C_2  and  C_3
REMARK    3  A    between atoms: C_2  and  C_4
REMARK    4  A    between atoms: C_2  and  C_10
REMARK    5  A    between atoms: C_4  and  O_5
REMARK    6  A    between atoms: O_5  and  P_6
REMARK    7  A    between atoms: P_6  and  O_7
REMARK    8  A    between atoms: P_6  and  O_8
REMARK    9  A    between atoms: C_10  and  O_12
REMARK   10  A    between atoms: C_10  and  C_13
REMARK   11  A    between atoms: N_15  and  C_16
REMARK   12  A    between atoms: C_16  and  C_17
REMARK   13  A    between atoms: C_17  and  C_18
REMARK   14  A    between atoms: N_20  and  C_21
REMARK   15  A    between atoms: C_21  and  C_22
REMARK   16  A    between atoms: C_22  and  S_23
REMARK                            x       y       z     vdW  Elec       q    Type
REMARK                         _______ _______ _______ _____ _____    ______ ____
ROOT
ATOM      1  C   UNL     1       8.600  -2.996  24.636  0.00  0.00    +0.208 C 
ENDROOT
BRANCH   1   2
ATOM      2  C   UNL     1       9.561  -2.186  23.737  0.00  0.00    +0.242 C 
ATOM      3  N   UNL     1       9.401  -0.807  23.843  0.00  0.00    -0.313 N 
ATOM      4  H   UNL     1       9.238  -0.492  24.791  0.00  0.00    +0.149 HD
ATOM      5  O   UNL     1      10.418  -2.670  23.002  0.00  0.00    -0.273 OA
BRANCH   3   6
ATOM      6  C   UNL     1      10.217   0.006  22.962  0.00  0.00    +0.113 C 
BRANCH   6   7
ATOM      7  C   UNL     1       9.514   0.423  21.682  0.00  0.00    +0.114 C 
BRANCH   7   8
ATOM      8  C   UNL     1       8.326   1.304  22.022  0.00  0.00    +0.215 C 
ATOM      9  N   UNL     1       8.552   2.644  21.814  0.00  0.00    -0.314 N 
ATOM     10  H   UNL     1       9.480   2.970  21.577  0.00  0.00    +0.149 HD
ATOM     11  O   UNL     1       7.256   0.870  22.439  0.00  0.00    -0.276 OA
BRANCH   9  12
ATOM     12  C   UNL     1       7.532   3.630  22.139  0.00  0.00    +0.114 C 
BRANCH  12  13
ATOM     13  C   UNL     1       7.991   4.670  23.165  0.00  0.00    +0.084 C 
BRANCH  13  14
ATOM     14  S   UNL     1       8.478   3.885  24.736  0.00  0.00    -0.177 S 
ATOM     15  H   UNL     1       8.143   2.637  24.381  0.00  0.00    +0.102 HD
ENDBRANCH  13  14
ENDBRANCH  12  13
ENDBRANCH   9  12
ENDBRANCH   7   8
ENDBRANCH   6   7
ENDBRANCH   3   6
ENDBRANCH   1   2
BRANCH   1  17
ATOM     16  C   UNL     1       7.738  -4.997  23.302  0.00  0.00    +0.016 C 
ATOM     17  C   UNL     1       7.363  -3.626  23.918  0.00  0.00    +0.024 C 
ATOM     18  C   UNL     1       6.851  -2.747  22.760  0.00  0.00    +0.016 C 
BRANCH  17  19
ATOM     19  C   UNL     1       6.230  -3.903  24.938  0.00  0.00    +0.181 C 
BRANCH  19  20
ATOM     20  O   UNL     1       6.264  -5.227  25.433  0.00  0.00    -0.286 OA
BRANCH  20  21
ATOM     21  P   UNL     1       6.427  -5.312  27.153  0.00  0.00    +0.472 P 
ATOM     22  O   UNL     1       6.573  -5.389  28.692  0.00  0.00    -0.228 OA
BRANCH  21  23
ATOM     23  O   UNL     1       7.939  -5.874  26.887  0.00  0.00    -0.303 OA
ATOM     24  H   UNL     1       8.054  -6.741  27.315  0.00  0.00    +0.222 HD
ENDBRANCH  21  23
BRANCH  21  25
ATOM     25  O   UNL     1       5.729  -6.783  26.992  0.00  0.00    -0.303 OA
ATOM     26  H   UNL     1       6.037  -7.109  26.122  0.00  0.00    +0.222 HD
ENDBRANCH  21  25
ENDBRANCH  20  21
ENDBRANCH  19  20
ENDBRANCH  17  19
ENDBRANCH   1  17
BRANCH   1  27
ATOM     27  O   UNL     1       9.407  -3.974  25.305  0.00  0.00    -0.382 OA
ATOM     28  H   UNL     1      10.339  -3.791  25.107  0.00  0.00    +0.210 HD
ENDBRANCH   1  27
TORSDOF 14
ENDMDL
MODEL 5
REMARK VINA RESULT:      -5.4      2.504      3.865
REMARK  Name = 
REMARK  16 active torsions:
REMARK  status: ('A' for Active; 'I' for Inactive)
REMARK    1  A    between atoms: C_1  and  C_2
REMARK    2  A    between atoms: C_2  and  C_3
REMARK    3  A    between atoms: C_2  and  C_4
REMARK    4  A    between atoms: C_2  and  C_10
REMARK    5  A    between atoms: C_4  and  O_5
REMARK    6  A    between atoms: O_5  and  P_6
REMARK    7  A    between atoms: P_6  and  O_7
REMARK    8  A    between atoms: P_6  and  O_8
REMARK    9  A    between atoms: C_10  and  O_12
REMARK   10  A    between atoms: C_10  and  C_13
REMARK   11  A    between atoms: N_15  and  C_16
REMARK   12  A    between atoms: C_16  and  C_17
REMARK   13  A    between atoms: C_17  and  C_18
REMARK   14  A    between atoms: N_20  and  C_21
REMARK   15  A    between atoms: C_21  and  C_22
REMARK   16  A    between atoms: C_22  and  S_23
REMARK                            x       y       z     vdW  Elec       q    Type
REMARK                         _______ _______ _______ _____ _____    ______ ____
ROOT
ATOM      1  C   UNL     1       5.785  -5.466  22.629  0.00  0.00    +0.208 C 
ENDROOT
BRANCH   1   2
ATOM      2  C   UNL     1       6.164  -4.085  22.051  0.00  0.00    +0.242 C 
ATOM      3  N   UNL     1       7.286  -3.516  22.647  0.00  0.00    -0.313 N 
ATOM      4  H   UNL     1       8.022  -4.183  22.840  0.00  0.00    +0.149 HD
ATOM      5  O   UNL     1       5.576  -3.517  21.135  0.00  0.00    -0.273 OA
BRANCH   3   6
ATOM      6  C   UNL     1       7.644  -2.182  22.204  0.00  0.00    +0.113 C 
BRANCH   6   7
ATOM      7  C   UNL     1       9.139  -1.967  22.047  0.00  0.00    +0.114 C 
BRANCH   7   8
ATOM      8  C   UNL     1       9.687  -1.299  23.295  0.00  0.00    +0.215 C 
ATOM      9  N   UNL     1      10.194  -0.041  23.075  0.00  0.00    -0.314 N 
ATOM     10  H   UNL     1      10.285   0.310  22.129  0.00  0.00    +0.149 HD
ATOM     11  O   UNL     1       9.677  -1.823  24.405  0.00  0.00    -0.276 OA
BRANCH   9  12
ATOM     12  C   UNL     1      10.805   0.716  24.157  0.00  0.00    +0.114 C 
BRANCH  12  13
ATOM     13  C   UNL     1      10.662   2.232  24.001  0.00  0.00    +0.084 C 
BRANCH  13  14
ATOM     14  S   UNL     1       9.157   2.666  23.068  0.00  0.00    -0.177 S 
ATOM     15  H   UNL     1       8.289   2.314  24.028  0.00  0.00    +0.102 HD
ENDBRANCH  13  14
ENDBRANCH  12  13
ENDBRANCH   9  12
ENDBRANCH   7   8
ENDBRANCH   6   7
ENDBRANCH   3   6
ENDBRANCH   1   2
BRANCH   1  17
ATOM     16  C   UNL     1       4.026  -6.700  24.013  0.00  0.00    +0.016 C 
ATOM     17  C   UNL     1       4.934  -5.447  23.940  0.00  0.00    +0.024 C 
ATOM     18  C   UNL     1       4.000  -4.221  24.010  0.00  0.00    +0.016 C 
BRANCH  17  19
ATOM     19  C   UNL     1       5.855  -5.504  25.184  0.00  0.00    +0.181 C 
BRANCH  19  20
ATOM     20  O   UNL     1       7.214  -5.686  24.837  0.00  0.00    -0.286 OA
BRANCH  20  21
ATOM     21  P   UNL     1       8.310  -4.925  25.938  0.00  0.00    +0.472 P 
ATOM     22  O   UNL     1       9.291  -4.244  26.924  0.00  0.00    -0.228 OA
BRANCH  21  23
ATOM     23  O   UNL     1       7.517  -3.532  25.618  0.00  0.00    -0.303 OA
ATOM     24  H   UNL     1       8.075  -2.768  25.849  0.00  0.00    +0.222 HD
ENDBRANCH  21  23
BRANCH  21  25
ATOM     25  O   UNL     1       9.291  -4.799  24.635  0.00  0.00    -0.303 OA
ATOM     26  H   UNL     1      10.186  -5.002  24.979  0.00  0.00    +0.222 HD
ENDBRANCH  21  25
ENDBRANCH  20  21
ENDBRANCH  19  20
ENDBRANCH  17  19
ENDBRANCH   1  17
BRANCH   1  27
ATOM     27  O   UNL     1       5.142  -6.183  21.567  0.00  0.00    -0.382 OA
ATOM     28  H   UNL     1       5.772  -6.827  21.207  0.00  0.00    +0.210 HD
ENDBRANCH   1  27
TORSDOF 14
ENDMDL
MODEL 6
REMARK VINA RESULT:      -5.4      3.913      6.803
REMARK  Name = 
REMARK  16 active torsions:
REMARK  status: ('A' for Active; 'I' for Inactive)
REMARK    1  A    between atoms: C_1  and  C_2
REMARK    2  A    between atoms: C_2  and  C_3
REMARK    3  A    between atoms: C_2  and  C_4
REMARK    4  A    between atoms: C_2  and  C_10
REMARK    5  A    between atoms: C_4  and  O_5
REMARK    6  A    between atoms: O_5  and  P_6
REMARK    7  A    between atoms: P_6  and  O_7
REMARK    8  A    between atoms: P_6  and  O_8
REMARK    9  A    between atoms: C_10  and  O_12
REMARK   10  A    between atoms: C_10  and  C_13
REMARK   11  A    between atoms: N_15  and  C_16
REMARK   12  A    between atoms: C_16  and  C_17
REMARK   13  A    between atoms: C_17  and  C_18
REMARK   14  A    between atoms: N_20  and  C_21
REMARK   15  A    between atoms: C_21  and  C_22
REMARK   16  A    between atoms: C_22  and  S_23
REMARK                            x       y       z     vdW  Elec       q    Type
REMARK                         _______ _______ _______ _____ _____    ______ ____
ROOT
ATOM      1  C   UNL     1       9.373  -1.571  22.629  0.00  0.00    +0.208 C 
ENDROOT
BRANCH   1   2
ATOM      2  C   UNL     1       8.879  -2.816  23.399  0.00  0.00    +0.242 C 
ATOM      3  N   UNL     1       9.831  -3.358  24.258  0.00  0.00    -0.313 N 
ATOM      4  H   UNL     1      10.369  -2.660  24.755  0.00  0.00    +0.149 HD
ATOM      5  O   UNL     1       7.755  -3.301  23.311  0.00  0.00    -0.273 OA
BRANCH   3   6
ATOM      6  C   UNL     1       9.456  -4.577  24.948  0.00  0.00    +0.113 C 
BRANCH   6   7
ATOM      7  C   UNL     1       9.035  -4.364  26.391  0.00  0.00    +0.114 C 
BRANCH   7   8
ATOM      8  C   UNL     1       7.754  -5.132  26.663  0.00  0.00    +0.215 C 
ATOM      9  N   UNL     1       6.861  -5.109  25.619  0.00  0.00    -0.314 N 
ATOM     10  H   UNL     1       7.035  -4.515  24.817  0.00  0.00    +0.149 HD
ATOM     11  O   UNL     1       7.531  -5.728  27.712  0.00  0.00    -0.276 OA
BRANCH   9  12
ATOM     12  C   UNL     1       5.562  -5.754  25.736  0.00  0.00    +0.114 C 
BRANCH  12  13
ATOM     13  C   UNL     1       4.867  -5.980  24.391  0.00  0.00    +0.084 C 
BRANCH  13  14
ATOM     14  S   UNL     1       4.253  -4.415  23.689  0.00  0.00    -0.177 S 
ATOM     15  H   UNL     1       5.257  -4.248  22.816  0.00  0.00    +0.102 HD
ENDBRANCH  13  14
ENDBRANCH  12  13
ENDBRANCH   9  12
ENDBRANCH   7   8
ENDBRANCH   6   7
ENDBRANCH   3   6
ENDBRANCH   1   2
BRANCH   1  17
ATOM     16  C   UNL     1       9.745   0.954  22.487  0.00  0.00    +0.016 C 
ATOM     17  C   UNL     1       9.236  -0.206  23.379  0.00  0.00    +0.024 C 
ATOM     18  C   UNL     1      10.072  -0.167  24.674  0.00  0.00    +0.016 C 
BRANCH  17  19
ATOM     19  C   UNL     1       7.747   0.098  23.680  0.00  0.00    +0.181 C 
BRANCH  19  20
ATOM     20  O   UNL     1       7.440  -0.029  25.054  0.00  0.00    -0.286 OA
BRANCH  20  21
ATOM     21  P   UNL     1       5.843  -0.624  25.348  0.00  0.00    +0.472 P 
ATOM     22  O   UNL     1       4.413  -1.157  25.612  0.00  0.00    -0.228 OA
BRANCH  21  23
ATOM     23  O   UNL     1       6.551  -2.022  25.814  0.00  0.00    -0.303 OA
ATOM     24  H   UNL     1       7.280  -2.246  25.208  0.00  0.00    +0.222 HD
ENDBRANCH  21  23
BRANCH  21  25
ATOM     25  O   UNL     1       5.859  -1.011  23.759  0.00  0.00    -0.303 OA
ATOM     26  H   UNL     1       6.534  -0.419  23.367  0.00  0.00    +0.222 HD
ENDBRANCH  21  25
ENDBRANCH  20  21
ENDBRANCH  19  20
ENDBRANCH  17  19
ENDBRANCH   1  17
BRANCH   1  27
ATOM     27  O   UNL     1      10.723  -1.850  22.237  0.00  0.00    -0.382 OA
ATOM     28  H   UNL     1      10.800  -1.708  21.281  0.00  0.00    +0.210 HD
ENDBRANCH   1  27
TORSDOF 14
ENDMDL
MODEL 7
REMARK VINA RESULT:      -5.2      2.582      3.543
REMARK  Name = 
REMARK  16 active torsions:
REMARK  status: ('A' for Active; 'I' for Inactive)
REMARK    1  A    between atoms: C_1  and  C_2
REMARK    2  A    between atoms: C_2  and  C_3
REMARK    3  A    between atoms: C_2  and  C_4
REMARK    4  A    between atoms: C_2  and  C_10
REMARK    5  A    between atoms: C_4  and  O_5
REMARK    6  A    between atoms: O_5  and  P_6
REMARK    7  A    between atoms: P_6  and  O_7
REMARK    8  A    between atoms: P_6  and  O_8
REMARK    9  A    between atoms: C_10  and  O_12
REMARK   10  A    between atoms: C_10  and  C_13
REMARK   11  A    between atoms: N_15  and  C_16
REMARK   12  A    between atoms: C_16  and  C_17
REMARK   13  A    between atoms: C_17  and  C_18
REMARK   14  A    between atoms: N_20  and  C_21
REMARK   15  A    between atoms: C_21  and  C_22
REMARK   16  A    between atoms: C_22  and  S_23
REMARK                            x       y       z     vdW  Elec       q    Type
REMARK                         _______ _______ _______ _____ _____    ______ ____
ROOT
ATOM      1  C   UNL     1       8.906  -3.812  25.372  0.00  0.00    +0.208 C 
ENDROOT
BRANCH   1   2
ATOM      2  C   UNL     1       9.262  -2.460  24.714  0.00  0.00    +0.242 C 
ATOM      3  N   UNL     1       9.781  -2.582  23.428  0.00  0.00    -0.313 N 
ATOM      4  H   UNL     1       9.317  -3.288  22.872  0.00  0.00    +0.149 HD
ATOM      5  O   UNL     1       9.096  -1.358  25.229  0.00  0.00    -0.273 OA
BRANCH   3   6
ATOM      6  C   UNL     1      10.212  -1.354  22.789  0.00  0.00    +0.113 C 
BRANCH   6   7
ATOM      7  C   UNL     1       9.327  -0.917  21.635  0.00  0.00    +0.114 C 
BRANCH   7   8
ATOM      8  C   UNL     1       8.809   0.485  21.898  0.00  0.00    +0.215 C 
ATOM      9  N   UNL     1       8.666   0.783  23.232  0.00  0.00    -0.314 N 
ATOM     10  H   UNL     1       8.788   0.058  23.928  0.00  0.00    +0.149 HD
ATOM     11  O   UNL     1       8.545   1.288  21.008  0.00  0.00    -0.276 OA
BRANCH   9  12
ATOM     12  C   UNL     1       8.132   2.068  23.654  0.00  0.00    +0.114 C 
BRANCH  12  13
ATOM     13  C   UNL     1       9.131   2.917  24.445  0.00  0.00    +0.084 C 
BRANCH  13  14
ATOM     14  S   UNL     1      10.658   3.206  23.492  0.00  0.00    -0.177 S 
ATOM     15  H   UNL     1      11.188   1.992  23.702  0.00  0.00    +0.102 HD
ENDBRANCH  13  14
ENDBRANCH  12  13
ENDBRANCH   9  12
ENDBRANCH   7   8
ENDBRANCH   6   7
ENDBRANCH   3   6
ENDBRANCH   1   2
BRANCH   1  17
ATOM     16  C   UNL     1       6.926  -2.859  26.676  0.00  0.00    +0.016 C 
ATOM     17  C   UNL     1       7.403  -4.010  25.755  0.00  0.00    +0.024 C 
ATOM     18  C   UNL     1       7.168  -5.322  26.530  0.00  0.00    +0.016 C 
BRANCH  17  19
ATOM     19  C   UNL     1       6.511  -3.954  24.490  0.00  0.00    +0.181 C 
BRANCH  19  20
ATOM     20  O   UNL     1       6.437  -5.202  23.830  0.00  0.00    -0.286 OA
BRANCH  20  21
ATOM     21  P   UNL     1       6.162  -5.062  22.128  0.00  0.00    +0.472 P 
ATOM     22  O   UNL     1       5.915  -4.937  20.605  0.00  0.00    -0.228 OA
BRANCH  21  23
ATOM     23  O   UNL     1       7.054  -6.423  21.968  0.00  0.00    -0.303 OA
ATOM     24  H   UNL     1       7.997  -6.222  22.100  0.00  0.00    +0.222 HD
ENDBRANCH  21  23
BRANCH  21  25
ATOM     25  O   UNL     1       7.465  -4.073  22.153  0.00  0.00    -0.303 OA
ATOM     26  H   UNL     1       8.051  -4.420  21.450  0.00  0.00    +0.222 HD
ENDBRANCH  21  25
ENDBRANCH  20  21
ENDBRANCH  19  20
ENDBRANCH  17  19
ENDBRANCH   1  17
BRANCH   1  27
ATOM     27  O   UNL     1       9.385  -4.830  24.483  0.00  0.00    -0.382 OA
ATOM     28  H   UNL     1      10.274  -4.581  24.184  0.00  0.00    +0.210 HD
ENDBRANCH   1  27
TORSDOF 14
ENDMDL
MODEL 8
REMARK VINA RESULT:      -5.2      2.748      4.157
REMARK  Name = 
REMARK  16 active torsions:
REMARK  status: ('A' for Active; 'I' for Inactive)
REMARK    1  A    between atoms: C_1  and  C_2
REMARK    2  A    between atoms: C_2  and  C_3
REMARK    3  A    between atoms: C_2  and  C_4
REMARK    4  A    between atoms: C_2  and  C_10
REMARK    5  A    between atoms: C_4  and  O_5
REMARK    6  A    between atoms: O_5  and  P_6
REMARK    7  A    between atoms: P_6  and  O_7
REMARK    8  A    between atoms: P_6  and  O_8
REMARK    9  A    between atoms: C_10  and  O_12
REMARK   10  A    between atoms: C_10  and  C_13
REMARK   11  A    between atoms: N_15  and  C_16
REMARK   12  A    between atoms: C_16  and  C_17
REMARK   13  A    between atoms: C_17  and  C_18
REMARK   14  A    between atoms: N_20  and  C_21
REMARK   15  A    between atoms: C_21  and  C_22
REMARK   16  A    between atoms: C_22  and  S_23
REMARK                            x       y       z     vdW  Elec       q    Type
REMARK                         _______ _______ _______ _____ _____    ______ ____
ROOT
ATOM      1  C   UNL     1       7.782  -4.590  26.389  0.00  0.00    +0.208 C 
ENDROOT
BRANCH   1   2
ATOM      2  C   UNL     1       8.856  -4.276  25.324  0.00  0.00    +0.242 C 
ATOM      3  N   UNL     1       8.801  -2.973  24.838  0.00  0.00    -0.313 N 
ATOM      4  H   UNL     1       8.608  -2.284  25.554  0.00  0.00    +0.149 HD
ATOM      5  O   UNL     1       9.713  -5.064  24.932  0.00  0.00    -0.273 OA
BRANCH   3   6
ATOM      6  C   UNL     1       9.731  -2.642  23.776  0.00  0.00    +0.113 C 
BRANCH   6   7
ATOM      7  C   UNL     1       9.060  -2.267  22.466  0.00  0.00    +0.114 C 
BRANCH   7   8
ATOM      8  C   UNL     1       8.165  -1.061  22.684  0.00  0.00    +0.215 C 
ATOM      9  N   UNL     1       8.791   0.142  22.459  0.00  0.00    -0.314 N 
ATOM     10  H   UNL     1       9.789   0.170  22.290  0.00  0.00    +0.149 HD
ATOM     11  O   UNL     1       6.989  -1.142  23.023  0.00  0.00    -0.276 OA
BRANCH   9  12
ATOM     12  C   UNL     1       8.088   1.398  22.673  0.00  0.00    +0.114 C 
BRANCH  12  13
ATOM     13  C   UNL     1       8.371   2.034  24.037  0.00  0.00    +0.084 C 
BRANCH  13  14
ATOM     14  S   UNL     1       9.027   3.725  23.858  0.00  0.00    -0.177 S 
ATOM     15  H   UNL     1       7.972   4.217  23.195  0.00  0.00    +0.102 HD
ENDBRANCH  13  14
ENDBRANCH  12  13
ENDBRANCH   9  12
ENDBRANCH   7   8
ENDBRANCH   6   7
ENDBRANCH   3   6
ENDBRANCH   1   2
BRANCH   1  17
ATOM     16  C   UNL     1       5.476  -3.647  25.821  0.00  0.00    +0.016 C 
ATOM     17  C   UNL     1       6.356  -4.922  25.843  0.00  0.00    +0.024 C 
ATOM     18  C   UNL     1       5.619  -5.951  26.724  0.00  0.00    +0.016 C 
BRANCH  17  19
ATOM     19  C   UNL     1       6.441  -5.418  24.377  0.00  0.00    +0.181 C 
BRANCH  19  20
ATOM     20  O   UNL     1       6.281  -4.368  23.445  0.00  0.00    -0.286 OA
BRANCH  20  21
ATOM     21  P   UNL     1       6.168  -4.915  21.808  0.00  0.00    +0.472 P 
ATOM     22  O   UNL     1       6.068  -5.404  20.342  0.00  0.00    -0.228 OA
BRANCH  21  23
ATOM     23  O   UNL     1       5.693  -3.396  21.432  0.00  0.00    -0.303 OA
ATOM     24  H   UNL     1       6.298  -3.009  20.776  0.00  0.00    +0.222 HD
ENDBRANCH  21  23
BRANCH  21  25
ATOM     25  O   UNL     1       4.666  -5.402  22.235  0.00  0.00    -0.303 OA
ATOM     26  H   UNL     1       4.373  -5.974  21.496  0.00  0.00    +0.222 HD
ENDBRANCH  21  25
ENDBRANCH  20  21
ENDBRANCH  19  20
ENDBRANCH  17  19
ENDBRANCH   1  17
BRANCH   1  27
ATOM     27  O   UNL     1       8.318  -5.642  27.203  0.00  0.00    -0.382 OA
ATOM     28  H   UNL     1       7.606  -6.272  27.398  0.00  0.00    +0.210 HD
ENDBRANCH   1  27
TORSDOF 14
ENDMDL
MODEL 9
REMARK VINA RESULT:      -5.2      3.793      6.972
REMARK  Name = 
REMARK  16 active torsions:
REMARK  status: ('A' for Active; 'I' for Inactive)
REMARK    1  A    between atoms: C_1  and  C_2
REMARK    2  A    between atoms: C_2  and  C_3
REMARK    3  A    between atoms: C_2  and  C_4
REMARK    4  A    between atoms: C_2  and  C_10
REMARK    5  A    between atoms: C_4  and  O_5
REMARK    6  A    between atoms: O_5  and  P_6
REMARK    7  A    between atoms: P_6  and  O_7
REMARK    8  A    between atoms: P_6  and  O_8
REMARK    9  A    between atoms: C_10  and  O_12
REMARK   10  A    between atoms: C_10  and  C_13
REMARK   11  A    between atoms: N_15  and  C_16
REMARK   12  A    between atoms: C_16  and  C_17
REMARK   13  A    between atoms: C_17  and  C_18
REMARK   14  A    between atoms: N_20  and  C_21
REMARK   15  A    between atoms: C_21  and  C_22
REMARK   16  A    between atoms: C_22  and  S_23
REMARK                            x       y       z     vdW  Elec       q    Type
REMARK                         _______ _______ _______ _____ _____    ______ ____
ROOT
ATOM      1  C   UNL     1       8.719   1.420  22.452  0.00  0.00    +0.208 C 
ENDROOT
BRANCH   1   2
ATOM      2  C   UNL     1       9.018  -0.074  22.196  0.00  0.00    +0.242 C 
ATOM      3  N   UNL     1       8.102  -0.939  22.788  0.00  0.00    -0.313 N 
ATOM      4  H   UNL     1       7.145  -0.615  22.728  0.00  0.00    +0.149 HD
ATOM      5  O   UNL     1       9.949  -0.503  21.519  0.00  0.00    -0.273 OA
BRANCH   3   6
ATOM      6  C   UNL     1       8.375  -2.357  22.653  0.00  0.00    +0.113 C 
BRANCH   6   7
ATOM      7  C   UNL     1       9.112  -2.957  23.838  0.00  0.00    +0.114 C 
BRANCH   7   8
ATOM      8  C   UNL     1       8.430  -4.247  24.256  0.00  0.00    +0.215 C 
ATOM      9  N   UNL     1       7.152  -4.071  24.730  0.00  0.00    -0.314 N 
ATOM     10  H   UNL     1       6.793  -3.137  24.883  0.00  0.00    +0.149 HD
ATOM     11  O   UNL     1       8.960  -5.351  24.177  0.00  0.00    -0.276 OA
BRANCH   9  12
ATOM     12  C   UNL     1       6.378  -5.201  25.220  0.00  0.00    +0.114 C 
BRANCH  12  13
ATOM     13  C   UNL     1       5.399  -5.767  24.187  0.00  0.00    +0.084 C 
BRANCH  13  14
ATOM     14  S   UNL     1       4.498  -4.436  23.327  0.00  0.00    -0.177 S 
ATOM     15  H   UNL     1       5.541  -3.600  23.228  0.00  0.00    +0.102 HD
ENDBRANCH  13  14
ENDBRANCH  12  13
ENDBRANCH   9  12
ENDBRANCH   7   8
ENDBRANCH   6   7
ENDBRANCH   3   6
ENDBRANCH   1   2
BRANCH   1  17
ATOM     16  C   UNL     1       9.445   3.436  23.845  0.00  0.00    +0.016 C 
ATOM     17  C   UNL     1       9.036   1.942  23.891  0.00  0.00    +0.024 C 
ATOM     18  C   UNL     1      10.211   1.183  24.541  0.00  0.00    +0.016 C 
BRANCH  17  19
ATOM     19  C   UNL     1       7.773   1.864  24.785  0.00  0.00    +0.181 C 
BRANCH  19  20
ATOM     20  O   UNL     1       7.530   0.554  25.258  0.00  0.00    -0.286 OA
BRANCH  20  21
ATOM     21  P   UNL     1       5.861   0.243  25.589  0.00  0.00    +0.472 P 
ATOM     22  O   UNL     1       4.367  -0.035  25.885  0.00  0.00    -0.228 OA
BRANCH  21  23
ATOM     23  O   UNL     1       6.188  -1.327  25.271  0.00  0.00    -0.303 OA
ATOM     24  H   UNL     1       6.882  -1.652  25.872  0.00  0.00    +0.222 HD
ENDBRANCH  21  23
BRANCH  21  25
ATOM     25  O   UNL     1       5.634   0.633  24.016  0.00  0.00    -0.303 OA
ATOM     26  H   UNL     1       6.129   1.469  23.895  0.00  0.00    +0.222 HD
ENDBRANCH  21  25
ENDBRANCH  20  21
ENDBRANCH  19  20
ENDBRANCH  17  19
ENDBRANCH   1  17
BRANCH   1  27
ATOM     27  O   UNL     1       9.419   2.149  21.436  0.00  0.00    -0.382 OA
ATOM     28  H   UNL     1       8.773   2.461  20.782  0.00  0.00    +0.210 HD
ENDBRANCH   1  27
TORSDOF 14
ENDMDL
