MODEL 1
REMARK VINA RESULT:      -7.4      0.000      0.000
REMARK  Name = 
REMARK  9 active torsions:
REMARK  status: ('A' for Active; 'I' for Inactive)
REMARK    1  A    between atoms: N_1  and  C_2
REMARK    2  A    between atoms: C_2  and  C_3
REMARK    3  A    between atoms: C_2  and  C_20
REMARK    4  A    between atoms: C_2  and  C_24
REMARK    5  A    between atoms: C_3  and  S_4
REMARK    6  A    between atoms: S_4  and  C_7
REMARK    7  A    between atoms: C_10  and  O_11
REMARK    8  A    between atoms: O_11  and  C_12
REMARK    9  A    between atoms: N_22  and  O_23
REMARK                            x       y       z     vdW  Elec       q    Type
REMARK                         _______ _______ _______ _____ _____    ______ ____
ROOT
ATOM      1  S   UNL     1       9.257  -2.225  23.235  0.00  0.00    -0.001 S 
ATOM      2  O   UNL     1       8.599  -2.526  21.981  0.00  0.00    -0.169 OA
ATOM      3  O   UNL     1      10.562  -2.786  23.539  0.00  0.00    -0.169 OA
ENDROOT
BRANCH   1   4
ATOM      4  C   UNL     1       9.419  -0.451  23.295  0.00  0.00    +0.088 A 
ATOM      5  C   UNL     1       9.465   0.283  22.106  0.00  0.00    +0.030 A 
ATOM      6  C   UNL     1       9.413   1.682  22.149  0.00  0.00    +0.048 A 
ATOM      7  C   UNL     1       9.358   2.336  23.384  0.00  0.00    +0.129 A 
ATOM      8  C   UNL     1       9.378   1.588  24.566  0.00  0.00    +0.048 A 
ATOM      9  C   UNL     1       9.407   0.195  24.532  0.00  0.00    +0.030 A 
BRANCH   7  10
ATOM     10  O   UNL     1       9.161   3.681  23.574  0.00  0.00    -0.456 OA
BRANCH  10  11
ATOM     11  C   UNL     1      10.201   4.564  23.715  0.00  0.00    +0.128 A 
ATOM     12  C   UNL     1      11.506   4.316  23.290  0.00  0.00    +0.046 A 
ATOM     13  C   UNL     1      12.523   5.216  23.620  0.00  0.00    +0.004 A 
ATOM     14  C   UNL     1      12.243   6.345  24.393  0.00  0.00    +0.000 A 
ATOM     15  C   UNL     1      10.940   6.587  24.824  0.00  0.00    +0.004 A 
ATOM     16  C   UNL     1       9.922   5.696  24.485  0.00  0.00    +0.046 A 
ENDBRANCH  10  11
ENDBRANCH   7  10
ENDBRANCH   1   4
BRANCH   1  17
ATOM     17  C   UNL     1       8.167  -2.556  24.615  0.00  0.00    +0.212 C 
BRANCH  17  18
ATOM     18  C   UNL     1       7.565  -3.967  24.683  0.00  0.00    +0.211 C 
BRANCH  18  19
ATOM     19  C   UNL     1       6.192  -4.049  23.982  0.00  0.00    +0.418 C 
ATOM     20  F   UNL     1       6.271  -4.593  22.754  0.00  0.00    -0.168 F 
ATOM     21  F   UNL     1       5.571  -2.857  23.900  0.00  0.00    -0.168 F 
ATOM     22  F   UNL     1       5.364  -4.848  24.713  0.00  0.00    -0.168 F 
ENDBRANCH  18  19
BRANCH  18  23
ATOM     23  C   UNL     1       7.414  -4.424  26.144  0.00  0.00    +0.266 C 
ATOM     24  N   UNL     1       7.899  -5.668  26.476  0.00  0.00    -0.196 N 
ATOM     25  H   UNL     1       8.064  -6.432  25.825  0.00  0.00    +0.182 HD
ATOM     26  O   UNL     1       7.044  -3.655  27.036  0.00  0.00    -0.271 OA
BRANCH  24  27
ATOM     27  O   UNL     1       7.690  -6.049  27.824  0.00  0.00    -0.295 OA
ATOM     28  H   UNL     1       7.977  -6.993  27.833  0.00  0.00    +0.241 HD
ENDBRANCH  24  27
ENDBRANCH  18  23
BRANCH  18  29
ATOM     29  N   UNL     1       8.612  -4.889  24.063  0.00  0.00    -0.309 NA
ATOM     30  H   UNL     1       8.250  -5.255  23.177  0.00  0.00    +0.119 HD
ATOM     31  H   UNL     1       9.435  -4.332  23.814  0.00  0.00    +0.119 HD
ENDBRANCH  18  29
ENDBRANCH  17  18
ENDBRANCH   1  17
TORSDOF 9
ENDMDL
MODEL 2
REMARK VINA RESULT:      -7.3      1.645      2.375
REMARK  Name = 
REMARK  9 active torsions:
REMARK  status: ('A' for Active; 'I' for Inactive)
REMARK    1  A    between atoms: N_1  and  C_2
REMARK    2  A    between atoms: C_2  and  C_3
REMARK    3  A    between atoms: C_2  and  C_20
REMARK    4  A    between atoms: C_2  and  C_24
REMARK    5  A    between atoms: C_3  and  S_4
REMARK    6  A    between atoms: S_4  and  C_7
REMARK    7  A    between atoms: C_10  and  O_11
REMARK    8  A    between atoms: O_11  and  C_12
REMARK    9  A    between atoms: N_22  and  O_23
REMARK                            x       y       z     vdW  Elec       q    Type
REMARK                         _______ _______ _______ _____ _____    ______ ____
ROOT
ATOM      1  S   UNL     1       9.049  -2.756  24.284  0.00  0.00    -0.001 S 
ATOM      2  O   UNL     1      10.280  -3.485  24.066  0.00  0.00    -0.169 OA
ATOM      3  O   UNL     1       8.402  -2.766  25.584  0.00  0.00    -0.169 OA
ENDROOT
BRANCH   1   4
ATOM      4  C   UNL     1       9.405  -1.056  23.886  0.00  0.00    +0.088 A 
ATOM      5  C   UNL     1      10.053  -0.243  24.822  0.00  0.00    +0.030 A 
ATOM      6  C   UNL     1      10.492   1.034  24.450  0.00  0.00    +0.048 A 
ATOM      7  C   UNL     1      10.240   1.504  23.158  0.00  0.00    +0.129 A 
ATOM      8  C   UNL     1       9.533   0.704  22.255  0.00  0.00    +0.048 A 
ATOM      9  C   UNL     1       9.113  -0.577  22.608  0.00  0.00    +0.030 A 
BRANCH   7  10
ATOM     10  O   UNL     1      10.729   2.666  22.615  0.00  0.00    -0.456 OA
BRANCH  10  11
ATOM     11  C   UNL     1      10.803   3.837  23.325  0.00  0.00    +0.128 A 
ATOM     12  C   UNL     1       9.705   4.481  23.895  0.00  0.00    +0.046 A 
ATOM     13  C   UNL     1       9.865   5.747  24.465  0.00  0.00    +0.004 A 
ATOM     14  C   UNL     1      11.111   6.379  24.442  0.00  0.00    +0.000 A 
ATOM     15  C   UNL     1      12.205   5.737  23.865  0.00  0.00    +0.004 A 
ATOM     16  C   UNL     1      12.049   4.469  23.307  0.00  0.00    +0.046 A 
ENDBRANCH  10  11
ENDBRANCH   7  10
ENDBRANCH   1   4
BRANCH   1  17
ATOM     17  C   UNL     1       7.831  -3.191  23.048  0.00  0.00    +0.212 C 
BRANCH  17  18
ATOM     18  C   UNL     1       7.181  -4.575  23.189  0.00  0.00    +0.211 C 
BRANCH  18  19
ATOM     19  C   UNL     1       6.594  -5.083  21.854  0.00  0.00    +0.418 C 
ATOM     20  F   UNL     1       6.159  -4.081  21.068  0.00  0.00    -0.168 F 
ATOM     21  F   UNL     1       5.602  -5.978  22.022  0.00  0.00    -0.168 F 
ATOM     22  F   UNL     1       7.567  -5.734  21.158  0.00  0.00    -0.168 F 
ENDBRANCH  18  19
BRANCH  18  23
ATOM     23  C   UNL     1       6.069  -4.547  24.251  0.00  0.00    +0.266 C 
ATOM     24  N   UNL     1       6.316  -5.179  25.448  0.00  0.00    -0.196 N 
ATOM     25  H   UNL     1       7.008  -5.909  25.601  0.00  0.00    +0.182 HD
ATOM     26  O   UNL     1       5.064  -3.842  24.129  0.00  0.00    -0.271 OA
BRANCH  24  27
ATOM     27  O   UNL     1       5.238  -5.158  26.368  0.00  0.00    -0.295 OA
ATOM     28  H   UNL     1       5.494  -4.437  26.991  0.00  0.00    +0.241 HD
ENDBRANCH  24  27
ENDBRANCH  18  23
BRANCH  18  29
ATOM     29  N   UNL     1       8.273  -5.483  23.750  0.00  0.00    -0.309 NA
ATOM     30  H   UNL     1       9.188  -5.084  23.521  0.00  0.00    +0.119 HD
ATOM     31  H   UNL     1       8.217  -5.473  24.772  0.00  0.00    +0.119 HD
ENDBRANCH  18  29
ENDBRANCH  17  18
ENDBRANCH   1  17
TORSDOF 9
ENDMDL
MODEL 3
REMARK VINA RESULT:      -7.2      4.566      8.897
REMARK  Name = 
REMARK  9 active torsions:
REMARK  status: ('A' for Active; 'I' for Inactive)
REMARK    1  A    between atoms: N_1  and  C_2
REMARK    2  A    between atoms: C_2  and  C_3
REMARK    3  A    between atoms: C_2  and  C_20
REMARK    4  A    between atoms: C_2  and  C_24
REMARK    5  A    between atoms: C_3  and  S_4
REMARK    6  A    between atoms: S_4  and  C_7
REMARK    7  A    between atoms: C_10  and  O_11
REMARK    8  A    between atoms: O_11  and  C_12
REMARK    9  A    between atoms: N_22  and  O_23
REMARK                            x       y       z     vdW  Elec       q    Type
REMARK                         _______ _______ _______ _____ _____    ______ ____
ROOT
ATOM      1  S   UNL     1       9.901   1.572  23.224  0.00  0.00    -0.001 S 
ATOM      2  O   UNL     1      10.915   1.767  24.238  0.00  0.00    -0.169 OA
ATOM      3  O   UNL     1      10.205   1.793  21.821  0.00  0.00    -0.169 OA
ENDROOT
BRANCH   1   4
ATOM      4  C   UNL     1       9.360  -0.119  23.386  0.00  0.00    +0.088 A 
ATOM      5  C   UNL     1       8.761  -0.764  22.298  0.00  0.00    +0.030 A 
ATOM      6  C   UNL     1       8.497  -2.138  22.363  0.00  0.00    +0.048 A 
ATOM      7  C   UNL     1       8.795  -2.846  23.531  0.00  0.00    +0.129 A 
ATOM      8  C   UNL     1       9.334  -2.173  24.632  0.00  0.00    +0.048 A 
ATOM      9  C   UNL     1       9.621  -0.810  24.569  0.00  0.00    +0.030 A 
BRANCH   7  10
ATOM     10  O   UNL     1       8.724  -4.209  23.686  0.00  0.00    -0.456 OA
BRANCH  10  11
ATOM     11  C   UNL     1       7.586  -4.922  23.410  0.00  0.00    +0.128 A 
ATOM     12  C   UNL     1       7.335  -5.562  22.197  0.00  0.00    +0.046 A 
ATOM     13  C   UNL     1       6.079  -6.131  21.962  0.00  0.00    +0.004 A 
ATOM     14  C   UNL     1       5.072  -6.038  22.925  0.00  0.00    +0.000 A 
ATOM     15  C   UNL     1       5.322  -5.391  24.133  0.00  0.00    +0.004 A 
ATOM     16  C   UNL     1       6.578  -4.834  24.373  0.00  0.00    +0.046 A 
ENDBRANCH  10  11
ENDBRANCH   7  10
ENDBRANCH   1   4
BRANCH   1  17
ATOM     17  C   UNL     1       8.418   2.487  23.629  0.00  0.00    +0.212 C 
BRANCH  17  18
ATOM     18  C   UNL     1       8.564   4.013  23.721  0.00  0.00    +0.211 C 
BRANCH  18  19
ATOM     19  C   UNL     1       8.223   4.547  25.129  0.00  0.00    +0.418 C 
ATOM     20  F   UNL     1       7.048   5.201  25.163  0.00  0.00    -0.168 F 
ATOM     21  F   UNL     1       9.186   5.339  25.638  0.00  0.00    -0.168 F 
ATOM     22  F   UNL     1       8.114   3.497  25.991  0.00  0.00    -0.168 F 
ENDBRANCH  18  19
BRANCH  18  23
ATOM     23  C   UNL     1       7.663   4.709  22.686  0.00  0.00    +0.266 C 
ATOM     24  N   UNL     1       8.102   5.902  22.161  0.00  0.00    -0.196 N 
ATOM     25  H   UNL     1       8.786   6.522  22.588  0.00  0.00    +0.182 HD
ATOM     26  O   UNL     1       6.676   4.153  22.197  0.00  0.00    -0.271 OA
BRANCH  24  27
ATOM     27  O   UNL     1       7.209   6.516  21.247  0.00  0.00    -0.295 OA
ATOM     28  H   UNL     1       7.777   6.674  20.456  0.00  0.00    +0.241 HD
ENDBRANCH  24  27
ENDBRANCH  18  23
BRANCH  18  29
ATOM     29  N   UNL     1       9.999   4.313  23.296  0.00  0.00    -0.309 NA
ATOM     30  H   UNL     1      10.192   5.306  23.452  0.00  0.00    +0.119 HD
ATOM     31  H   UNL     1      10.638   3.808  23.917  0.00  0.00    +0.119 HD
ENDBRANCH  18  29
ENDBRANCH  17  18
ENDBRANCH   1  17
TORSDOF 9
ENDMDL
MODEL 4
REMARK VINA RESULT:      -7.2      1.873      2.509
REMARK  Name = 
REMARK  9 active torsions:
REMARK  status: ('A' for Active; 'I' for Inactive)
REMARK    1  A    between atoms: N_1  and  C_2
REMARK    2  A    between atoms: C_2  and  C_3
REMARK    3  A    between atoms: C_2  and  C_20
REMARK    4  A    between atoms: C_2  and  C_24
REMARK    5  A    between atoms: C_3  and  S_4
REMARK    6  A    between atoms: S_4  and  C_7
REMARK    7  A    between atoms: C_10  and  O_11
REMARK    8  A    between atoms: O_11  and  C_12
REMARK    9  A    between atoms: N_22  and  O_23
REMARK                            x       y       z     vdW  Elec       q    Type
REMARK                         _______ _______ _______ _____ _____    ______ ____
ROOT
ATOM      1  S   UNL     1       9.351  -1.596  23.496  0.00  0.00    -0.001 S 
ATOM      2  O   UNL     1       9.870  -2.267  22.324  0.00  0.00    -0.169 OA
ATOM      3  O   UNL     1      10.240  -1.179  24.566  0.00  0.00    -0.169 OA
ENDROOT
BRANCH   1   4
ATOM      4  C   UNL     1       8.519  -0.136  22.903  0.00  0.00    +0.088 A 
ATOM      5  C   UNL     1       7.324   0.275  23.503  0.00  0.00    +0.030 A 
ATOM      6  C   UNL     1       6.763   1.511  23.161  0.00  0.00    +0.048 A 
ATOM      7  C   UNL     1       7.378   2.307  22.190  0.00  0.00    +0.129 A 
ATOM      8  C   UNL     1       8.537   1.852  21.553  0.00  0.00    +0.048 A 
ATOM      9  C   UNL     1       9.116   0.633  21.904  0.00  0.00    +0.030 A 
BRANCH   7  10
ATOM     10  O   UNL     1       7.024   3.592  21.860  0.00  0.00    -0.456 OA
BRANCH  10  11
ATOM     11  C   UNL     1       7.568   4.688  22.479  0.00  0.00    +0.128 A 
ATOM     12  C   UNL     1       8.334   4.633  23.643  0.00  0.00    +0.046 A 
ATOM     13  C   UNL     1       8.711   5.820  24.279  0.00  0.00    +0.004 A 
ATOM     14  C   UNL     1       8.302   7.054  23.769  0.00  0.00    +0.000 A 
ATOM     15  C   UNL     1       7.530   7.106  22.611  0.00  0.00    +0.004 A 
ATOM     16  C   UNL     1       7.163   5.924  21.969  0.00  0.00    +0.046 A 
ENDBRANCH  10  11
ENDBRANCH   7  10
ENDBRANCH   1   4
BRANCH   1  17
ATOM     17  C   UNL     1       8.008  -2.534  24.217  0.00  0.00    +0.212 C 
BRANCH  17  18
ATOM     18  C   UNL     1       8.276  -4.025  24.464  0.00  0.00    +0.211 C 
BRANCH  18  19
ATOM     19  C   UNL     1       7.594  -4.923  23.408  0.00  0.00    +0.418 C 
ATOM     20  F   UNL     1       6.355  -5.300  23.774  0.00  0.00    -0.168 F 
ATOM     21  F   UNL     1       8.318  -6.017  23.102  0.00  0.00    -0.168 F 
ATOM     22  F   UNL     1       7.466  -4.226  22.245  0.00  0.00    -0.168 F 
ENDBRANCH  18  19
BRANCH  18  23
ATOM     23  C   UNL     1       7.794  -4.439  25.865  0.00  0.00    +0.266 C 
ATOM     24  N   UNL     1       8.240  -5.642  26.362  0.00  0.00    -0.196 N 
ATOM     25  H   UNL     1       8.594  -6.418  25.807  0.00  0.00    +0.182 HD
ATOM     26  O   UNL     1       7.183  -3.662  26.604  0.00  0.00    -0.271 OA
BRANCH  24  27
ATOM     27  O   UNL     1       7.727  -5.988  27.637  0.00  0.00    -0.295 OA
ATOM     28  H   UNL     1       7.633  -6.968  27.578  0.00  0.00    +0.241 HD
ENDBRANCH  24  27
ENDBRANCH  18  23
BRANCH  18  29
ATOM     29  N   UNL     1       9.795  -4.170  24.484  0.00  0.00    -0.309 NA
ATOM     30  H   UNL     1      10.041  -5.133  24.235  0.00  0.00    +0.119 HD
ATOM     31  H   UNL     1      10.192  -3.585  23.743  0.00  0.00    +0.119 HD
ENDBRANCH  18  29
ENDBRANCH  17  18
ENDBRANCH   1  17
TORSDOF 9
ENDMDL
MODEL 5
REMARK VINA RESULT:      -7.0      2.440      3.642
REMARK  Name = 
REMARK  9 active torsions:
REMARK  status: ('A' for Active; 'I' for Inactive)
REMARK    1  A    between atoms: N_1  and  C_2
REMARK    2  A    between atoms: C_2  and  C_3
REMARK    3  A    between atoms: C_2  and  C_20
REMARK    4  A    between atoms: C_2  and  C_24
REMARK    5  A    between atoms: C_3  and  S_4
REMARK    6  A    between atoms: S_4  and  C_7
REMARK    7  A    between atoms: C_10  and  O_11
REMARK    8  A    between atoms: O_11  and  C_12
REMARK    9  A    between atoms: N_22  and  O_23
REMARK                            x       y       z     vdW  Elec       q    Type
REMARK                         _______ _______ _______ _____ _____    ______ ____
ROOT
ATOM      1  S   UNL     1       8.482  -3.616  24.738  0.00  0.00    -0.001 S 
ATOM      2  O   UNL     1       9.525  -4.619  24.694  0.00  0.00    -0.169 OA
ATOM      3  O   UNL     1       7.662  -3.452  25.925  0.00  0.00    -0.169 OA
ENDROOT
BRANCH   1   4
ATOM      4  C   UNL     1       9.285  -2.055  24.433  0.00  0.00    +0.088 A 
ATOM      5  C   UNL     1       9.988  -1.856  23.239  0.00  0.00    +0.030 A 
ATOM      6  C   UNL     1      10.467  -0.580  22.918  0.00  0.00    +0.048 A 
ATOM      7  C   UNL     1      10.278   0.477  23.813  0.00  0.00    +0.129 A 
ATOM      8  C   UNL     1       9.630   0.247  25.031  0.00  0.00    +0.048 A 
ATOM      9  C   UNL     1       9.130  -1.015  25.349  0.00  0.00    +0.030 A 
BRANCH   7  10
ATOM     10  O   UNL     1      10.565   1.798  23.570  0.00  0.00    -0.456 OA
BRANCH  10  11
ATOM     11  C   UNL     1       9.595   2.718  23.267  0.00  0.00    +0.128 A 
ATOM     12  C   UNL     1       9.352   3.876  24.005  0.00  0.00    +0.046 A 
ATOM     13  C   UNL     1       8.241   4.668  23.703  0.00  0.00    +0.004 A 
ATOM     14  C   UNL     1       7.361   4.291  22.685  0.00  0.00    +0.000 A 
ATOM     15  C   UNL     1       7.601   3.130  21.954  0.00  0.00    +0.004 A 
ATOM     16  C   UNL     1       8.716   2.345  22.247  0.00  0.00    +0.046 A 
ENDBRANCH  10  11
ENDBRANCH   7  10
ENDBRANCH   1   4
BRANCH   1  17
ATOM     17  C   UNL     1       7.398  -3.770  23.323  0.00  0.00    +0.212 C 
BRANCH  17  18
ATOM     18  C   UNL     1       6.568  -5.059  23.238  0.00  0.00    +0.211 C 
BRANCH  18  19
ATOM     19  C   UNL     1       7.178  -6.081  22.254  0.00  0.00    +0.418 C 
ATOM     20  F   UNL     1       6.376  -7.142  22.050  0.00  0.00    -0.168 F 
ATOM     21  F   UNL     1       8.397  -6.513  22.632  0.00  0.00    -0.168 F 
ATOM     22  F   UNL     1       7.356  -5.484  21.043  0.00  0.00    -0.168 F 
ENDBRANCH  18  19
BRANCH  18  23
ATOM     23  C   UNL     1       5.123  -4.749  22.812  0.00  0.00    +0.266 C 
ATOM     24  N   UNL     1       4.117  -5.494  23.383  0.00  0.00    -0.196 N 
ATOM     25  H   UNL     1       4.228  -6.411  23.810  0.00  0.00    +0.182 HD
ATOM     26  O   UNL     1       4.839  -3.760  22.130  0.00  0.00    -0.271 OA
BRANCH  24  27
ATOM     27  O   UNL     1       2.814  -5.192  22.917  0.00  0.00    -0.295 OA
ATOM     28  H   UNL     1       2.361  -6.068  22.947  0.00  0.00    +0.241 HD
ENDBRANCH  24  27
ENDBRANCH  18  23
BRANCH  18  29
ATOM     29  N   UNL     1       6.479  -5.583  24.670  0.00  0.00    -0.309 NA
ATOM     30  H   UNL     1       6.138  -6.548  24.650  0.00  0.00    +0.119 HD
ATOM     31  H   UNL     1       7.425  -5.634  25.061  0.00  0.00    +0.119 HD
ENDBRANCH  18  29
ENDBRANCH  17  18
ENDBRANCH   1  17
TORSDOF 9
ENDMDL
MODEL 6
REMARK VINA RESULT:      -6.9      1.838      2.665
REMARK  Name = 
REMARK  9 active torsions:
REMARK  status: ('A' for Active; 'I' for Inactive)
REMARK    1  A    between atoms: N_1  and  C_2
REMARK    2  A    between atoms: C_2  and  C_3
REMARK    3  A    between atoms: C_2  and  C_20
REMARK    4  A    between atoms: C_2  and  C_24
REMARK    5  A    between atoms: C_3  and  S_4
REMARK    6  A    between atoms: S_4  and  C_7
REMARK    7  A    between atoms: C_10  and  O_11
REMARK    8  A    between atoms: O_11  and  C_12
REMARK    9  A    between atoms: N_22  and  O_23
REMARK                            x       y       z     vdW  Elec       q    Type
REMARK                         _______ _______ _______ _____ _____    ______ ____
ROOT
ATOM      1  S   UNL     1       9.071  -2.750  24.342  0.00  0.00    -0.001 S 
ATOM      2  O   UNL     1      10.356  -3.263  23.917  0.00  0.00    -0.169 OA
ATOM      3  O   UNL     1       8.572  -3.019  25.679  0.00  0.00    -0.169 OA
ENDROOT
BRANCH   1   4
ATOM      4  C   UNL     1       9.162  -0.979  24.159  0.00  0.00    +0.088 A 
ATOM      5  C   UNL     1       8.471  -0.152  25.052  0.00  0.00    +0.030 A 
ATOM      6  C   UNL     1       8.680   1.232  25.022  0.00  0.00    +0.048 A 
ATOM      7  C   UNL     1       9.545   1.782  24.072  0.00  0.00    +0.129 A 
ATOM      8  C   UNL     1      10.178   0.947  23.145  0.00  0.00    +0.048 A 
ATOM      9  C   UNL     1       9.993  -0.434  23.181  0.00  0.00    +0.030 A 
BRANCH   7  10
ATOM     10  O   UNL     1       9.952   3.092  24.016  0.00  0.00    -0.456 OA
BRANCH  10  11
ATOM     11  C   UNL     1       9.126   4.101  23.593  0.00  0.00    +0.128 A 
ATOM     12  C   UNL     1       7.985   3.910  22.814  0.00  0.00    +0.046 A 
ATOM     13  C   UNL     1       7.300   5.017  22.307  0.00  0.00    +0.004 A 
ATOM     14  C   UNL     1       7.768   6.310  22.554  0.00  0.00    +0.000 A 
ATOM     15  C   UNL     1       8.912   6.500  23.326  0.00  0.00    +0.004 A 
ATOM     16  C   UNL     1       9.590   5.396  23.843  0.00  0.00    +0.046 A 
ENDBRANCH  10  11
ENDBRANCH   7  10
ENDBRANCH   1   4
BRANCH   1  17
ATOM     17  C   UNL     1       7.795  -3.190  23.168  0.00  0.00    +0.212 C 
BRANCH  17  18
ATOM     18  C   UNL     1       7.220  -4.609  23.287  0.00  0.00    +0.211 C 
BRANCH  18  19
ATOM     19  C   UNL     1       6.623  -5.110  21.954  0.00  0.00    +0.418 C 
ATOM     20  F   UNL     1       5.568  -5.925  22.136  0.00  0.00    -0.168 F 
ATOM     21  F   UNL     1       7.528  -5.725  21.170  0.00  0.00    -0.168 F 
ATOM     22  F   UNL     1       6.175  -4.042  21.236  0.00  0.00    -0.168 F 
ENDBRANCH  18  19
BRANCH  18  23
ATOM     23  C   UNL     1       6.138  -4.667  24.379  0.00  0.00    +0.266 C 
ATOM     24  N   UNL     1       6.390  -5.448  25.483  0.00  0.00    -0.196 N 
ATOM     25  H   UNL     1       7.053  -6.218  25.526  0.00  0.00    +0.182 HD
ATOM     26  O   UNL     1       5.161  -3.913  24.373  0.00  0.00    -0.271 OA
BRANCH  24  27
ATOM     27  O   UNL     1       5.338  -5.497  26.431  0.00  0.00    -0.295 OA
ATOM     28  H   UNL     1       5.053  -4.554  26.493  0.00  0.00    +0.241 HD
ENDBRANCH  24  27
ENDBRANCH  18  23
BRANCH  18  29
ATOM     29  N   UNL     1       8.372  -5.475  23.792  0.00  0.00    -0.309 NA
ATOM     30  H   UNL     1       9.071  -5.566  23.049  0.00  0.00    +0.119 HD
ATOM     31  H   UNL     1       8.845  -4.982  24.555  0.00  0.00    +0.119 HD
ENDBRANCH  18  29
ENDBRANCH  17  18
ENDBRANCH   1  17
TORSDOF 9
ENDMDL
MODEL 7
REMARK VINA RESULT:      -6.9      1.177      1.910
REMARK  Name = 
REMARK  9 active torsions:
REMARK  status: ('A' for Active; 'I' for Inactive)
REMARK    1  A    between atoms: N_1  and  C_2
REMARK    2  A    between atoms: C_2  and  C_3
REMARK    3  A    between atoms: C_2  and  C_20
REMARK    4  A    between atoms: C_2  and  C_24
REMARK    5  A    between atoms: C_3  and  S_4
REMARK    6  A    between atoms: S_4  and  C_7
REMARK    7  A    between atoms: C_10  and  O_11
REMARK    8  A    between atoms: O_11  and  C_12
REMARK    9  A    between atoms: N_22  and  O_23
REMARK                            x       y       z     vdW  Elec       q    Type
REMARK                         _______ _______ _______ _____ _____    ______ ____
ROOT
ATOM      1  S   UNL     1       9.136  -2.121  23.224  0.00  0.00    -0.001 S 
ATOM      2  O   UNL     1       8.509  -2.308  21.934  0.00  0.00    -0.169 OA
ATOM      3  O   UNL     1      10.213  -2.993  23.658  0.00  0.00    -0.169 OA
ENDROOT
BRANCH   1   4
ATOM      4  C   UNL     1       9.773  -0.456  23.226  0.00  0.00    +0.088 A 
ATOM      5  C   UNL     1       9.778   0.288  22.041  0.00  0.00    +0.030 A 
ATOM      6  C   UNL     1      10.110   1.648  22.074  0.00  0.00    +0.048 A 
ATOM      7  C   UNL     1      10.476   2.242  23.286  0.00  0.00    +0.129 A 
ATOM      8  C   UNL     1      10.528   1.469  24.450  0.00  0.00    +0.048 A 
ATOM      9  C   UNL     1      10.178   0.120  24.431  0.00  0.00    +0.030 A 
BRANCH   7  10
ATOM     10  O   UNL     1      10.687   3.583  23.492  0.00  0.00    -0.456 OA
BRANCH  10  11
ATOM     11  C   UNL     1       9.658   4.469  23.680  0.00  0.00    +0.128 A 
ATOM     12  C   UNL     1       8.314   4.174  23.451  0.00  0.00    +0.046 A 
ATOM     13  C   UNL     1       7.360   5.193  23.524  0.00  0.00    +0.004 A 
ATOM     14  C   UNL     1       7.749   6.506  23.797  0.00  0.00    +0.000 A 
ATOM     15  C   UNL     1       9.092   6.801  24.018  0.00  0.00    +0.004 A 
ATOM     16  C   UNL     1      10.044   5.783  23.958  0.00  0.00    +0.046 A 
ENDBRANCH  10  11
ENDBRANCH   7  10
ENDBRANCH   1   4
BRANCH   1  17
ATOM     17  C   UNL     1       7.905  -2.059  24.522  0.00  0.00    +0.212 C 
BRANCH  17  18
ATOM     18  C   UNL     1       6.989  -3.285  24.649  0.00  0.00    +0.211 C 
BRANCH  18  19
ATOM     19  C   UNL     1       5.504  -2.929  24.418  0.00  0.00    +0.418 C 
ATOM     20  F   UNL     1       5.166  -1.747  24.963  0.00  0.00    -0.168 F 
ATOM     21  F   UNL     1       4.660  -3.880  24.863  0.00  0.00    -0.168 F 
ATOM     22  F   UNL     1       5.273  -2.826  23.079  0.00  0.00    -0.168 F 
ENDBRANCH  18  19
BRANCH  18  23
ATOM     23  C   UNL     1       7.143  -3.937  26.034  0.00  0.00    +0.266 C 
ATOM     24  N   UNL     1       7.810  -5.138  26.101  0.00  0.00    -0.196 N 
ATOM     25  H   UNL     1       7.943  -5.786  25.329  0.00  0.00    +0.182 HD
ATOM     26  O   UNL     1       6.850  -3.341  27.074  0.00  0.00    -0.271 OA
BRANCH  24  27
ATOM     27  O   UNL     1       7.879  -5.709  27.396  0.00  0.00    -0.295 OA
ATOM     28  H   UNL     1       8.530  -5.130  27.858  0.00  0.00    +0.241 HD
ENDBRANCH  24  27
ENDBRANCH  18  23
BRANCH  18  29
ATOM     29  N   UNL     1       7.526  -4.302  23.645  0.00  0.00    -0.309 NA
ATOM     30  H   UNL     1       6.738  -4.722  23.143  0.00  0.00    +0.119 HD
ATOM     31  H   UNL     1       8.073  -3.807  22.935  0.00  0.00    +0.119 HD
ENDBRANCH  18  29
ENDBRANCH  17  18
ENDBRANCH   1  17
TORSDOF 9
ENDMDL
MODEL 8
REMARK VINA RESULT:      -6.8      4.175      9.061
REMARK  Name = 
REMARK  9 active torsions:
REMARK  status: ('A' for Active; 'I' for Inactive)
REMARK    1  A    between atoms: N_1  and  C_2
REMARK    2  A    between atoms: C_2  and  C_3
REMARK    3  A    between atoms: C_2  and  C_20
REMARK    4  A    between atoms: C_2  and  C_24
REMARK    5  A    between atoms: C_3  and  S_4
REMARK    6  A    between atoms: S_4  and  C_7
REMARK    7  A    between atoms: C_10  and  O_11
REMARK    8  A    between atoms: O_11  and  C_12
REMARK    9  A    between atoms: N_22  and  O_23
REMARK                            x       y       z     vdW  Elec       q    Type
REMARK                         _______ _______ _______ _____ _____    ______ ____
ROOT
ATOM      1  S   UNL     1       9.247  -0.352  22.420  0.00  0.00    -0.001 S 
ATOM      2  O   UNL     1      10.487  -0.325  23.167  0.00  0.00    -0.169 OA
ATOM      3  O   UNL     1       9.258  -0.361  20.968  0.00  0.00    -0.169 OA
ENDROOT
BRANCH   1   4
ATOM      4  C   UNL     1       8.384  -1.819  22.949  0.00  0.00    +0.088 A 
ATOM      5  C   UNL     1       7.051  -2.015  22.573  0.00  0.00    +0.030 A 
ATOM      6  C   UNL     1       6.426  -3.240  22.834  0.00  0.00    +0.048 A 
ATOM      7  C   UNL     1       7.127  -4.245  23.508  0.00  0.00    +0.129 A 
ATOM      8  C   UNL     1       8.438  -4.010  23.935  0.00  0.00    +0.048 A 
ATOM      9  C   UNL     1       9.075  -2.801  23.659  0.00  0.00    +0.030 A 
BRANCH   7  10
ATOM     10  O   UNL     1       6.695  -5.534  23.705  0.00  0.00    -0.456 OA
BRANCH  10  11
ATOM     11  C   UNL     1       5.763  -5.860  24.655  0.00  0.00    +0.128 A 
ATOM     12  C   UNL     1       5.905  -5.601  26.019  0.00  0.00    +0.046 A 
ATOM     13  C   UNL     1       4.968  -6.113  26.921  0.00  0.00    +0.004 A 
ATOM     14  C   UNL     1       3.909  -6.901  26.467  0.00  0.00    +0.000 A 
ATOM     15  C   UNL     1       3.772  -7.166  25.106  0.00  0.00    +0.004 A 
ATOM     16  C   UNL     1       4.699  -6.646  24.203  0.00  0.00    +0.046 A 
ENDBRANCH  10  11
ENDBRANCH   7  10
ENDBRANCH   1   4
BRANCH   1  17
ATOM     17  C   UNL     1       8.152   0.953  22.966  0.00  0.00    +0.212 C 
BRANCH  17  18
ATOM     18  C   UNL     1       8.684   2.387  22.837  0.00  0.00    +0.211 C 
BRANCH  18  19
ATOM     19  C   UNL     1       9.271   2.913  24.166  0.00  0.00    +0.418 C 
ATOM     20  F   UNL     1       9.734   1.924  24.952  0.00  0.00    -0.168 F 
ATOM     21  F   UNL     1       8.399   3.664  24.865  0.00  0.00    -0.168 F 
ATOM     22  F   UNL     1      10.328   3.728  23.895  0.00  0.00    -0.168 F 
ENDBRANCH  18  19
BRANCH  18  23
ATOM     23  C   UNL     1       7.573   3.339  22.364  0.00  0.00    +0.266 C 
ATOM     24  N   UNL     1       7.933   4.628  22.044  0.00  0.00    -0.196 N 
ATOM     25  H   UNL     1       8.770   5.107  22.367  0.00  0.00    +0.182 HD
ATOM     26  O   UNL     1       6.436   2.939  22.101  0.00  0.00    -0.271 OA
BRANCH  24  27
ATOM     27  O   UNL     1       6.859   5.468  21.658  0.00  0.00    -0.295 OA
ATOM     28  H   UNL     1       6.160   4.825  21.394  0.00  0.00    +0.241 HD
ENDBRANCH  24  27
ENDBRANCH  18  23
BRANCH  18  29
ATOM     29  N   UNL     1       9.708   2.343  21.705  0.00  0.00    -0.309 NA
ATOM     30  H   UNL     1       9.212   2.325  20.809  0.00  0.00    +0.119 HD
ATOM     31  H   UNL     1      10.239   3.218  21.707  0.00  0.00    +0.119 HD
ENDBRANCH  18  29
ENDBRANCH  17  18
ENDBRANCH   1  17
TORSDOF 9
ENDMDL
MODEL 9
REMARK VINA RESULT:      -6.7      4.522      8.704
REMARK  Name = 
REMARK  9 active torsions:
REMARK  status: ('A' for Active; 'I' for Inactive)
REMARK    1  A    between atoms: N_1  and  C_2
REMARK    2  A    between atoms: C_2  and  C_3
REMARK    3  A    between atoms: C_2  and  C_20
REMARK    4  A    between atoms: C_2  and  C_24
REMARK    5  A    between atoms: C_3  and  S_4
REMARK    6  A    between atoms: S_4  and  C_7
REMARK    7  A    between atoms: C_10  and  O_11
REMARK    8  A    between atoms: O_11  and  C_12
REMARK    9  A    between atoms: N_22  and  O_23
REMARK                            x       y       z     vdW  Elec       q    Type
REMARK                         _______ _______ _______ _____ _____    ______ ____
ROOT
ATOM      1  S   UNL     1       9.923   1.457  23.164  0.00  0.00    -0.001 S 
ATOM      2  O   UNL     1      10.870   1.545  24.255  0.00  0.00    -0.169 OA
ATOM      3  O   UNL     1      10.308   1.837  21.817  0.00  0.00    -0.169 OA
ENDROOT
BRANCH   1   4
ATOM      4  C   UNL     1       9.398  -0.246  23.101  0.00  0.00    +0.088 A 
ATOM      5  C   UNL     1      10.276  -1.259  23.503  0.00  0.00    +0.030 A 
ATOM      6  C   UNL     1       9.812  -2.574  23.624  0.00  0.00    +0.048 A 
ATOM      7  C   UNL     1       8.485  -2.873  23.301  0.00  0.00    +0.129 A 
ATOM      8  C   UNL     1       7.638  -1.860  22.840  0.00  0.00    +0.048 A 
ATOM      9  C   UNL     1       8.085  -0.544  22.738  0.00  0.00    +0.030 A 
BRANCH   7  10
ATOM     10  O   UNL     1       7.859  -4.078  23.505  0.00  0.00    -0.456 OA
BRANCH  10  11
ATOM     11  C   UNL     1       7.395  -4.467  24.735  0.00  0.00    +0.128 A 
ATOM     12  C   UNL     1       8.209  -4.716  25.840  0.00  0.00    +0.046 A 
ATOM     13  C   UNL     1       7.651  -5.257  27.002  0.00  0.00    +0.004 A 
ATOM     14  C   UNL     1       6.292  -5.573  27.051  0.00  0.00    +0.000 A 
ATOM     15  C   UNL     1       5.482  -5.332  25.944  0.00  0.00    +0.004 A 
ATOM     16  C   UNL     1       6.034  -4.781  24.788  0.00  0.00    +0.046 A 
ENDBRANCH  10  11
ENDBRANCH   7  10
ENDBRANCH   1   4
BRANCH   1  17
ATOM     17  C   UNL     1       8.404   2.309  23.575  0.00  0.00    +0.212 C 
BRANCH  17  18
ATOM     18  C   UNL     1       8.502   3.832  23.739  0.00  0.00    +0.211 C 
BRANCH  18  19
ATOM     19  C   UNL     1       8.068   4.296  25.147  0.00  0.00    +0.418 C 
ATOM     20  F   UNL     1       8.857   5.270  25.635  0.00  0.00    -0.168 F 
ATOM     21  F   UNL     1       8.007   3.287  26.038  0.00  0.00    -0.168 F 
ATOM     22  F   UNL     1       6.807   4.807  25.081  0.00  0.00    -0.168 F 
ENDBRANCH  18  19
BRANCH  18  23
ATOM     23  C   UNL     1       7.641   4.549  22.685  0.00  0.00    +0.266 C 
ATOM     24  N   UNL     1       8.071   5.777  22.241  0.00  0.00    -0.196 N 
ATOM     25  H   UNL     1       8.709   6.397  22.735  0.00  0.00    +0.182 HD
ATOM     26  O   UNL     1       6.702   3.987  22.114  0.00  0.00    -0.271 OA
BRANCH  24  27
ATOM     27  O   UNL     1       7.213   6.407  21.304  0.00  0.00    -0.295 OA
ATOM     28  H   UNL     1       7.836   6.949  20.764  0.00  0.00    +0.241 HD
ENDBRANCH  24  27
ENDBRANCH  18  23
BRANCH  18  29
ATOM     29  N   UNL     1       9.949   4.187  23.409  0.00  0.00    -0.309 NA
ATOM     30  H   UNL     1      10.435   4.442  24.275  0.00  0.00    +0.119 HD
ATOM     31  H   UNL     1      10.424   3.347  23.066  0.00  0.00    +0.119 HD
ENDBRANCH  18  29
ENDBRANCH  17  18
ENDBRANCH   1  17
TORSDOF 9
ENDMDL
