MODEL 1
REMARK VINA RESULT:      -7.1      0.000      0.000
REMARK  Name = 
REMARK  6 active torsions:
REMARK  status: ('A' for Active; 'I' for Inactive)
REMARK    1  A    between atoms: O_1  and  C_2
REMARK    2  A    between atoms: C_6  and  O_7
REMARK    3  A    between atoms: C_11  and  O_12
REMARK    4  A    between atoms: C_13  and  C_15
REMARK    5  A    between atoms: C_18  and  O_19
REMARK    6  A    between atoms: C_20  and  O_21
REMARK                            x       y       z     vdW  Elec       q    Type
REMARK                         _______ _______ _______ _____ _____    ______ ____
ROOT
ATOM      1  C   UNL     1       6.599  -5.585  27.073  0.00  0.00    +0.124 A 
ATOM      2  C   UNL     1       5.595  -6.337  26.471  0.00  0.00    +0.091 A 
ATOM      3  C   UNL     1       5.165  -5.996  25.194  0.00  0.00    +0.135 A 
ATOM      4  C   UNL     1       5.742  -4.909  24.529  0.00  0.00    +0.109 A 
ATOM      5  C   UNL     1       5.316  -4.528  23.188  0.00  0.00    +0.238 A 
ATOM      6  C   UNL     1       5.968  -3.357  22.563  0.00  0.00    +0.208 A 
ATOM      7  C   UNL     1       6.930  -2.701  23.244  0.00  0.00    +0.181 A 
ATOM      8  O   UNL     1       7.337  -3.076  24.529  0.00  0.00    -0.451 OA
ATOM      9  O   UNL     1       4.443  -5.146  22.580  0.00  0.00    -0.283 OA
ATOM     10  C   UNL     1       6.744  -4.157  25.138  0.00  0.00    +0.147 A 
ATOM     11  C   UNL     1       7.179  -4.497  26.422  0.00  0.00    +0.092 A 
ENDROOT
BRANCH   7  12
ATOM     12  C   UNL     1       7.647  -1.500  22.721  0.00  0.00    +0.025 A 
ATOM     13  C   UNL     1       7.135  -0.211  22.951  0.00  0.00    +0.060 A 
ATOM     14  C   UNL     1       7.810   0.912  22.476  0.00  0.00    +0.159 A 
ATOM     15  C   UNL     1       8.996   0.788  21.761  0.00  0.00    +0.158 A 
ATOM     16  C   UNL     1       9.528  -0.467  21.517  0.00  0.00    +0.050 A 
ATOM     17  C   UNL     1       8.863  -1.598  22.011  0.00  0.00    +0.015 A 
BRANCH  14  18
ATOM     18  O   UNL     1       7.297   2.154  22.722  0.00  0.00    -0.503 OA
ATOM     19  H   UNL     1       8.083   2.731  22.807  0.00  0.00    +0.292 HD
ENDBRANCH  14  18
BRANCH  15  20
ATOM     20  O   UNL     1       9.606   1.929  21.322  0.00  0.00    -0.503 OA
ATOM     21  H   UNL     1      10.560   1.848  21.493  0.00  0.00    +0.292 HD
ENDBRANCH  15  20
ENDBRANCH   7  12
BRANCH   1  22
ATOM     22  O   UNL     1       6.991  -5.959  28.325  0.00  0.00    -0.507 OA
ATOM     23  H   UNL     1       7.187  -5.168  28.853  0.00  0.00    +0.292 HD
ENDBRANCH   1  22
BRANCH   3  24
ATOM     24  O   UNL     1       4.174  -6.768  24.648  0.00  0.00    -0.506 OA
ATOM     25  H   UNL     1       4.478  -7.702  24.635  0.00  0.00    +0.292 HD
ENDBRANCH   3  24
BRANCH   6  26
ATOM     26  O   UNL     1       5.514  -3.017  21.302  0.00  0.00    -0.501 OA
ATOM     27  H   UNL     1       5.836  -3.731  20.712  0.00  0.00    +0.292 HD
ENDBRANCH   6  26
TORSDOF 6
ENDMDL
MODEL 2
REMARK VINA RESULT:      -7.0      1.466      3.346
REMARK  Name = 
REMARK  6 active torsions:
REMARK  status: ('A' for Active; 'I' for Inactive)
REMARK    1  A    between atoms: O_1  and  C_2
REMARK    2  A    between atoms: C_6  and  O_7
REMARK    3  A    between atoms: C_11  and  O_12
REMARK    4  A    between atoms: C_13  and  C_15
REMARK    5  A    between atoms: C_18  and  O_19
REMARK    6  A    between atoms: C_20  and  O_21
REMARK                            x       y       z     vdW  Elec       q    Type
REMARK                         _______ _______ _______ _____ _____    ______ ____
ROOT
ATOM      1  C   UNL     1       4.060  -6.940  24.387  0.00  0.00    +0.124 A 
ATOM      2  C   UNL     1       4.360  -7.286  25.701  0.00  0.00    +0.091 A 
ATOM      3  C   UNL     1       5.287  -6.529  26.408  0.00  0.00    +0.135 A 
ATOM      4  C   UNL     1       5.905  -5.432  25.797  0.00  0.00    +0.109 A 
ATOM      5  C   UNL     1       6.879  -4.615  26.512  0.00  0.00    +0.238 A 
ATOM      6  C   UNL     1       7.495  -3.483  25.787  0.00  0.00    +0.208 A 
ATOM      7  C   UNL     1       7.128  -3.243  24.512  0.00  0.00    +0.181 A 
ATOM      8  O   UNL     1       6.189  -4.029  23.834  0.00  0.00    -0.451 OA
ATOM      9  O   UNL     1       7.193  -4.846  27.679  0.00  0.00    -0.283 OA
ATOM     10  C   UNL     1       5.604  -5.092  24.480  0.00  0.00    +0.147 A 
ATOM     11  C   UNL     1       4.672  -5.851  23.767  0.00  0.00    +0.092 A 
ENDROOT
BRANCH   7  12
ATOM     12  C   UNL     1       7.691  -2.140  23.678  0.00  0.00    +0.025 A 
ATOM     13  C   UNL     1       8.889  -2.328  22.965  0.00  0.00    +0.060 A 
ATOM     14  C   UNL     1       9.409  -1.305  22.176  0.00  0.00    +0.159 A 
ATOM     15  C   UNL     1       8.766  -0.075  22.078  0.00  0.00    +0.158 A 
ATOM     16  C   UNL     1       7.584   0.143  22.766  0.00  0.00    +0.050 A 
ATOM     17  C   UNL     1       7.047  -0.892  23.545  0.00  0.00    +0.015 A 
BRANCH  14  18
ATOM     18  O   UNL     1      10.568  -1.517  21.485  0.00  0.00    -0.503 OA
ATOM     19  H   UNL     1      10.398  -1.137  20.599  0.00  0.00    +0.292 HD
ENDBRANCH  14  18
BRANCH  15  20
ATOM     20  O   UNL     1       9.331   0.885  21.288  0.00  0.00    -0.503 OA
ATOM     21  H   UNL     1      10.279   0.934  21.500  0.00  0.00    +0.292 HD
ENDBRANCH  15  20
ENDBRANCH   7  12
BRANCH   1  22
ATOM     22  O   UNL     1       3.142  -7.709  23.735  0.00  0.00    -0.507 OA
ATOM     23  H   UNL     1       2.907  -8.472  24.289  0.00  0.00    +0.292 HD
ENDBRANCH   1  22
BRANCH   3  24
ATOM     24  O   UNL     1       5.547  -6.913  27.696  0.00  0.00    -0.506 OA
ATOM     25  H   UNL     1       6.171  -7.672  27.676  0.00  0.00    +0.292 HD
ENDBRANCH   3  24
BRANCH   6  26
ATOM     26  O   UNL     1       8.432  -2.754  26.496  0.00  0.00    -0.501 OA
ATOM     27  H   UNL     1       7.924  -2.303  27.204  0.00  0.00    +0.292 HD
ENDBRANCH   6  26
TORSDOF 6
ENDMDL
MODEL 3
REMARK VINA RESULT:      -6.9      1.158      1.782
REMARK  Name = 
REMARK  6 active torsions:
REMARK  status: ('A' for Active; 'I' for Inactive)
REMARK    1  A    between atoms: O_1  and  C_2
REMARK    2  A    between atoms: C_6  and  O_7
REMARK    3  A    between atoms: C_11  and  O_12
REMARK    4  A    between atoms: C_13  and  C_15
REMARK    5  A    between atoms: C_18  and  O_19
REMARK    6  A    between atoms: C_20  and  O_21
REMARK                            x       y       z     vdW  Elec       q    Type
REMARK                         _______ _______ _______ _____ _____    ______ ____
ROOT
ATOM      1  C   UNL     1       5.556  -6.421  26.970  0.00  0.00    +0.124 A 
ATOM      2  C   UNL     1       4.678  -7.160  26.183  0.00  0.00    +0.091 A 
ATOM      3  C   UNL     1       4.479  -6.791  24.857  0.00  0.00    +0.135 A 
ATOM      4  C   UNL     1       5.160  -5.689  24.329  0.00  0.00    +0.109 A 
ATOM      5  C   UNL     1       4.978  -5.278  22.943  0.00  0.00    +0.238 A 
ATOM      6  C   UNL     1       5.725  -4.093  22.469  0.00  0.00    +0.208 A 
ATOM      7  C   UNL     1       6.549  -3.452  23.324  0.00  0.00    +0.181 A 
ATOM      8  O   UNL     1       6.723  -3.856  24.653  0.00  0.00    -0.451 OA
ATOM      9  O   UNL     1       4.228  -5.882  22.176  0.00  0.00    -0.283 OA
ATOM     10  C   UNL     1       6.035  -4.950  25.122  0.00  0.00    +0.147 A 
ATOM     11  C   UNL     1       6.237  -5.319  26.456  0.00  0.00    +0.092 A 
ENDROOT
BRANCH   7  12
ATOM     12  C   UNL     1       7.342  -2.240  22.963  0.00  0.00    +0.025 A 
ATOM     13  C   UNL     1       8.629  -2.372  22.411  0.00  0.00    +0.060 A 
ATOM     14  C   UNL     1       9.366  -1.243  22.061  0.00  0.00    +0.159 A 
ATOM     15  C   UNL     1       8.855   0.036  22.254  0.00  0.00    +0.158 A 
ATOM     16  C   UNL     1       7.591   0.202  22.794  0.00  0.00    +0.050 A 
ATOM     17  C   UNL     1       6.839  -0.932  23.129  0.00  0.00    +0.015 A 
BRANCH  14  18
ATOM     18  O   UNL     1      10.609  -1.399  21.517  0.00  0.00    -0.503 OA
ATOM     19  H   UNL     1      11.149  -0.697  21.935  0.00  0.00    +0.292 HD
ENDBRANCH  14  18
BRANCH  15  20
ATOM     20  O   UNL     1       9.631   1.101  21.890  0.00  0.00    -0.503 OA
ATOM     21  H   UNL     1      10.003   1.495  22.698  0.00  0.00    +0.292 HD
ENDBRANCH  15  20
ENDBRANCH   7  12
BRANCH   1  22
ATOM     22  O   UNL     1       5.721  -6.823  28.263  0.00  0.00    -0.507 OA
ATOM     23  H   UNL     1       6.482  -6.361  28.651  0.00  0.00    +0.292 HD
ENDBRANCH   1  22
BRANCH   3  24
ATOM     24  O   UNL     1       3.604  -7.550  24.127  0.00  0.00    -0.506 OA
ATOM     25  H   UNL     1       2.741  -7.081  24.089  0.00  0.00    +0.292 HD
ENDBRANCH   3  24
BRANCH   6  26
ATOM     26  O   UNL     1       5.500  -3.725  21.155  0.00  0.00    -0.501 OA
ATOM     27  H   UNL     1       6.248  -4.108  20.650  0.00  0.00    +0.292 HD
ENDBRANCH   6  26
TORSDOF 6
ENDMDL
MODEL 4
REMARK VINA RESULT:      -6.8      1.201      2.885
REMARK  Name = 
REMARK  6 active torsions:
REMARK  status: ('A' for Active; 'I' for Inactive)
REMARK    1  A    between atoms: O_1  and  C_2
REMARK    2  A    between atoms: C_6  and  O_7
REMARK    3  A    between atoms: C_11  and  O_12
REMARK    4  A    between atoms: C_13  and  C_15
REMARK    5  A    between atoms: C_18  and  O_19
REMARK    6  A    between atoms: C_20  and  O_21
REMARK                            x       y       z     vdW  Elec       q    Type
REMARK                         _______ _______ _______ _____ _____    ______ ____
ROOT
ATOM      1  C   UNL     1       4.251  -6.119  23.439  0.00  0.00    +0.124 A 
ATOM      2  C   UNL     1       4.577  -6.635  24.689  0.00  0.00    +0.091 A 
ATOM      3  C   UNL     1       5.547  -6.000  25.454  0.00  0.00    +0.135 A 
ATOM      4  C   UNL     1       6.184  -4.854  24.965  0.00  0.00    +0.109 A 
ATOM      5  C   UNL     1       7.203  -4.161  25.744  0.00  0.00    +0.238 A 
ATOM      6  C   UNL     1       7.836  -2.966  25.147  0.00  0.00    +0.208 A 
ATOM      7  C   UNL     1       7.441  -2.558  23.923  0.00  0.00    +0.181 A 
ATOM      8  O   UNL     1       6.457  -3.224  23.184  0.00  0.00    -0.451 OA
ATOM      9  O   UNL     1       7.542  -4.545  26.863  0.00  0.00    -0.283 OA
ATOM     10  C   UNL     1       5.857  -4.343  23.712  0.00  0.00    +0.147 A 
ATOM     11  C   UNL     1       4.881  -4.980  22.939  0.00  0.00    +0.092 A 
ENDROOT
BRANCH   7  12
ATOM     12  C   UNL     1       8.016  -1.375  23.216  0.00  0.00    +0.025 A 
ATOM     13  C   UNL     1       7.491  -0.089  23.439  0.00  0.00    +0.060 A 
ATOM     14  C   UNL     1       8.034   1.017  22.790  0.00  0.00    +0.159 A 
ATOM     15  C   UNL     1       9.099   0.880  21.905  0.00  0.00    +0.158 A 
ATOM     16  C   UNL     1       9.640  -0.371  21.664  0.00  0.00    +0.050 A 
ATOM     17  C   UNL     1       9.109  -1.484  22.330  0.00  0.00    +0.015 A 
BRANCH  14  18
ATOM     18  O   UNL     1       7.513   2.256  23.032  0.00  0.00    -0.503 OA
ATOM     19  H   UNL     1       7.113   2.525  22.180  0.00  0.00    +0.292 HD
ENDBRANCH  14  18
BRANCH  15  20
ATOM     20  O   UNL     1       9.583   2.007  21.302  0.00  0.00    -0.503 OA
ATOM     21  H   UNL     1       8.832   2.491  20.917  0.00  0.00    +0.292 HD
ENDBRANCH  15  20
ENDBRANCH   7  12
BRANCH   1  22
ATOM     22  O   UNL     1       3.290  -6.774  22.726  0.00  0.00    -0.507 OA
ATOM     23  H   UNL     1       2.619  -6.138  22.427  0.00  0.00    +0.292 HD
ENDBRANCH   1  22
BRANCH   3  24
ATOM     24  O   UNL     1       5.831  -6.549  26.676  0.00  0.00    -0.506 OA
ATOM     25  H   UNL     1       5.600  -5.896  27.373  0.00  0.00    +0.292 HD
ENDBRANCH   3  24
BRANCH   6  26
ATOM     26  O   UNL     1       8.815  -2.358  25.910  0.00  0.00    -0.501 OA
ATOM     27  H   UNL     1       8.499  -1.440  26.049  0.00  0.00    +0.292 HD
ENDBRANCH   6  26
TORSDOF 6
ENDMDL
MODEL 5
REMARK VINA RESULT:      -6.7      1.978      3.529
REMARK  Name = 
REMARK  6 active torsions:
REMARK  status: ('A' for Active; 'I' for Inactive)
REMARK    1  A    between atoms: O_1  and  C_2
REMARK    2  A    between atoms: C_6  and  O_7
REMARK    3  A    between atoms: C_11  and  O_12
REMARK    4  A    between atoms: C_13  and  C_15
REMARK    5  A    between atoms: C_18  and  O_19
REMARK    6  A    between atoms: C_20  and  O_21
REMARK                            x       y       z     vdW  Elec       q    Type
REMARK                         _______ _______ _______ _____ _____    ______ ____
ROOT
ATOM      1  C   UNL     1       6.148  -5.337  22.160  0.00  0.00    +0.124 A 
ATOM      2  C   UNL     1       5.916  -5.915  23.404  0.00  0.00    +0.091 A 
ATOM      3  C   UNL     1       6.353  -5.260  24.549  0.00  0.00    +0.135 A 
ATOM      4  C   UNL     1       7.017  -4.033  24.443  0.00  0.00    +0.109 A 
ATOM      5  C   UNL     1       7.484  -3.319  25.624  0.00  0.00    +0.238 A 
ATOM      6  C   UNL     1       8.189  -2.035  25.422  0.00  0.00    +0.208 A 
ATOM      7  C   UNL     1       8.360  -1.572  24.167  0.00  0.00    +0.181 A 
ATOM      8  O   UNL     1       7.903  -2.260  23.037  0.00  0.00    -0.451 OA
ATOM      9  O   UNL     1       7.311  -3.755  26.762  0.00  0.00    -0.283 OA
ATOM     10  C   UNL     1       7.250  -3.460  23.195  0.00  0.00    +0.147 A 
ATOM     11  C   UNL     1       6.812  -4.116  22.041  0.00  0.00    +0.092 A 
ENDROOT
BRANCH   7  12
ATOM     12  C   UNL     1       9.066  -0.298  23.839  0.00  0.00    +0.025 A 
ATOM     13  C   UNL     1       8.572   0.549  22.831  0.00  0.00    +0.060 A 
ATOM     14  C   UNL     1       9.221   1.745  22.533  0.00  0.00    +0.159 A 
ATOM     15  C   UNL     1      10.371   2.128  23.216  0.00  0.00    +0.158 A 
ATOM     16  C   UNL     1      10.883   1.318  24.215  0.00  0.00    +0.050 A 
ATOM     17  C   UNL     1      10.221   0.123  24.531  0.00  0.00    +0.015 A 
BRANCH  14  18
ATOM     18  O   UNL     1       8.715   2.555  21.556  0.00  0.00    -0.503 OA
ATOM     19  H   UNL     1       8.991   2.130  20.718  0.00  0.00    +0.292 HD
ENDBRANCH  14  18
BRANCH  15  20
ATOM     20  O   UNL     1      10.959   3.313  22.873  0.00  0.00    -0.503 OA
ATOM     21  H   UNL     1      11.590   3.552  23.573  0.00  0.00    +0.292 HD
ENDBRANCH  15  20
ENDBRANCH   7  12
BRANCH   1  22
ATOM     22  O   UNL     1       5.698  -6.014  21.065  0.00  0.00    -0.507 OA
ATOM     23  H   UNL     1       4.743  -6.172  21.152  0.00  0.00    +0.292 HD
ENDBRANCH   1  22
BRANCH   3  24
ATOM     24  O   UNL     1       6.101  -5.873  25.747  0.00  0.00    -0.506 OA
ATOM     25  H   UNL     1       6.184  -5.206  26.463  0.00  0.00    +0.292 HD
ENDBRANCH   3  24
BRANCH   6  26
ATOM     26  O   UNL     1       8.638  -1.407  26.570  0.00  0.00    -0.501 OA
ATOM     27  H   UNL     1       9.566  -1.706  26.679  0.00  0.00    +0.292 HD
ENDBRANCH   6  26
TORSDOF 6
ENDMDL
MODEL 6
REMARK VINA RESULT:      -6.7      2.140      7.338
REMARK  Name = 
REMARK  6 active torsions:
REMARK  status: ('A' for Active; 'I' for Inactive)
REMARK    1  A    between atoms: O_1  and  C_2
REMARK    2  A    between atoms: C_6  and  O_7
REMARK    3  A    between atoms: C_11  and  O_12
REMARK    4  A    between atoms: C_13  and  C_15
REMARK    5  A    between atoms: C_18  and  O_19
REMARK    6  A    between atoms: C_20  and  O_21
REMARK                            x       y       z     vdW  Elec       q    Type
REMARK                         _______ _______ _______ _____ _____    ______ ____
ROOT
ATOM      1  C   UNL     1       7.231   2.963  22.254  0.00  0.00    +0.124 A 
ATOM      2  C   UNL     1       8.541   3.251  22.621  0.00  0.00    +0.091 A 
ATOM      3  C   UNL     1       9.375   2.216  23.029  0.00  0.00    +0.135 A 
ATOM      4  C   UNL     1       8.894   0.903  23.065  0.00  0.00    +0.109 A 
ATOM      5  C   UNL     1       9.744  -0.205  23.484  0.00  0.00    +0.238 A 
ATOM      6  C   UNL     1       9.151  -1.559  23.507  0.00  0.00    +0.208 A 
ATOM      7  C   UNL     1       7.866  -1.719  23.131  0.00  0.00    +0.181 A 
ATOM      8  O   UNL     1       7.058  -0.651  22.725  0.00  0.00    -0.451 OA
ATOM      9  O   UNL     1      10.918  -0.038  23.815  0.00  0.00    -0.283 OA
ATOM     10  C   UNL     1       7.580   0.620  22.700  0.00  0.00    +0.147 A 
ATOM     11  C   UNL     1       6.739   1.658  22.289  0.00  0.00    +0.092 A 
ENDROOT
BRANCH   7  12
ATOM     12  C   UNL     1       7.158  -3.034  23.127  0.00  0.00    +0.025 A 
ATOM     13  C   UNL     1       6.869  -3.681  21.911  0.00  0.00    +0.060 A 
ATOM     14  C   UNL     1       6.222  -4.914  21.905  0.00  0.00    +0.159 A 
ATOM     15  C   UNL     1       5.840  -5.531  23.092  0.00  0.00    +0.158 A 
ATOM     16  C   UNL     1       6.110  -4.922  24.305  0.00  0.00    +0.050 A 
ATOM     17  C   UNL     1       6.780  -3.691  24.317  0.00  0.00    +0.015 A 
BRANCH  14  18
ATOM     18  O   UNL     1       5.962  -5.526  20.712  0.00  0.00    -0.503 OA
ATOM     19  H   UNL     1       5.022  -5.321  20.531  0.00  0.00    +0.292 HD
ENDBRANCH  14  18
BRANCH  15  20
ATOM     20  O   UNL     1       5.207  -6.740  23.014  0.00  0.00    -0.503 OA
ATOM     21  H   UNL     1       5.401  -7.237  23.827  0.00  0.00    +0.292 HD
ENDBRANCH  15  20
ENDBRANCH   7  12
BRANCH   1  22
ATOM     22  O   UNL     1       6.451   4.009  21.857  0.00  0.00    -0.507 OA
ATOM     23  H   UNL     1       7.015   4.721  21.512  0.00  0.00    +0.292 HD
ENDBRANCH   1  22
BRANCH   3  24
ATOM     24  O   UNL     1      10.655   2.555  23.381  0.00  0.00    -0.506 OA
ATOM     25  H   UNL     1      11.033   1.826  23.922  0.00  0.00    +0.292 HD
ENDBRANCH   3  24
BRANCH   6  26
ATOM     26  O   UNL     1       9.987  -2.574  23.937  0.00  0.00    -0.501 OA
ATOM     27  H   UNL     1       9.624  -2.854  24.804  0.00  0.00    +0.292 HD
ENDBRANCH   6  26
TORSDOF 6
ENDMDL
MODEL 7
REMARK VINA RESULT:      -6.7      2.607      3.161
REMARK  Name = 
REMARK  6 active torsions:
REMARK  status: ('A' for Active; 'I' for Inactive)
REMARK    1  A    between atoms: O_1  and  C_2
REMARK    2  A    between atoms: C_6  and  O_7
REMARK    3  A    between atoms: C_11  and  O_12
REMARK    4  A    between atoms: C_13  and  C_15
REMARK    5  A    between atoms: C_18  and  O_19
REMARK    6  A    between atoms: C_20  and  O_21
REMARK                            x       y       z     vdW  Elec       q    Type
REMARK                         _______ _______ _______ _____ _____    ______ ____
ROOT
ATOM      1  C   UNL     1       4.995  -3.039  27.811  0.00  0.00    +0.124 A 
ATOM      2  C   UNL     1       5.450  -4.353  27.869  0.00  0.00    +0.091 A 
ATOM      3  C   UNL     1       6.583  -4.712  27.149  0.00  0.00    +0.135 A 
ATOM      4  C   UNL     1       7.253  -3.755  26.378  0.00  0.00    +0.109 A 
ATOM      5  C   UNL     1       8.447  -4.098  25.614  0.00  0.00    +0.238 A 
ATOM      6  C   UNL     1       9.085  -3.030  24.814  0.00  0.00    +0.208 A 
ATOM      7  C   UNL     1       8.554  -1.791  24.832  0.00  0.00    +0.181 A 
ATOM      8  O   UNL     1       7.411  -1.469  25.573  0.00  0.00    -0.451 OA
ATOM      9  O   UNL     1       8.921  -5.234  25.619  0.00  0.00    -0.283 OA
ATOM     10  C   UNL     1       6.792  -2.443  26.320  0.00  0.00    +0.147 A 
ATOM     11  C   UNL     1       5.652  -2.079  27.043  0.00  0.00    +0.092 A 
ENDROOT
BRANCH   7  12
ATOM     12  C   UNL     1       9.103  -0.640  24.056  0.00  0.00    +0.025 A 
ATOM     13  C   UNL     1       8.663  -0.394  22.743  0.00  0.00    +0.060 A 
ATOM     14  C   UNL     1       9.164   0.688  22.022  0.00  0.00    +0.159 A 
ATOM     15  C   UNL     1      10.111   1.544  22.575  0.00  0.00    +0.158 A 
ATOM     16  C   UNL     1      10.564   1.331  23.866  0.00  0.00    +0.050 A 
ATOM     17  C   UNL     1      10.047   0.255  24.602  0.00  0.00    +0.015 A 
BRANCH  14  18
ATOM     18  O   UNL     1       8.713   0.911  20.752  0.00  0.00    -0.503 OA
ATOM     19  H   UNL     1       8.609   1.883  20.696  0.00  0.00    +0.292 HD
ENDBRANCH  14  18
BRANCH  15  20
ATOM     20  O   UNL     1      10.561   2.585  21.813  0.00  0.00    -0.503 OA
ATOM     21  H   UNL     1      11.190   2.232  21.160  0.00  0.00    +0.292 HD
ENDBRANCH  15  20
ENDBRANCH   7  12
BRANCH   1  22
ATOM     22  O   UNL     1       3.881  -2.734  28.537  0.00  0.00    -0.507 OA
ATOM     23  H   UNL     1       3.823  -3.325  29.305  0.00  0.00    +0.292 HD
ENDBRANCH   1  22
BRANCH   3  24
ATOM     24  O   UNL     1       6.987  -6.017  27.239  0.00  0.00    -0.506 OA
ATOM     25  H   UNL     1       7.657  -6.087  27.955  0.00  0.00    +0.292 HD
ENDBRANCH   3  24
BRANCH   6  26
ATOM     26  O   UNL     1      10.199  -3.408  24.086  0.00  0.00    -0.501 OA
ATOM     27  H   UNL     1      10.186  -4.389  24.089  0.00  0.00    +0.292 HD
ENDBRANCH   6  26
TORSDOF 6
ENDMDL
MODEL 8
REMARK VINA RESULT:      -6.7      2.169      3.825
REMARK  Name = 
REMARK  6 active torsions:
REMARK  status: ('A' for Active; 'I' for Inactive)
REMARK    1  A    between atoms: O_1  and  C_2
REMARK    2  A    between atoms: C_6  and  O_7
REMARK    3  A    between atoms: C_11  and  O_12
REMARK    4  A    between atoms: C_13  and  C_15
REMARK    5  A    between atoms: C_18  and  O_19
REMARK    6  A    between atoms: C_20  and  O_21
REMARK                            x       y       z     vdW  Elec       q    Type
REMARK                         _______ _______ _______ _____ _____    ______ ____
ROOT
ATOM      1  C   UNL     1       3.314  -5.843  23.482  0.00  0.00    +0.124 A 
ATOM      2  C   UNL     1       3.331  -6.748  24.538  0.00  0.00    +0.091 A 
ATOM      3  C   UNL     1       4.350  -6.673  25.480  0.00  0.00    +0.135 A 
ATOM      4  C   UNL     1       5.343  -5.695  25.359  0.00  0.00    +0.109 A 
ATOM      5  C   UNL     1       6.423  -5.587  26.332  0.00  0.00    +0.238 A 
ATOM      6  C   UNL     1       7.440  -4.534  26.122  0.00  0.00    +0.208 A 
ATOM      7  C   UNL     1       7.323  -3.714  25.058  0.00  0.00    +0.181 A 
ATOM      8  O   UNL     1       6.280  -3.820  24.131  0.00  0.00    -0.451 OA
ATOM      9  O   UNL     1       6.507  -6.341  27.302  0.00  0.00    -0.283 OA
ATOM     10  C   UNL     1       5.324  -4.794  24.298  0.00  0.00    +0.147 A 
ATOM     11  C   UNL     1       4.300  -4.866  23.349  0.00  0.00    +0.092 A 
ENDROOT
BRANCH   7  12
ATOM     12  C   UNL     1       8.294  -2.625  24.737  0.00  0.00    +0.025 A 
ATOM     13  C   UNL     1       9.038  -2.666  23.544  0.00  0.00    +0.060 A 
ATOM     14  C   UNL     1       9.934  -1.645  23.236  0.00  0.00    +0.159 A 
ATOM     15  C   UNL     1      10.120  -0.569  24.097  0.00  0.00    +0.158 A 
ATOM     16  C   UNL     1       9.402  -0.497  25.278  0.00  0.00    +0.050 A 
ATOM     17  C   UNL     1       8.485  -1.512  25.582  0.00  0.00    +0.015 A 
BRANCH  14  18
ATOM     18  O   UNL     1      10.638  -1.704  22.066  0.00  0.00    -0.503 OA
ATOM     19  H   UNL     1      11.331  -1.019  22.163  0.00  0.00    +0.292 HD
ENDBRANCH  14  18
BRANCH  15  20
ATOM     20  O   UNL     1      11.016   0.398  23.734  0.00  0.00    -0.503 OA
ATOM     21  H   UNL     1      11.826  -0.041  23.423  0.00  0.00    +0.292 HD
ENDBRANCH  15  20
ENDBRANCH   7  12
BRANCH   1  22
ATOM     22  O   UNL     1       2.292  -5.952  22.585  0.00  0.00    -0.507 OA
ATOM     23  H   UNL     1       2.635  -6.296  21.743  0.00  0.00    +0.292 HD
ENDBRANCH   1  22
BRANCH   3  24
ATOM     24  O   UNL     1       4.320  -7.588  26.499  0.00  0.00    -0.506 OA
ATOM     25  H   UNL     1       3.954  -7.151  27.300  0.00  0.00    +0.292 HD
ENDBRANCH   3  24
BRANCH   6  26
ATOM     26  O   UNL     1       8.460  -4.488  27.055  0.00  0.00    -0.501 OA
ATOM     27  H   UNL     1       8.160  -3.843  27.730  0.00  0.00    +0.292 HD
ENDBRANCH   6  26
TORSDOF 6
ENDMDL
MODEL 9
REMARK VINA RESULT:      -6.6      2.008      7.161
REMARK  Name = 
REMARK  6 active torsions:
REMARK  status: ('A' for Active; 'I' for Inactive)
REMARK    1  A    between atoms: O_1  and  C_2
REMARK    2  A    between atoms: C_6  and  O_7
REMARK    3  A    between atoms: C_11  and  O_12
REMARK    4  A    between atoms: C_13  and  C_15
REMARK    5  A    between atoms: C_18  and  O_19
REMARK    6  A    between atoms: C_20  and  O_21
REMARK                            x       y       z     vdW  Elec       q    Type
REMARK                         _______ _______ _______ _____ _____    ______ ____
ROOT
ATOM      1  C   UNL     1       8.507   3.010  24.863  0.00  0.00    +0.124 A 
ATOM      2  C   UNL     1       9.131   3.146  23.627  0.00  0.00    +0.091 A 
ATOM      3  C   UNL     1       9.285   2.027  22.817  0.00  0.00    +0.135 A 
ATOM      4  C   UNL     1       8.813   0.782  23.248  0.00  0.00    +0.109 A 
ATOM      5  C   UNL     1       8.955  -0.410  22.422  0.00  0.00    +0.238 A 
ATOM      6  C   UNL     1       8.441  -1.689  22.959  0.00  0.00    +0.208 A 
ATOM      7  C   UNL     1       7.855  -1.701  24.174  0.00  0.00    +0.181 A 
ATOM      8  O   UNL     1       7.717  -0.550  24.959  0.00  0.00    -0.451 OA
ATOM      9  O   UNL     1       9.485  -0.376  21.311  0.00  0.00    -0.283 OA
ATOM     10  C   UNL     1       8.192   0.651  24.488  0.00  0.00    +0.147 A 
ATOM     11  C   UNL     1       8.036   1.775  25.305  0.00  0.00    +0.092 A 
ENDROOT
BRANCH   7  12
ATOM     12  C   UNL     1       7.312  -2.931  24.822  0.00  0.00    +0.025 A 
ATOM     13  C   UNL     1       8.124  -3.703  25.673  0.00  0.00    +0.060 A 
ATOM     14  C   UNL     1       7.616  -4.843  26.291  0.00  0.00    +0.159 A 
ATOM     15  C   UNL     1       6.303  -5.250  26.078  0.00  0.00    +0.158 A 
ATOM     16  C   UNL     1       5.476  -4.513  25.247  0.00  0.00    +0.050 A 
ATOM     17  C   UNL     1       5.978  -3.353  24.640  0.00  0.00    +0.015 A 
BRANCH  14  18
ATOM     18  O   UNL     1       8.421  -5.569  27.121  0.00  0.00    -0.503 OA
ATOM     19  H   UNL     1       7.809  -5.962  27.775  0.00  0.00    +0.292 HD
ENDBRANCH  14  18
BRANCH  15  20
ATOM     20  O   UNL     1       5.868  -6.380  26.714  0.00  0.00    -0.503 OA
ATOM     21  H   UNL     1       6.563  -6.666  27.332  0.00  0.00    +0.292 HD
ENDBRANCH  15  20
ENDBRANCH   7  12
BRANCH   1  22
ATOM     22  O   UNL     1       8.375   4.137  25.621  0.00  0.00    -0.507 OA
ATOM     23  H   UNL     1       8.496   4.921  25.060  0.00  0.00    +0.292 HD
ENDBRANCH   1  22
BRANCH   3  24
ATOM     24  O   UNL     1       9.908   2.215  21.612  0.00  0.00    -0.506 OA
ATOM     25  H   UNL     1      10.687   2.797  21.751  0.00  0.00    +0.292 HD
ENDBRANCH   3  24
BRANCH   6  26
ATOM     26  O   UNL     1       8.622  -2.797  22.151  0.00  0.00    -0.501 OA
ATOM     27  H   UNL     1       8.712  -3.552  22.771  0.00  0.00    +0.292 HD
ENDBRANCH   6  26
TORSDOF 6
ENDMDL
