MODEL 1
REMARK VINA RESULT:      -5.9      0.000      0.000
REMARK  Name = 
REMARK  10 active torsions:
REMARK  status: ('A' for Active; 'I' for Inactive)
REMARK    1  A    between atoms: CA_2  and  C_3
REMARK    2  A    between atoms: CA_2  and  N_7
REMARK    3  A    between atoms: CA_2  and  C_23
REMARK    4  A    between atoms: C_3  and  C_4
REMARK    5  A    between atoms: C_4  and  C_5
REMARK    6  A    between atoms: C_5  and  C_6
REMARK    7  A    between atoms: C_8  and  O_10
REMARK    8  A    between atoms: O_10  and  C_11
REMARK    9  A    between atoms: C_11  and  C_12
REMARK   10  A    between atoms: C_12  and  C_13
REMARK                            x       y       z     vdW  Elec       q    Type
REMARK                         _______ _______ _______ _____ _____    ______ ____
ROOT
ATOM      1  O   UNL     1       7.788  -3.628  23.018  0.00  0.00    -0.443 OA
ENDROOT
BRANCH   1   2
ATOM      2  C   UNL     1       8.582  -3.236  24.162  0.00  0.00    +0.119 C 
ATOM      3  C   UNL     1       8.803  -4.393  25.161  0.00  0.00    +0.048 C 
ATOM      4  C   UNL     1       8.748  -3.805  26.571  0.00  0.00    +0.004 C 
ATOM      5  C   UNL     1       8.394  -2.340  26.411  0.00  0.00    +0.004 C 
ATOM      6  C   UNL     1       7.778  -2.243  25.025  0.00  0.00    +0.048 C 
BRANCH   2   7
ATOM      7  C   UNL     1       9.904  -2.620  23.618  0.00  0.00    +0.083 C 
BRANCH   7   8
ATOM      8  C   UNL     1       9.903  -1.155  23.174  0.00  0.00    -0.044 A 
ATOM      9  C   UNL     1       9.389  -0.852  21.902  0.00  0.00    +0.004 A 
ATOM     10  C   UNL     1       9.382   0.462  21.419  0.00  0.00    +0.000 A 
ATOM     11  C   UNL     1       9.882   1.500  22.198  0.00  0.00    +0.000 A 
ATOM     12  C   UNL     1      10.374   1.227  23.467  0.00  0.00    +0.000 A 
ATOM     13  C   UNL     1      10.377  -0.086  23.950  0.00  0.00    +0.004 A 
ENDBRANCH   7   8
ENDBRANCH   2   7
ENDBRANCH   1   2
BRANCH   1  16
ATOM     14  N   UNL     1       6.044  -4.862  23.572  0.00  0.00    -0.272 N 
ATOM     15  H   UNL     1       5.584  -3.959  23.547  0.00  0.00    +0.153 HD
ATOM     16  C   UNL     1       7.263  -4.875  22.972  0.00  0.00    +0.401 C 
ATOM     17  O   UNL     1       7.761  -5.855  22.443  0.00  0.00    -0.226 OA
BRANCH  14  18
ATOM     18  CA  UNL     1       5.246  -6.067  23.705  0.00  0.00    +0.139 C 
BRANCH  18  19
ATOM     19  C   UNL     1       3.885  -5.919  23.028  0.00  0.00    +0.245 C 
ATOM     20  O   UNL     1       3.237  -4.877  22.978  0.00  0.00    -0.299 OA
ENDBRANCH  18  19
BRANCH  18  21
ATOM     21  C   UNL     1       5.073  -6.380  25.191  0.00  0.00    +0.030 C 
BRANCH  21  22
ATOM     22  C   UNL     1       5.207  -5.153  26.088  0.00  0.00    +0.002 C 
BRANCH  22  23
ATOM     23  C   UNL     1       5.774  -5.547  27.451  0.00  0.00    -0.003 C 
ATOM     24  C   UNL     1       5.053  -6.756  28.022  0.00  0.00    +0.004 C 
ENDBRANCH  22  23
ENDBRANCH  21  22
ENDBRANCH  18  21
ENDBRANCH  14  18
ENDBRANCH   1  16
TORSDOF 9
ENDMDL
MODEL 2
REMARK VINA RESULT:      -5.9      2.106      3.510
REMARK  Name = 
REMARK  10 active torsions:
REMARK  status: ('A' for Active; 'I' for Inactive)
REMARK    1  A    between atoms: CA_2  and  C_3
REMARK    2  A    between atoms: CA_2  and  N_7
REMARK    3  A    between atoms: CA_2  and  C_23
REMARK    4  A    between atoms: C_3  and  C_4
REMARK    5  A    between atoms: C_4  and  C_5
REMARK    6  A    between atoms: C_5  and  C_6
REMARK    7  A    between atoms: C_8  and  O_10
REMARK    8  A    between atoms: O_10  and  C_11
REMARK    9  A    between atoms: C_11  and  C_12
REMARK   10  A    between atoms: C_12  and  C_13
REMARK                            x       y       z     vdW  Elec       q    Type
REMARK                         _______ _______ _______ _____ _____    ______ ____
ROOT
ATOM      1  O   UNL     1       8.717  -2.878  25.497  0.00  0.00    -0.443 OA
ENDROOT
BRANCH   1   2
ATOM      2  C   UNL     1       8.474  -2.707  24.081  0.00  0.00    +0.119 C 
ATOM      3  C   UNL     1       7.233  -1.837  23.786  0.00  0.00    +0.048 C 
ATOM      4  C   UNL     1       6.531  -2.428  22.565  0.00  0.00    +0.004 C 
ATOM      5  C   UNL     1       7.287  -3.693  22.207  0.00  0.00    +0.004 C 
ATOM      6  C   UNL     1       8.046  -4.057  23.471  0.00  0.00    +0.048 C 
BRANCH   2   7
ATOM      7  C   UNL     1       9.787  -2.156  23.451  0.00  0.00    +0.083 C 
BRANCH   7   8
ATOM      8  C   UNL     1       9.968  -0.641  23.340  0.00  0.00    -0.044 A 
ATOM      9  C   UNL     1       9.758  -0.042  22.087  0.00  0.00    +0.004 A 
ATOM     10  C   UNL     1       9.933   1.336  21.905  0.00  0.00    +0.000 A 
ATOM     11  C   UNL     1      10.315   2.142  22.971  0.00  0.00    +0.000 A 
ATOM     12  C   UNL     1      10.506   1.575  24.225  0.00  0.00    +0.000 A 
ATOM     13  C   UNL     1      10.327   0.200  24.406  0.00  0.00    +0.004 A 
ENDBRANCH   7   8
ENDBRANCH   2   7
ENDBRANCH   1   2
BRANCH   1  16
ATOM     14  N   UNL     1       7.148  -3.965  26.606  0.00  0.00    -0.272 N 
ATOM     15  H   UNL     1       7.798  -4.732  26.481  0.00  0.00    +0.153 HD
ATOM     16  C   UNL     1       7.687  -2.742  26.366  0.00  0.00    +0.401 C 
ATOM     17  O   UNL     1       7.315  -1.707  26.897  0.00  0.00    -0.226 OA
BRANCH  14  18
ATOM     18  CA  UNL     1       6.001  -4.136  27.480  0.00  0.00    +0.139 C 
BRANCH  18  19
ATOM     19  C   UNL     1       6.096  -5.428  28.288  0.00  0.00    +0.245 C 
ATOM     20  O   UNL     1       7.077  -6.167  28.315  0.00  0.00    -0.299 OA
ENDBRANCH  18  19
BRANCH  18  21
ATOM     21  C   UNL     1       4.730  -4.129  26.630  0.00  0.00    +0.030 C 
BRANCH  21  22
ATOM     22  C   UNL     1       4.831  -5.005  25.384  0.00  0.00    +0.002 C 
BRANCH  22  23
ATOM     23  C   UNL     1       4.095  -4.354  24.213  0.00  0.00    -0.003 C 
ATOM     24  C   UNL     1       3.518  -5.397  23.272  0.00  0.00    +0.004 C 
ENDBRANCH  22  23
ENDBRANCH  21  22
ENDBRANCH  18  21
ENDBRANCH  14  18
ENDBRANCH   1  16
TORSDOF 9
ENDMDL
MODEL 3
REMARK VINA RESULT:      -5.8      2.178      7.347
REMARK  Name = 
REMARK  10 active torsions:
REMARK  status: ('A' for Active; 'I' for Inactive)
REMARK    1  A    between atoms: CA_2  and  C_3
REMARK    2  A    between atoms: CA_2  and  N_7
REMARK    3  A    between atoms: CA_2  and  C_23
REMARK    4  A    between atoms: C_3  and  C_4
REMARK    5  A    between atoms: C_4  and  C_5
REMARK    6  A    between atoms: C_5  and  C_6
REMARK    7  A    between atoms: C_8  and  O_10
REMARK    8  A    between atoms: O_10  and  C_11
REMARK    9  A    between atoms: C_11  and  C_12
REMARK   10  A    between atoms: C_12  and  C_13
REMARK                            x       y       z     vdW  Elec       q    Type
REMARK                         _______ _______ _______ _____ _____    ______ ____
ROOT
ATOM      1  O   UNL     1       8.031  -2.833  24.720  0.00  0.00    -0.443 OA
ENDROOT
BRANCH   1   2
ATOM      2  C   UNL     1       7.094  -3.660  23.992  0.00  0.00    +0.119 C 
ATOM      3  C   UNL     1       7.214  -3.497  22.461  0.00  0.00    +0.048 C 
ATOM      4  C   UNL     1       5.804  -3.560  21.876  0.00  0.00    +0.004 C 
ATOM      5  C   UNL     1       4.855  -3.653  23.054  0.00  0.00    +0.004 C 
ATOM      6  C   UNL     1       5.661  -3.146  24.238  0.00  0.00    +0.048 C 
BRANCH   2   7
ATOM      7  C   UNL     1       7.294  -5.125  24.482  0.00  0.00    +0.083 C 
BRANCH   7   8
ATOM      8  C   UNL     1       6.519  -5.601  25.712  0.00  0.00    -0.044 A 
ATOM      9  C   UNL     1       7.037  -5.288  26.979  0.00  0.00    +0.004 A 
ATOM     10  C   UNL     1       6.395  -5.715  28.149  0.00  0.00    +0.000 A 
ATOM     11  C   UNL     1       5.221  -6.456  28.075  0.00  0.00    +0.000 A 
ATOM     12  C   UNL     1       4.678  -6.758  26.834  0.00  0.00    +0.000 A 
ATOM     13  C   UNL     1       5.318  -6.327  25.666  0.00  0.00    +0.004 A 
ENDBRANCH   7   8
ENDBRANCH   2   7
ENDBRANCH   1   2
BRANCH   1  16
ATOM     14  N   UNL     1       9.156  -1.201  23.750  0.00  0.00    -0.272 N 
ATOM     15  H   UNL     1       8.514  -0.635  24.292  0.00  0.00    +0.153 HD
ATOM     16  C   UNL     1       9.209  -2.500  24.141  0.00  0.00    +0.401 C 
ATOM     17  O   UNL     1      10.189  -3.218  24.021  0.00  0.00    -0.226 OA
BRANCH  14  18
ATOM     18  CA  UNL     1      10.267  -0.564  23.066  0.00  0.00    +0.139 C 
BRANCH  18  19
ATOM     19  C   UNL     1      10.924   0.506  23.935  0.00  0.00    +0.245 C 
ATOM     20  O   UNL     1      10.620   0.747  25.100  0.00  0.00    -0.299 OA
ENDBRANCH  18  19
BRANCH  18  21
ATOM     21  C   UNL     1       9.756   0.047  21.761  0.00  0.00    +0.030 C 
BRANCH  21  22
ATOM     22  C   UNL     1       9.722   1.573  21.780  0.00  0.00    +0.002 C 
BRANCH  22  23
ATOM     23  C   UNL     1       8.278   2.074  21.797  0.00  0.00    -0.003 C 
ATOM     24  C   UNL     1       8.037   3.031  22.951  0.00  0.00    +0.004 C 
ENDBRANCH  22  23
ENDBRANCH  21  22
ENDBRANCH  18  21
ENDBRANCH  14  18
ENDBRANCH   1  16
TORSDOF 9
ENDMDL
MODEL 4
REMARK VINA RESULT:      -5.8      2.147      4.165
REMARK  Name = 
REMARK  10 active torsions:
REMARK  status: ('A' for Active; 'I' for Inactive)
REMARK    1  A    between atoms: CA_2  and  C_3
REMARK    2  A    between atoms: CA_2  and  N_7
REMARK    3  A    between atoms: CA_2  and  C_23
REMARK    4  A    between atoms: C_3  and  C_4
REMARK    5  A    between atoms: C_4  and  C_5
REMARK    6  A    between atoms: C_5  and  C_6
REMARK    7  A    between atoms: C_8  and  O_10
REMARK    8  A    between atoms: O_10  and  C_11
REMARK    9  A    between atoms: C_11  and  C_12
REMARK   10  A    between atoms: C_12  and  C_13
REMARK                            x       y       z     vdW  Elec       q    Type
REMARK                         _______ _______ _______ _____ _____    ______ ____
ROOT
ATOM      1  O   UNL     1       7.580  -1.157  24.652  0.00  0.00    -0.443 OA
ENDROOT
BRANCH   1   2
ATOM      2  C   UNL     1       8.736  -0.697  23.914  0.00  0.00    +0.119 C 
ATOM      3  C   UNL     1       8.367  -0.060  22.557  0.00  0.00    +0.048 C 
ATOM      4  C   UNL     1       9.439  -0.465  21.546  0.00  0.00    +0.004 C 
ATOM      5  C   UNL     1      10.373  -1.414  22.271  0.00  0.00    +0.004 C 
ATOM      6  C   UNL     1       9.568  -1.913  23.459  0.00  0.00    +0.048 C 
BRANCH   2   7
ATOM      7  C   UNL     1       9.534   0.254  24.853  0.00  0.00    +0.083 C 
BRANCH   7   8
ATOM      8  C   UNL     1       9.615   1.740  24.496  0.00  0.00    -0.044 A 
ATOM      9  C   UNL     1      10.729   2.183  23.765  0.00  0.00    +0.004 A 
ATOM     10  C   UNL     1      10.882   3.534  23.427  0.00  0.00    +0.000 A 
ATOM     11  C   UNL     1       9.924   4.466  23.809  0.00  0.00    +0.000 A 
ATOM     12  C   UNL     1       8.803   4.048  24.513  0.00  0.00    +0.000 A 
ATOM     13  C   UNL     1       8.649   2.698  24.846  0.00  0.00    +0.004 A 
ENDBRANCH   7   8
ENDBRANCH   2   7
ENDBRANCH   1   2
BRANCH   1  16
ATOM     14  N   UNL     1       7.341  -3.339  24.889  0.00  0.00    -0.272 N 
ATOM     15  H   UNL     1       7.450  -3.311  23.881  0.00  0.00    +0.153 HD
ATOM     16  C   UNL     1       7.714  -2.193  25.514  0.00  0.00    +0.401 C 
ATOM     17  O   UNL     1       8.144  -2.138  26.655  0.00  0.00    -0.226 OA
BRANCH  14  18
ATOM     18  CA  UNL     1       7.348  -4.619  25.573  0.00  0.00    +0.139 C 
BRANCH  18  19
ATOM     19  C   UNL     1       8.722  -5.282  25.514  0.00  0.00    +0.245 C 
ATOM     20  O   UNL     1       9.303  -5.603  24.481  0.00  0.00    -0.299 OA
ENDBRANCH  18  19
BRANCH  18  21
ATOM     21  C   UNL     1       6.292  -5.523  24.936  0.00  0.00    +0.030 C 
BRANCH  21  22
ATOM     22  C   UNL     1       5.694  -4.945  23.656  0.00  0.00    +0.002 C 
BRANCH  22  23
ATOM     23  C   UNL     1       5.816  -5.949  22.510  0.00  0.00    -0.003 C 
ATOM     24  C   UNL     1       7.114  -5.759  21.744  0.00  0.00    +0.004 C 
ENDBRANCH  22  23
ENDBRANCH  21  22
ENDBRANCH  18  21
ENDBRANCH  14  18
ENDBRANCH   1  16
TORSDOF 9
ENDMDL
MODEL 5
REMARK VINA RESULT:      -5.8      2.434      4.153
REMARK  Name = 
REMARK  10 active torsions:
REMARK  status: ('A' for Active; 'I' for Inactive)
REMARK    1  A    between atoms: CA_2  and  C_3
REMARK    2  A    between atoms: CA_2  and  N_7
REMARK    3  A    between atoms: CA_2  and  C_23
REMARK    4  A    between atoms: C_3  and  C_4
REMARK    5  A    between atoms: C_4  and  C_5
REMARK    6  A    between atoms: C_5  and  C_6
REMARK    7  A    between atoms: C_8  and  O_10
REMARK    8  A    between atoms: O_10  and  C_11
REMARK    9  A    between atoms: C_11  and  C_12
REMARK   10  A    between atoms: C_12  and  C_13
REMARK                            x       y       z     vdW  Elec       q    Type
REMARK                         _______ _______ _______ _____ _____    ______ ____
ROOT
ATOM      1  O   UNL     1       9.010  -1.700  25.879  0.00  0.00    -0.443 OA
ENDROOT
BRANCH   1   2
ATOM      2  C   UNL     1       9.336  -1.116  24.597  0.00  0.00    +0.119 C 
ATOM      3  C   UNL     1       8.086  -0.787  23.752  0.00  0.00    +0.048 C 
ATOM      4  C   UNL     1       8.416  -1.097  22.293  0.00  0.00    +0.004 C 
ATOM      5  C   UNL     1       9.808  -1.700  22.288  0.00  0.00    +0.004 C 
ATOM      6  C   UNL     1      10.025  -2.176  23.714  0.00  0.00    +0.048 C 
BRANCH   2   7
ATOM      7  C   UNL     1      10.248   0.117  24.869  0.00  0.00    +0.083 C 
BRANCH   7   8
ATOM      8  C   UNL     1       9.679   1.518  24.628  0.00  0.00    -0.044 A 
ATOM      9  C   UNL     1      10.374   2.370  23.754  0.00  0.00    +0.004 A 
ATOM     10  C   UNL     1       9.927   3.674  23.508  0.00  0.00    +0.000 A 
ATOM     11  C   UNL     1       8.776   4.150  24.125  0.00  0.00    +0.000 A 
ATOM     12  C   UNL     1       8.060   3.318  24.975  0.00  0.00    +0.000 A 
ATOM     13  C   UNL     1       8.505   2.014  25.217  0.00  0.00    +0.004 A 
ENDBRANCH   7   8
ENDBRANCH   2   7
ENDBRANCH   1   2
BRANCH   1  16
ATOM     14  N   UNL     1       7.766  -3.521  25.788  0.00  0.00    -0.272 N 
ATOM     15  H   UNL     1       8.671  -3.965  25.894  0.00  0.00    +0.153 HD
ATOM     16  C   UNL     1       7.767  -2.195  26.084  0.00  0.00    +0.401 C 
ATOM     17  O   UNL     1       6.801  -1.583  26.509  0.00  0.00    -0.226 OA
BRANCH  14  18
ATOM     18  CA  UNL     1       6.561  -4.324  25.881  0.00  0.00    +0.139 C 
BRANCH  18  19
ATOM     19  C   UNL     1       6.616  -5.288  27.064  0.00  0.00    +0.245 C 
ATOM     20  O   UNL     1       7.650  -5.714  27.573  0.00  0.00    -0.299 OA
ENDBRANCH  18  19
BRANCH  18  21
ATOM     21  C   UNL     1       6.379  -5.092  24.572  0.00  0.00    +0.030 C 
BRANCH  21  22
ATOM     22  C   UNL     1       7.594  -5.015  23.651  0.00  0.00    +0.002 C 
BRANCH  22  23
ATOM     23  C   UNL     1       7.161  -4.673  22.226  0.00  0.00    -0.003 C 
ATOM     24  C   UNL     1       6.678  -5.906  21.483  0.00  0.00    +0.004 C 
ENDBRANCH  22  23
ENDBRANCH  21  22
ENDBRANCH  18  21
ENDBRANCH  14  18
ENDBRANCH   1  16
TORSDOF 9
ENDMDL
MODEL 6
REMARK VINA RESULT:      -5.7      1.885      2.900
REMARK  Name = 
REMARK  10 active torsions:
REMARK  status: ('A' for Active; 'I' for Inactive)
REMARK    1  A    between atoms: CA_2  and  C_3
REMARK    2  A    between atoms: CA_2  and  N_7
REMARK    3  A    between atoms: CA_2  and  C_23
REMARK    4  A    between atoms: C_3  and  C_4
REMARK    5  A    between atoms: C_4  and  C_5
REMARK    6  A    between atoms: C_5  and  C_6
REMARK    7  A    between atoms: C_8  and  O_10
REMARK    8  A    between atoms: O_10  and  C_11
REMARK    9  A    between atoms: C_11  and  C_12
REMARK   10  A    between atoms: C_12  and  C_13
REMARK                            x       y       z     vdW  Elec       q    Type
REMARK                         _______ _______ _______ _____ _____    ______ ____
ROOT
ATOM      1  O   UNL     1       7.580  -2.036  24.100  0.00  0.00    -0.443 OA
ENDROOT
BRANCH   1   2
ATOM      2  C   UNL     1       8.630  -2.966  24.455  0.00  0.00    +0.119 C 
ATOM      3  C   UNL     1       8.321  -4.414  24.018  0.00  0.00    +0.048 C 
ATOM      4  C   UNL     1       8.838  -5.350  25.110  0.00  0.00    +0.004 C 
ATOM      5  C   UNL     1       9.351  -4.461  26.226  0.00  0.00    +0.004 C 
ATOM      6  C   UNL     1       8.681  -3.119  25.988  0.00  0.00    +0.048 C 
BRANCH   2   7
ATOM      7  C   UNL     1       9.960  -2.407  23.866  0.00  0.00    +0.083 C 
BRANCH   7   8
ATOM      8  C   UNL     1      10.022  -0.931  23.466  0.00  0.00    -0.044 A 
ATOM      9  C   UNL     1      10.314   0.011  24.465  0.00  0.00    +0.004 A 
ATOM     10  C   UNL     1      10.360   1.381  24.176  0.00  0.00    +0.000 A 
ATOM     11  C   UNL     1      10.121   1.835  22.884  0.00  0.00    +0.000 A 
ATOM     12  C   UNL     1       9.852   0.920  21.875  0.00  0.00    +0.000 A 
ATOM     13  C   UNL     1       9.811  -0.448  22.164  0.00  0.00    +0.004 A 
ENDBRANCH   7   8
ENDBRANCH   2   7
ENDBRANCH   1   2
BRANCH   1  16
ATOM     14  N   UNL     1       5.665  -2.991  24.640  0.00  0.00    -0.272 N 
ATOM     15  H   UNL     1       5.869  -2.556  25.532  0.00  0.00    +0.153 HD
ATOM     16  C   UNL     1       6.411  -2.513  23.611  0.00  0.00    +0.401 C 
ATOM     17  O   UNL     1       6.045  -2.485  22.447  0.00  0.00    -0.226 OA
BRANCH  14  18
ATOM     18  CA  UNL     1       4.364  -3.598  24.422  0.00  0.00    +0.139 C 
BRANCH  18  19
ATOM     19  C   UNL     1       3.397  -3.280  25.560  0.00  0.00    +0.245 C 
ATOM     20  O   UNL     1       2.423  -2.539  25.465  0.00  0.00    -0.299 OA
ENDBRANCH  18  19
BRANCH  18  21
ATOM     21  C   UNL     1       4.545  -5.110  24.280  0.00  0.00    +0.030 C 
BRANCH  21  22
ATOM     22  C   UNL     1       4.457  -5.597  22.837  0.00  0.00    +0.002 C 
BRANCH  22  23
ATOM     23  C   UNL     1       5.788  -6.204  22.396  0.00  0.00    -0.003 C 
ATOM     24  C   UNL     1       6.207  -5.689  21.030  0.00  0.00    +0.004 C 
ENDBRANCH  22  23
ENDBRANCH  21  22
ENDBRANCH  18  21
ENDBRANCH  14  18
ENDBRANCH   1  16
TORSDOF 9
ENDMDL
MODEL 7
REMARK VINA RESULT:      -5.7      2.319      4.650
REMARK  Name = 
REMARK  10 active torsions:
REMARK  status: ('A' for Active; 'I' for Inactive)
REMARK    1  A    between atoms: CA_2  and  C_3
REMARK    2  A    between atoms: CA_2  and  N_7
REMARK    3  A    between atoms: CA_2  and  C_23
REMARK    4  A    between atoms: C_3  and  C_4
REMARK    5  A    between atoms: C_4  and  C_5
REMARK    6  A    between atoms: C_5  and  C_6
REMARK    7  A    between atoms: C_8  and  O_10
REMARK    8  A    between atoms: O_10  and  C_11
REMARK    9  A    between atoms: C_11  and  C_12
REMARK   10  A    between atoms: C_12  and  C_13
REMARK                            x       y       z     vdW  Elec       q    Type
REMARK                         _______ _______ _______ _____ _____    ______ ____
ROOT
ATOM      1  O   UNL     1       8.387  -3.094  26.251  0.00  0.00    -0.443 OA
ENDROOT
BRANCH   1   2
ATOM      2  C   UNL     1       8.418  -2.488  24.938  0.00  0.00    +0.119 C 
ATOM      3  C   UNL     1       9.604  -2.979  24.079  0.00  0.00    +0.048 C 
ATOM      4  C   UNL     1      10.117  -1.788  23.271  0.00  0.00    +0.004 C 
ATOM      5  C   UNL     1       9.313  -0.585  23.724  0.00  0.00    +0.004 C 
ATOM      6  C   UNL     1       8.748  -0.988  25.076  0.00  0.00    +0.048 C 
BRANCH   2   7
ATOM      7  C   UNL     1       7.028  -2.736  24.282  0.00  0.00    +0.083 C 
BRANCH   7   8
ATOM      8  C   UNL     1       6.901  -3.832  23.221  0.00  0.00    -0.044 A 
ATOM      9  C   UNL     1       6.313  -3.494  21.992  0.00  0.00    +0.004 A 
ATOM     10  C   UNL     1       6.140  -4.452  20.985  0.00  0.00    +0.000 A 
ATOM     11  C   UNL     1       6.555  -5.764  21.185  0.00  0.00    +0.000 A 
ATOM     12  C   UNL     1       7.160  -6.115  22.384  0.00  0.00    +0.000 A 
ATOM     13  C   UNL     1       7.337  -5.156  23.387  0.00  0.00    +0.004 A 
ENDBRANCH   7   8
ENDBRANCH   2   7
ENDBRANCH   1   2
BRANCH   1  16
ATOM     14  N   UNL     1       7.138  -4.788  26.916  0.00  0.00    -0.272 N 
ATOM     15  H   UNL     1       8.045  -5.231  27.003  0.00  0.00    +0.153 HD
ATOM     16  C   UNL     1       7.195  -3.437  26.794  0.00  0.00    +0.401 C 
ATOM     17  O   UNL     1       6.319  -2.673  27.165  0.00  0.00    -0.226 OA
BRANCH  14  18
ATOM     18  CA  UNL     1       5.962  -5.459  27.441  0.00  0.00    +0.139 C 
BRANCH  18  19
ATOM     19  C   UNL     1       6.296  -6.298  28.672  0.00  0.00    +0.245 C 
ATOM     20  O   UNL     1       5.983  -7.476  28.823  0.00  0.00    -0.299 OA
ENDBRANCH  18  19
BRANCH  18  21
ATOM     21  C   UNL     1       5.364  -6.336  26.341  0.00  0.00    +0.030 C 
BRANCH  21  22
ATOM     22  C   UNL     1       4.242  -5.652  25.566  0.00  0.00    +0.002 C 
BRANCH  22  23
ATOM     23  C   UNL     1       3.790  -6.528  24.398  0.00  0.00    -0.003 C 
ATOM     24  C   UNL     1       3.449  -5.691  23.177  0.00  0.00    +0.004 C 
ENDBRANCH  22  23
ENDBRANCH  21  22
ENDBRANCH  18  21
ENDBRANCH  14  18
ENDBRANCH   1  16
TORSDOF 9
ENDMDL
MODEL 8
REMARK VINA RESULT:      -5.7      1.729      2.481
REMARK  Name = 
REMARK  10 active torsions:
REMARK  status: ('A' for Active; 'I' for Inactive)
REMARK    1  A    between atoms: CA_2  and  C_3
REMARK    2  A    between atoms: CA_2  and  N_7
REMARK    3  A    between atoms: CA_2  and  C_23
REMARK    4  A    between atoms: C_3  and  C_4
REMARK    5  A    between atoms: C_4  and  C_5
REMARK    6  A    between atoms: C_5  and  C_6
REMARK    7  A    between atoms: C_8  and  O_10
REMARK    8  A    between atoms: O_10  and  C_11
REMARK    9  A    between atoms: C_11  and  C_12
REMARK   10  A    between atoms: C_12  and  C_13
REMARK                            x       y       z     vdW  Elec       q    Type
REMARK                         _______ _______ _______ _____ _____    ______ ____
ROOT
ATOM      1  O   UNL     1       8.770  -2.793  23.719  0.00  0.00    -0.443 OA
ENDROOT
BRANCH   1   2
ATOM      2  C   UNL     1       8.358  -1.909  24.788  0.00  0.00    +0.119 C 
ATOM      3  C   UNL     1       7.910  -2.669  26.055  0.00  0.00    +0.048 C 
ATOM      4  C   UNL     1       6.726  -1.912  26.657  0.00  0.00    +0.004 C 
ATOM      5  C   UNL     1       6.413  -0.778  25.699  0.00  0.00    +0.004 C 
ATOM      6  C   UNL     1       7.051  -1.197  24.386  0.00  0.00    +0.048 C 
BRANCH   2   7
ATOM      7  C   UNL     1       9.528  -0.912  25.039  0.00  0.00    +0.083 C 
BRANCH   7   8
ATOM      8  C   UNL     1       9.635   0.332  24.153  0.00  0.00    -0.044 A 
ATOM      9  C   UNL     1       9.372   1.581  24.736  0.00  0.00    +0.004 A 
ATOM     10  C   UNL     1       9.425   2.758  23.979  0.00  0.00    +0.000 A 
ATOM     11  C   UNL     1       9.746   2.710  22.627  0.00  0.00    +0.000 A 
ATOM     12  C   UNL     1      10.033   1.488  22.034  0.00  0.00    +0.000 A 
ATOM     13  C   UNL     1       9.984   0.314  22.793  0.00  0.00    +0.004 A 
ENDBRANCH   7   8
ENDBRANCH   2   7
ENDBRANCH   1   2
BRANCH   1  16
ATOM     14  N   UNL     1       7.254  -4.218  22.983  0.00  0.00    -0.272 N 
ATOM     15  H   UNL     1       7.172  -3.523  22.250  0.00  0.00    +0.153 HD
ATOM     16  C   UNL     1       8.373  -4.087  23.741  0.00  0.00    +0.401 C 
ATOM     17  O   UNL     1       8.938  -5.012  24.303  0.00  0.00    -0.226 OA
BRANCH  14  18
ATOM     18  CA  UNL     1       6.574  -5.493  22.839  0.00  0.00    +0.139 C 
BRANCH  18  19
ATOM     19  C   UNL     1       6.596  -5.982  21.393  0.00  0.00    +0.245 C 
ATOM     20  O   UNL     1       5.953  -5.482  20.474  0.00  0.00    -0.299 OA
ENDBRANCH  18  19
BRANCH  18  21
ATOM     21  C   UNL     1       5.135  -5.340  23.330  0.00  0.00    +0.030 C 
BRANCH  21  22
ATOM     22  C   UNL     1       4.645  -3.894  23.330  0.00  0.00    +0.002 C 
BRANCH  22  23
ATOM     23  C   UNL     1       4.009  -3.546  24.675  0.00  0.00    -0.003 C 
ATOM     24  C   UNL     1       4.350  -4.580  25.734  0.00  0.00    +0.004 C 
ENDBRANCH  22  23
ENDBRANCH  21  22
ENDBRANCH  18  21
ENDBRANCH  14  18
ENDBRANCH   1  16
TORSDOF 9
ENDMDL
MODEL 9
REMARK VINA RESULT:      -5.6      2.101      6.875
REMARK  Name = 
REMARK  10 active torsions:
REMARK  status: ('A' for Active; 'I' for Inactive)
REMARK    1  A    between atoms: CA_2  and  C_3
REMARK    2  A    between atoms: CA_2  and  N_7
REMARK    3  A    between atoms: CA_2  and  C_23
REMARK    4  A    between atoms: C_3  and  C_4
REMARK    5  A    between atoms: C_4  and  C_5
REMARK    6  A    between atoms: C_5  and  C_6
REMARK    7  A    between atoms: C_8  and  O_10
REMARK    8  A    between atoms: O_10  and  C_11
REMARK    9  A    between atoms: C_11  and  C_12
REMARK   10  A    between atoms: C_12  and  C_13
REMARK                            x       y       z     vdW  Elec       q    Type
REMARK                         _______ _______ _______ _____ _____    ______ ____
ROOT
ATOM      1  O   UNL     1       8.276  -2.993  22.537  0.00  0.00    -0.443 OA
ENDROOT
BRANCH   1   2
ATOM      2  C   UNL     1       7.237  -3.975  22.759  0.00  0.00    +0.119 C 
ATOM      3  C   UNL     1       7.791  -5.407  22.920  0.00  0.00    +0.048 C 
ATOM      4  C   UNL     1       6.815  -6.363  22.235  0.00  0.00    +0.004 C 
ATOM      5  C   UNL     1       5.752  -5.496  21.587  0.00  0.00    +0.004 C 
ATOM      6  C   UNL     1       6.391  -4.122  21.479  0.00  0.00    +0.048 C 
BRANCH   2   7
ATOM      7  C   UNL     1       6.397  -3.490  23.978  0.00  0.00    +0.083 C 
BRANCH   7   8
ATOM      8  C   UNL     1       6.213  -4.437  25.166  0.00  0.00    -0.044 A 
ATOM      9  C   UNL     1       7.178  -4.409  26.186  0.00  0.00    +0.004 A 
ATOM     10  C   UNL     1       7.089  -5.267  27.290  0.00  0.00    +0.000 A 
ATOM     11  C   UNL     1       6.033  -6.164  27.398  0.00  0.00    +0.000 A 
ATOM     12  C   UNL     1       5.055  -6.194  26.413  0.00  0.00    +0.000 A 
ATOM     13  C   UNL     1       5.143  -5.334  25.314  0.00  0.00    +0.004 A 
ENDBRANCH   7   8
ENDBRANCH   2   7
ENDBRANCH   1   2
BRANCH   1  16
ATOM     14  N   UNL     1       8.987  -1.386  23.872  0.00  0.00    -0.272 N 
ATOM     15  H   UNL     1       8.069  -1.009  23.664  0.00  0.00    +0.153 HD
ATOM     16  C   UNL     1       9.131  -2.696  23.543  0.00  0.00    +0.401 C 
ATOM     17  O   UNL     1       9.885  -3.471  24.110  0.00  0.00    -0.226 OA
BRANCH  14  18
ATOM     18  CA  UNL     1       9.797  -0.764  24.904  0.00  0.00    +0.139 C 
BRANCH  18  19
ATOM     19  C   UNL     1       8.941  -0.241  26.054  0.00  0.00    +0.245 C 
ATOM     20  O   UNL     1       8.262  -0.943  26.799  0.00  0.00    -0.299 OA
ENDBRANCH  18  19
BRANCH  18  21
ATOM     21  C   UNL     1      10.604   0.373  24.277  0.00  0.00    +0.030 C 
BRANCH  21  22
ATOM     22  C   UNL     1       9.778   1.631  24.020  0.00  0.00    +0.002 C 
BRANCH  22  23
ATOM     23  C   UNL     1      10.000   2.133  22.594  0.00  0.00    -0.003 C 
ATOM     24  C   UNL     1       9.049   1.466  21.617  0.00  0.00    +0.004 C 
ENDBRANCH  22  23
ENDBRANCH  21  22
ENDBRANCH  18  21
ENDBRANCH  14  18
ENDBRANCH   1  16
TORSDOF 9
ENDMDL
