MODEL 1
REMARK VINA RESULT:      -7.7      0.000      0.000
REMARK  Name = 
REMARK  10 active torsions:
REMARK  status: ('A' for Active; 'I' for Inactive)
REMARK    1  A    between atoms: C_1  and  N_2
REMARK    2  A    between atoms: N_2  and  C_3
REMARK    3  A    between atoms: N_2  and  C_4
REMARK    4  A    between atoms: C_8  and  C_21
REMARK    5  A    between atoms: C_12  and  N_18
REMARK    6  A    between atoms: N_18  and  C_19
REMARK    7  A    between atoms: N_18  and  C_20
REMARK    8  A    between atoms: C_24  and  N_30
REMARK    9  A    between atoms: C_26  and  C_27
REMARK   10  A    between atoms: C_27  and  O_28
REMARK                            x       y       z     vdW  Elec       q    Type
REMARK                         _______ _______ _______ _____ _____    ______ ____
ROOT
ATOM      1  C   UNL     1      11.057   4.769  23.639  0.00  0.00    +0.029 C 
ATOM      2  C   UNL     1       9.739   5.376  23.561  0.00  0.00    +0.069 C 
ATOM      3  C   UNL     1       8.591   4.691  23.448  0.00  0.00    +0.134 C 
ATOM      4  C   UNL     1       8.535   3.230  23.376  0.00  0.00    +0.007 C 
ATOM      5  C   UNL     1       7.360   2.574  23.158  0.00  0.00    +0.001 C 
ATOM      6  C   UNL     1       6.161   3.417  22.937  0.00  0.00    +0.025 A 
ATOM      7  C   UNL     1       6.231   4.783  23.170  0.00  0.00    +0.138 A 
ATOM      8  C   UNL     1       5.097   5.609  23.110  0.00  0.00    +0.070 A 
ATOM      9  C   UNL     1       3.837   5.105  22.776  0.00  0.00    +0.033 A 
ATOM     10  C   UNL     1       3.804   3.743  22.433  0.00  0.00    +0.024 A 
ATOM     11  C   UNL     1       4.933   2.907  22.519  0.00  0.00    +0.014 A 
ATOM     12  C   UNL     1       9.875   2.527  23.556  0.00  0.00    +0.068 C 
ATOM     13  O   UNL     1       7.409   5.418  23.468  0.00  0.00    -0.455 OA
ATOM     14  C   UNL     1      11.085   3.423  23.639  0.00  0.00    +0.001 C 
ENDROOT
BRANCH   5  15
ATOM     15  C   UNL     1       7.337   1.083  23.258  0.00  0.00    -0.003 A 
ATOM     16  C   UNL     1       6.614   0.311  24.181  0.00  0.00    +0.068 A 
ATOM     17  C   UNL     1       6.576  -1.104  24.028  0.00  0.00    +0.039 A 
ATOM     18  C   UNL     1       7.289  -1.789  23.028  0.00  0.00    +0.045 A 
ATOM     19  C   UNL     1       8.104  -1.006  22.205  0.00  0.00    +0.024 A 
ATOM     20  C   UNL     1       8.114   0.396  22.304  0.00  0.00    +0.011 A 
BRANCH  18  21
ATOM     21  N   UNL     1       7.198  -3.208  22.872  0.00  0.00    -0.203 N 
ATOM     22  C   UNL     1       6.283  -3.862  22.086  0.00  0.00    +0.250 C 
ATOM     23  O   UNL     1       5.439  -3.437  21.318  0.00  0.00    -0.270 OA
ATOM     24  C   UNL     1       6.523  -5.303  22.222  0.00  0.00    +0.073 C 
ATOM     25  C   UNL     1       7.585  -5.466  23.003  0.00  0.00    +0.073 C 
ATOM     26  C   UNL     1       8.050  -4.135  23.409  0.00  0.00    +0.250 C 
ATOM     27  O   UNL     1       9.042  -4.008  24.109  0.00  0.00    -0.270 OA
ENDBRANCH  18  21
BRANCH  16  28
ATOM     28  C   UNL     1       5.957   0.821  25.422  0.00  0.00    +0.337 C 
ATOM     29  O   UNL     1       6.623   1.142  26.396  0.00  0.00    -0.245 OA
BRANCH  28  30
ATOM     30  O   UNL     1       4.616   0.905  25.441  0.00  0.00    -0.477 OA
ATOM     31  H   UNL     1       4.203   1.368  26.187  0.00  0.00    +0.295 HD
ENDBRANCH  28  30
ENDBRANCH  16  28
ENDBRANCH   5  15
BRANCH   1  33
ATOM     32  C   UNL     1      12.337   6.612  24.770  0.00  0.00    +0.129 C 
ATOM     33  N   UNL     1      12.199   5.585  23.733  0.00  0.00    -0.336 N 
ATOM     34  C   UNL     1      13.260   5.599  22.719  0.00  0.00    +0.129 C 
ENDBRANCH   1  33
BRANCH   9  35
ATOM     35  N   UNL     1       2.695   5.888  22.833  0.00  0.00    -0.336 N 
ATOM     36  C   UNL     1       1.698   5.860  21.768  0.00  0.00    +0.129 C 
ATOM     37  C   UNL     1       2.513   6.947  23.822  0.00  0.00    +0.129 C 
ENDBRANCH   9  35
TORSDOF 6
ENDMDL
MODEL 2
REMARK VINA RESULT:      -7.2      1.581      5.541
REMARK  Name = 
REMARK  10 active torsions:
REMARK  status: ('A' for Active; 'I' for Inactive)
REMARK    1  A    between atoms: C_1  and  N_2
REMARK    2  A    between atoms: N_2  and  C_3
REMARK    3  A    between atoms: N_2  and  C_4
REMARK    4  A    between atoms: C_8  and  C_21
REMARK    5  A    between atoms: C_12  and  N_18
REMARK    6  A    between atoms: N_18  and  C_19
REMARK    7  A    between atoms: N_18  and  C_20
REMARK    8  A    between atoms: C_24  and  N_30
REMARK    9  A    between atoms: C_26  and  C_27
REMARK   10  A    between atoms: C_27  and  O_28
REMARK                            x       y       z     vdW  Elec       q    Type
REMARK                         _______ _______ _______ _____ _____    ______ ____
ROOT
ATOM      1  C   UNL     1       4.141   3.917  25.340  0.00  0.00    +0.029 C 
ATOM      2  C   UNL     1       5.406   4.559  25.023  0.00  0.00    +0.069 C 
ATOM      3  C   UNL     1       6.517   3.908  24.645  0.00  0.00    +0.134 C 
ATOM      4  C   UNL     1       6.587   2.451  24.522  0.00  0.00    +0.007 C 
ATOM      5  C   UNL     1       7.760   1.818  24.236  0.00  0.00    +0.001 C 
ATOM      6  C   UNL     1       8.964   2.674  24.120  0.00  0.00    +0.025 A 
ATOM      7  C   UNL     1       8.824   4.054  24.087  0.00  0.00    +0.138 A 
ATOM      8  C   UNL     1       9.910   4.909  23.843  0.00  0.00    +0.070 A 
ATOM      9  C   UNL     1      11.205   4.418  23.653  0.00  0.00    +0.033 A 
ATOM     10  C   UNL     1      11.350   3.028  23.801  0.00  0.00    +0.024 A 
ATOM     11  C   UNL     1      10.258   2.166  24.019  0.00  0.00    +0.014 A 
ATOM     12  C   UNL     1       5.265   1.724  24.741  0.00  0.00    +0.068 C 
ATOM     13  O   UNL     1       7.619   4.676  24.297  0.00  0.00    -0.455 OA
ATOM     14  C   UNL     1       4.109   2.579  25.193  0.00  0.00    +0.001 C 
ENDROOT
BRANCH   5  15
ATOM     15  C   UNL     1       7.739   0.350  23.961  0.00  0.00    -0.003 A 
ATOM     16  C   UNL     1       7.652  -0.684  24.907  0.00  0.00    +0.068 A 
ATOM     17  C   UNL     1       7.476  -2.025  24.460  0.00  0.00    +0.039 A 
ATOM     18  C   UNL     1       7.453  -2.386  23.101  0.00  0.00    +0.045 A 
ATOM     19  C   UNL     1       7.674  -1.354  22.185  0.00  0.00    +0.024 A 
ATOM     20  C   UNL     1       7.795  -0.017  22.602  0.00  0.00    +0.011 A 
BRANCH  18  21
ATOM     21  N   UNL     1       7.232  -3.736  22.682  0.00  0.00    -0.203 N 
ATOM     22  C   UNL     1       7.917  -4.831  23.143  0.00  0.00    +0.250 C 
ATOM     23  O   UNL     1       8.761  -4.938  24.014  0.00  0.00    -0.270 OA
ATOM     24  C   UNL     1       7.394  -6.013  22.449  0.00  0.00    +0.073 C 
ATOM     25  C   UNL     1       6.395  -5.617  21.670  0.00  0.00    +0.073 C 
ATOM     26  C   UNL     1       6.254  -4.165  21.825  0.00  0.00    +0.250 C 
ATOM     27  O   UNL     1       5.377  -3.556  21.235  0.00  0.00    -0.270 OA
ENDBRANCH  18  21
BRANCH  16  28
ATOM     28  C   UNL     1       7.853  -0.540  26.381  0.00  0.00    +0.337 C 
ATOM     29  O   UNL     1       6.898  -0.523  27.143  0.00  0.00    -0.245 OA
BRANCH  28  30
ATOM     30  O   UNL     1       9.109  -0.417  26.840  0.00  0.00    -0.477 OA
ATOM     31  H   UNL     1       9.583   0.407  26.644  0.00  0.00    +0.295 HD
ENDBRANCH  28  30
ENDBRANCH  16  28
ENDBRANCH   5  15
BRANCH   1  33
ATOM     32  C   UNL     1       2.072   5.233  24.790  0.00  0.00    +0.129 C 
ATOM     33  N   UNL     1       3.044   4.696  25.748  0.00  0.00    -0.336 N 
ATOM     34  C   UNL     1       2.869   5.177  27.124  0.00  0.00    +0.129 C 
ENDBRANCH   1  33
BRANCH   9  35
ATOM     35  N   UNL     1      12.258   5.243  23.292  0.00  0.00    -0.336 N 
ATOM     36  C   UNL     1      12.688   6.346  24.144  0.00  0.00    +0.129 C 
ATOM     37  C   UNL     1      12.855   5.223  21.959  0.00  0.00    +0.129 C 
ENDBRANCH   9  35
TORSDOF 6
ENDMDL
MODEL 3
REMARK VINA RESULT:      -7.2      1.783      2.360
REMARK  Name = 
REMARK  10 active torsions:
REMARK  status: ('A' for Active; 'I' for Inactive)
REMARK    1  A    between atoms: C_1  and  N_2
REMARK    2  A    between atoms: N_2  and  C_3
REMARK    3  A    between atoms: N_2  and  C_4
REMARK    4  A    between atoms: C_8  and  C_21
REMARK    5  A    between atoms: C_12  and  N_18
REMARK    6  A    between atoms: N_18  and  C_19
REMARK    7  A    between atoms: N_18  and  C_20
REMARK    8  A    between atoms: C_24  and  N_30
REMARK    9  A    between atoms: C_26  and  C_27
REMARK   10  A    between atoms: C_27  and  O_28
REMARK                            x       y       z     vdW  Elec       q    Type
REMARK                         _______ _______ _______ _____ _____    ______ ____
ROOT
ATOM      1  C   UNL     1      10.931   4.467  23.729  0.00  0.00    +0.029 C 
ATOM      2  C   UNL     1       9.679   4.912  24.319  0.00  0.00    +0.069 C 
ATOM      3  C   UNL     1       8.613   4.124  24.528  0.00  0.00    +0.134 C 
ATOM      4  C   UNL     1       8.583   2.706  24.165  0.00  0.00    +0.007 C 
ATOM      5  C   UNL     1       7.448   1.962  24.296  0.00  0.00    +0.001 C 
ATOM      6  C   UNL     1       6.238   2.678  24.764  0.00  0.00    +0.025 A 
ATOM      7  C   UNL     1       6.350   3.975  25.243  0.00  0.00    +0.138 A 
ATOM      8  C   UNL     1       5.266   4.653  25.824  0.00  0.00    +0.070 A 
ATOM      9  C   UNL     1       4.000   4.069  25.920  0.00  0.00    +0.033 A 
ATOM     10  C   UNL     1       3.874   2.801  25.328  0.00  0.00    +0.024 A 
ATOM     11  C   UNL     1       4.965   2.108  24.770  0.00  0.00    +0.014 A 
ATOM     12  C   UNL     1       9.901   2.152  23.636  0.00  0.00    +0.068 C 
ATOM     13  O   UNL     1       7.522   4.684  25.178  0.00  0.00    -0.455 OA
ATOM     14  C   UNL     1      11.003   3.158  23.423  0.00  0.00    +0.001 C 
ENDROOT
BRANCH   5  15
ATOM     15  C   UNL     1       7.521   0.488  24.067  0.00  0.00    -0.003 A 
ATOM     16  C   UNL     1       7.430  -0.522  25.038  0.00  0.00    +0.068 A 
ATOM     17  C   UNL     1       7.352  -1.882  24.624  0.00  0.00    +0.039 A 
ATOM     18  C   UNL     1       7.431  -2.282  23.278  0.00  0.00    +0.045 A 
ATOM     19  C   UNL     1       7.653  -1.267  22.345  0.00  0.00    +0.024 A 
ATOM     20  C   UNL     1       7.678   0.086  22.726  0.00  0.00    +0.011 A 
BRANCH  18  21
ATOM     21  N   UNL     1       7.307  -3.654  22.890  0.00  0.00    -0.203 N 
ATOM     22  C   UNL     1       8.069  -4.686  23.373  0.00  0.00    +0.250 C 
ATOM     23  O   UNL     1       8.920  -4.714  24.244  0.00  0.00    -0.270 OA
ATOM     24  C   UNL     1       7.632  -5.918  22.707  0.00  0.00    +0.073 C 
ATOM     25  C   UNL     1       6.605  -5.612  21.922  0.00  0.00    +0.073 C 
ATOM     26  C   UNL     1       6.362  -4.171  22.045  0.00  0.00    +0.250 C 
ATOM     27  O   UNL     1       5.442  -3.639  21.444  0.00  0.00    -0.270 OA
ENDBRANCH  18  21
BRANCH  16  28
ATOM     28  C   UNL     1       7.533  -0.325  26.516  0.00  0.00    +0.337 C 
ATOM     29  O   UNL     1       8.602  -0.470  27.093  0.00  0.00    -0.245 OA
BRANCH  28  30
ATOM     30  O   UNL     1       6.419   0.002  27.191  0.00  0.00    -0.477 OA
ATOM     31  H   UNL     1       6.361   0.898  27.559  0.00  0.00    +0.295 HD
ENDBRANCH  28  30
ENDBRANCH  16  28
ENDBRANCH   5  15
BRANCH   1  33
ATOM     32  C   UNL     1      12.913   5.274  22.412  0.00  0.00    +0.129 C 
ATOM     33  N   UNL     1      11.978   5.385  23.536  0.00  0.00    -0.336 N 
ATOM     34  C   UNL     1      12.329   6.419  24.517  0.00  0.00    +0.129 C 
ENDBRANCH   1  33
BRANCH   9  35
ATOM     35  N   UNL     1       2.959   4.682  26.599  0.00  0.00    -0.336 N 
ATOM     36  C   UNL     1       1.739   5.093  25.912  0.00  0.00    +0.129 C 
ATOM     37  C   UNL     1       3.087   5.164  27.971  0.00  0.00    +0.129 C 
ENDBRANCH   9  35
TORSDOF 6
ENDMDL
MODEL 4
REMARK VINA RESULT:      -6.9      1.570      2.186
REMARK  Name = 
REMARK  10 active torsions:
REMARK  status: ('A' for Active; 'I' for Inactive)
REMARK    1  A    between atoms: C_1  and  N_2
REMARK    2  A    between atoms: N_2  and  C_3
REMARK    3  A    between atoms: N_2  and  C_4
REMARK    4  A    between atoms: C_8  and  C_21
REMARK    5  A    between atoms: C_12  and  N_18
REMARK    6  A    between atoms: N_18  and  C_19
REMARK    7  A    between atoms: N_18  and  C_20
REMARK    8  A    between atoms: C_24  and  N_30
REMARK    9  A    between atoms: C_26  and  C_27
REMARK   10  A    between atoms: C_27  and  O_28
REMARK                            x       y       z     vdW  Elec       q    Type
REMARK                         _______ _______ _______ _____ _____    ______ ____
ROOT
ATOM      1  C   UNL     1      11.017   4.845  23.739  0.00  0.00    +0.029 C 
ATOM      2  C   UNL     1       9.726   5.495  23.581  0.00  0.00    +0.069 C 
ATOM      3  C   UNL     1       8.556   4.847  23.469  0.00  0.00    +0.134 C 
ATOM      4  C   UNL     1       8.447   3.387  23.479  0.00  0.00    +0.007 C 
ATOM      5  C   UNL     1       7.255   2.763  23.259  0.00  0.00    +0.001 C 
ATOM      6  C   UNL     1       6.097   3.635  22.950  0.00  0.00    +0.025 A 
ATOM      7  C   UNL     1       6.212   5.008  23.106  0.00  0.00    +0.138 A 
ATOM      8  C   UNL     1       5.113   5.871  22.960  0.00  0.00    +0.070 A 
ATOM      9  C   UNL     1       3.846   5.395  22.613  0.00  0.00    +0.033 A 
ATOM     10  C   UNL     1       3.771   4.017  22.347  0.00  0.00    +0.024 A 
ATOM     11  C   UNL     1       4.864   3.146  22.520  0.00  0.00    +0.014 A 
ATOM     12  C   UNL     1       9.753   2.647  23.745  0.00  0.00    +0.068 C 
ATOM     13  O   UNL     1       7.403   5.617  23.407  0.00  0.00    -0.455 OA
ATOM     14  C   UNL     1      10.992   3.501  23.817  0.00  0.00    +0.001 C 
ENDROOT
BRANCH   5  15
ATOM     15  C   UNL     1       7.171   1.282  23.443  0.00  0.00    -0.003 A 
ATOM     16  C   UNL     1       7.907   0.304  22.756  0.00  0.00    +0.068 A 
ATOM     17  C   UNL     1       7.822  -1.055  23.175  0.00  0.00    +0.039 A 
ATOM     18  C   UNL     1       6.977  -1.488  24.211  0.00  0.00    +0.045 A 
ATOM     19  C   UNL     1       6.158  -0.514  24.789  0.00  0.00    +0.024 A 
ATOM     20  C   UNL     1       6.266   0.841  24.428  0.00  0.00    +0.011 A 
BRANCH  18  21
ATOM     21  N   UNL     1       6.945  -2.854  24.638  0.00  0.00    -0.203 N 
ATOM     22  C   UNL     1       6.242  -3.859  24.024  0.00  0.00    +0.250 C 
ATOM     23  O   UNL     1       5.587  -3.867  22.998  0.00  0.00    -0.270 OA
ATOM     24  C   UNL     1       6.467  -5.093  24.785  0.00  0.00    +0.073 C 
ATOM     25  C   UNL     1       7.327  -4.818  25.759  0.00  0.00    +0.073 C 
ATOM     26  C   UNL     1       7.668  -3.395  25.667  0.00  0.00    +0.250 C 
ATOM     27  O   UNL     1       8.473  -2.894  26.436  0.00  0.00    -0.270 OA
ENDBRANCH  18  21
BRANCH  16  28
ATOM     28  C   UNL     1       8.704   0.524  21.511  0.00  0.00    +0.337 C 
ATOM     29  O   UNL     1       9.674  -0.176  21.258  0.00  0.00    -0.245 OA
BRANCH  28  30
ATOM     30  O   UNL     1       8.332   1.517  20.688  0.00  0.00    -0.477 OA
ATOM     31  H   UNL     1       7.725   2.189  21.036  0.00  0.00    +0.295 HD
ENDBRANCH  28  30
ENDBRANCH  16  28
ENDBRANCH   5  15
BRANCH   1  33
ATOM     32  C   UNL     1      12.356   6.661  24.846  0.00  0.00    +0.129 C 
ATOM     33  N   UNL     1      12.185   5.623  23.825  0.00  0.00    -0.336 N 
ATOM     34  C   UNL     1      13.250   5.585  22.815  0.00  0.00    +0.129 C 
ENDBRANCH   1  33
BRANCH   9  35
ATOM     35  N   UNL     1       2.734   6.221  22.586  0.00  0.00    -0.336 N 
ATOM     36  C   UNL     1       1.776   6.245  23.686  0.00  0.00    +0.129 C 
ATOM     37  C   UNL     1       2.317   6.943  21.387  0.00  0.00    +0.129 C 
ENDBRANCH   9  35
TORSDOF 6
ENDMDL
MODEL 5
REMARK VINA RESULT:      -6.5      2.955      5.710
REMARK  Name = 
REMARK  10 active torsions:
REMARK  status: ('A' for Active; 'I' for Inactive)
REMARK    1  A    between atoms: C_1  and  N_2
REMARK    2  A    between atoms: N_2  and  C_3
REMARK    3  A    between atoms: N_2  and  C_4
REMARK    4  A    between atoms: C_8  and  C_21
REMARK    5  A    between atoms: C_12  and  N_18
REMARK    6  A    between atoms: N_18  and  C_19
REMARK    7  A    between atoms: N_18  and  C_20
REMARK    8  A    between atoms: C_24  and  N_30
REMARK    9  A    between atoms: C_26  and  C_27
REMARK   10  A    between atoms: C_27  and  O_28
REMARK                            x       y       z     vdW  Elec       q    Type
REMARK                         _______ _______ _______ _____ _____    ______ ____
ROOT
ATOM      1  C   UNL     1       3.965   1.624  28.207  0.00  0.00    +0.029 C 
ATOM      2  C   UNL     1       4.831   2.649  27.648  0.00  0.00    +0.069 C 
ATOM      3  C   UNL     1       5.778   2.424  26.724  0.00  0.00    +0.134 C 
ATOM      4  C   UNL     1       6.062   1.096  26.177  0.00  0.00    +0.007 C 
ATOM      5  C   UNL     1       7.100   0.889  25.318  0.00  0.00    +0.001 C 
ATOM      6  C   UNL     1       7.957   2.061  25.019  0.00  0.00    +0.025 A 
ATOM      7  C   UNL     1       7.560   3.324  25.432  0.00  0.00    +0.138 A 
ATOM      8  C   UNL     1       8.259   4.485  25.062  0.00  0.00    +0.070 A 
ATOM      9  C   UNL     1       9.418   4.428  24.284  0.00  0.00    +0.033 A 
ATOM     10  C   UNL     1       9.871   3.135  23.969  0.00  0.00    +0.024 A 
ATOM     11  C   UNL     1       9.157   1.972  24.315  0.00  0.00    +0.014 A 
ATOM     12  C   UNL     1       5.120  -0.006  26.647  0.00  0.00    +0.068 C 
ATOM     13  O   UNL     1       6.464   3.525  26.232  0.00  0.00    -0.455 OA
ATOM     14  C   UNL     1       4.125   0.384  27.710  0.00  0.00    +0.001 C 
ENDROOT
BRANCH   5  15
ATOM     15  C   UNL     1       7.241  -0.448  24.665  0.00  0.00    -0.003 A 
ATOM     16  C   UNL     1       7.790  -1.609  25.233  0.00  0.00    +0.068 A 
ATOM     17  C   UNL     1       7.694  -2.842  24.527  0.00  0.00    +0.039 A 
ATOM     18  C   UNL     1       7.132  -2.951  23.242  0.00  0.00    +0.045 A 
ATOM     19  C   UNL     1       6.714  -1.757  22.648  0.00  0.00    +0.024 A 
ATOM     20  C   UNL     1       6.749  -0.539  23.349  0.00  0.00    +0.011 A 
BRANCH  18  21
ATOM     21  N   UNL     1       7.011  -4.211  22.575  0.00  0.00    -0.203 N 
ATOM     22  C   UNL     1       6.241  -4.449  21.465  0.00  0.00    +0.250 C 
ATOM     23  O   UNL     1       5.584  -3.696  20.770  0.00  0.00    -0.270 OA
ATOM     24  C   UNL     1       6.387  -5.866  21.113  0.00  0.00    +0.073 C 
ATOM     25  C   UNL     1       7.265  -6.404  21.951  0.00  0.00    +0.073 C 
ATOM     26  C   UNL     1       7.700  -5.354  22.879  0.00  0.00    +0.250 C 
ATOM     27  O   UNL     1       8.539  -5.586  23.735  0.00  0.00    -0.270 OA
ENDBRANCH  18  21
BRANCH  16  28
ATOM     28  C   UNL     1       8.601  -1.670  26.487  0.00  0.00    +0.337 C 
ATOM     29  O   UNL     1       8.786  -2.734  27.060  0.00  0.00    -0.245 OA
BRANCH  28  30
ATOM     30  O   UNL     1       9.107  -0.524  26.970  0.00  0.00    -0.477 OA
ATOM     31  H   UNL     1       9.381  -0.509  27.901  0.00  0.00    +0.295 HD
ENDBRANCH  28  30
ENDBRANCH  16  28
ENDBRANCH   5  15
BRANCH   1  33
ATOM     32  C   UNL     1       3.103   3.221  29.946  0.00  0.00    +0.129 C 
ATOM     33  N   UNL     1       3.018   1.968  29.189  0.00  0.00    -0.336 N 
ATOM     34  C   UNL     1       1.976   1.046  29.656  0.00  0.00    +0.129 C 
ENDBRANCH   1  33
BRANCH   9  35
ATOM     35  N   UNL     1      10.043   5.572  23.814  0.00  0.00    -0.336 N 
ATOM     36  C   UNL     1      11.491   5.633  23.642  0.00  0.00    +0.129 C 
ATOM     37  C   UNL     1       9.350   6.850  23.678  0.00  0.00    +0.129 C 
ENDBRANCH   9  35
TORSDOF 6
ENDMDL
MODEL 6
REMARK VINA RESULT:      -6.5      2.294      5.592
REMARK  Name = 
REMARK  10 active torsions:
REMARK  status: ('A' for Active; 'I' for Inactive)
REMARK    1  A    between atoms: C_1  and  N_2
REMARK    2  A    between atoms: N_2  and  C_3
REMARK    3  A    between atoms: N_2  and  C_4
REMARK    4  A    between atoms: C_8  and  C_21
REMARK    5  A    between atoms: C_12  and  N_18
REMARK    6  A    between atoms: N_18  and  C_19
REMARK    7  A    between atoms: N_18  and  C_20
REMARK    8  A    between atoms: C_24  and  N_30
REMARK    9  A    between atoms: C_26  and  C_27
REMARK   10  A    between atoms: C_27  and  O_28
REMARK                            x       y       z     vdW  Elec       q    Type
REMARK                         _______ _______ _______ _____ _____    ______ ____
ROOT
ATOM      1  C   UNL     1       4.174   4.205  26.680  0.00  0.00    +0.029 C 
ATOM      2  C   UNL     1       5.417   4.854  26.296  0.00  0.00    +0.069 C 
ATOM      3  C   UNL     1       6.414   4.255  25.629  0.00  0.00    +0.134 C 
ATOM      4  C   UNL     1       6.370   2.851  25.217  0.00  0.00    +0.007 C 
ATOM      5  C   UNL     1       7.444   2.248  24.632  0.00  0.00    +0.001 C 
ATOM      6  C   UNL     1       8.671   3.068  24.495  0.00  0.00    +0.025 A 
ATOM      7  C   UNL     1       8.617   4.430  24.752  0.00  0.00    +0.138 A 
ATOM      8  C   UNL     1       9.709   5.279  24.509  0.00  0.00    +0.070 A 
ATOM      9  C   UNL     1      10.926   4.792  24.025  0.00  0.00    +0.033 A 
ATOM     10  C   UNL     1      11.001   3.396  23.877  0.00  0.00    +0.024 A 
ATOM     11  C   UNL     1       9.900   2.546  24.094  0.00  0.00    +0.014 A 
ATOM     12  C   UNL     1       5.051   2.140  25.498  0.00  0.00    +0.068 C 
ATOM     13  O   UNL     1       7.501   5.038  25.266  0.00  0.00    -0.455 OA
ATOM     14  C   UNL     1       4.033   2.926  26.284  0.00  0.00    +0.001 C 
ENDROOT
BRANCH   5  15
ATOM     15  C   UNL     1       7.287   0.867  24.085  0.00  0.00    -0.003 A 
ATOM     16  C   UNL     1       7.572   0.440  22.778  0.00  0.00    +0.068 A 
ATOM     17  C   UNL     1       7.522  -0.950  22.472  0.00  0.00    +0.039 A 
ATOM     18  C   UNL     1       7.131  -1.929  23.404  0.00  0.00    +0.045 A 
ATOM     19  C   UNL     1       6.727  -1.462  24.657  0.00  0.00    +0.024 A 
ATOM     20  C   UNL     1       6.821  -0.101  24.996  0.00  0.00    +0.011 A 
BRANCH  18  21
ATOM     21  N   UNL     1       7.132  -3.323  23.079  0.00  0.00    -0.203 N 
ATOM     22  C   UNL     1       6.240  -3.942  22.241  0.00  0.00    +0.250 C 
ATOM     23  O   UNL     1       5.345  -3.490  21.551  0.00  0.00    -0.270 OA
ATOM     24  C   UNL     1       6.582  -5.368  22.195  0.00  0.00    +0.073 C 
ATOM     25  C   UNL     1       7.676  -5.546  22.926  0.00  0.00    +0.073 C 
ATOM     26  C   UNL     1       8.063  -4.244  23.479  0.00  0.00    +0.250 C 
ATOM     27  O   UNL     1       9.065  -4.130  24.166  0.00  0.00    -0.270 OA
ENDBRANCH  18  21
BRANCH  16  28
ATOM     28  C   UNL     1       7.811   1.329  21.601  0.00  0.00    +0.337 C 
ATOM     29  O   UNL     1       7.062   2.266  21.363  0.00  0.00    -0.245 OA
BRANCH  28  30
ATOM     30  O   UNL     1       8.861   1.061  20.808  0.00  0.00    -0.477 OA
ATOM     31  H   UNL     1       8.991   1.622  20.027  0.00  0.00    +0.295 HD
ENDBRANCH  28  30
ENDBRANCH  16  28
ENDBRANCH   5  15
BRANCH   1  33
ATOM     32  C   UNL     1       1.850   4.400  27.617  0.00  0.00    +0.129 C 
ATOM     33  N   UNL     1       3.202   4.924  27.399  0.00  0.00    -0.336 N 
ATOM     34  C   UNL     1       3.395   6.309  27.843  0.00  0.00    +0.129 C 
ENDBRANCH   1  33
BRANCH   9  35
ATOM     35  N   UNL     1      11.966   5.636  23.669  0.00  0.00    -0.336 N 
ATOM     36  C   UNL     1      12.768   5.395  22.474  0.00  0.00    +0.129 C 
ATOM     37  C   UNL     1      12.478   6.676  24.557  0.00  0.00    +0.129 C 
ENDBRANCH   9  35
TORSDOF 6
ENDMDL
MODEL 7
REMARK VINA RESULT:      -6.4      3.309      9.075
REMARK  Name = 
REMARK  10 active torsions:
REMARK  status: ('A' for Active; 'I' for Inactive)
REMARK    1  A    between atoms: C_1  and  N_2
REMARK    2  A    between atoms: N_2  and  C_3
REMARK    3  A    between atoms: N_2  and  C_4
REMARK    4  A    between atoms: C_8  and  C_21
REMARK    5  A    between atoms: C_12  and  N_18
REMARK    6  A    between atoms: N_18  and  C_19
REMARK    7  A    between atoms: N_18  and  C_20
REMARK    8  A    between atoms: C_24  and  N_30
REMARK    9  A    between atoms: C_26  and  C_27
REMARK   10  A    between atoms: C_27  and  O_28
REMARK                            x       y       z     vdW  Elec       q    Type
REMARK                         _______ _______ _______ _____ _____    ______ ____
ROOT
ATOM      1  C   UNL     1       3.495  -1.773  28.861  0.00  0.00    +0.029 C 
ATOM      2  C   UNL     1       3.892  -2.732  27.842  0.00  0.00    +0.069 C 
ATOM      3  C   UNL     1       4.653  -2.439  26.777  0.00  0.00    +0.134 C 
ATOM      4  C   UNL     1       5.168  -1.096  26.507  0.00  0.00    +0.007 C 
ATOM      5  C   UNL     1       5.852  -0.814  25.361  0.00  0.00    +0.001 C 
ATOM      6  C   UNL     1       5.990  -1.919  24.383  0.00  0.00    +0.025 A 
ATOM      7  C   UNL     1       5.627  -3.207  24.749  0.00  0.00    +0.138 A 
ATOM      8  C   UNL     1       5.862  -4.313  23.915  0.00  0.00    +0.070 A 
ATOM      9  C   UNL     1       6.443  -4.172  22.652  0.00  0.00    +0.033 A 
ATOM     10  C   UNL     1       6.700  -2.850  22.251  0.00  0.00    +0.024 A 
ATOM     11  C   UNL     1       6.492  -1.742  23.095  0.00  0.00    +0.014 A 
ATOM     12  C   UNL     1       4.874  -0.066  27.591  0.00  0.00    +0.068 C 
ATOM     13  O   UNL     1       5.012  -3.487  25.941  0.00  0.00    -0.455 OA
ATOM     14  C   UNL     1       3.979  -0.526  28.713  0.00  0.00    +0.001 C 
ENDROOT
BRANCH   5  15
ATOM     15  C   UNL     1       6.493   0.528  25.215  0.00  0.00    -0.003 A 
ATOM     16  C   UNL     1       7.864   0.819  25.288  0.00  0.00    +0.068 A 
ATOM     17  C   UNL     1       8.317   2.129  24.959  0.00  0.00    +0.039 A 
ATOM     18  C   UNL     1       7.447   3.182  24.626  0.00  0.00    +0.045 A 
ATOM     19  C   UNL     1       6.081   2.898  24.690  0.00  0.00    +0.024 A 
ATOM     20  C   UNL     1       5.614   1.599  24.959  0.00  0.00    +0.011 A 
BRANCH  18  21
ATOM     21  N   UNL     1       7.934   4.476  24.259  0.00  0.00    -0.203 N 
ATOM     22  C   UNL     1       7.873   5.018  23.000  0.00  0.00    +0.250 C 
ATOM     23  O   UNL     1       7.358   4.607  21.976  0.00  0.00    -0.270 OA
ATOM     24  C   UNL     1       8.494   6.346  23.052  0.00  0.00    +0.073 C 
ATOM     25  C   UNL     1       8.834   6.586  24.314  0.00  0.00    +0.073 C 
ATOM     26  C   UNL     1       8.459   5.412  25.109  0.00  0.00    +0.250 C 
ATOM     27  O   UNL     1       8.637   5.394  26.316  0.00  0.00    -0.270 OA
ENDBRANCH  18  21
BRANCH  16  28
ATOM     28  C   UNL     1       8.926  -0.095  25.809  0.00  0.00    +0.337 C 
ATOM     29  O   UNL     1       9.731  -0.614  25.050  0.00  0.00    -0.245 OA
BRANCH  28  30
ATOM     30  O   UNL     1       8.960  -0.338  27.129  0.00  0.00    -0.477 OA
ATOM     31  H   UNL     1       9.230  -1.224  27.418  0.00  0.00    +0.295 HD
ENDBRANCH  28  30
ENDBRANCH  16  28
ENDBRANCH   5  15
BRANCH   1  33
ATOM     32  C   UNL     1       2.744  -3.538  30.485  0.00  0.00    +0.129 C 
ATOM     33  N   UNL     1       2.674  -2.184  29.926  0.00  0.00    -0.336 N 
ATOM     34  C   UNL     1       1.575  -1.366  30.453  0.00  0.00    +0.129 C 
ENDBRANCH   1  33
BRANCH   9  35
ATOM     35  N   UNL     1       6.788  -5.267  21.877  0.00  0.00    -0.336 N 
ATOM     36  C   UNL     1       6.092  -5.567  20.630  0.00  0.00    +0.129 C 
ATOM     37  C   UNL     1       7.694  -6.312  22.346  0.00  0.00    +0.129 C 
ENDBRANCH   9  35
TORSDOF 6
ENDMDL
MODEL 8
REMARK VINA RESULT:      -6.2      3.054      8.685
REMARK  Name = 
REMARK  10 active torsions:
REMARK  status: ('A' for Active; 'I' for Inactive)
REMARK    1  A    between atoms: C_1  and  N_2
REMARK    2  A    between atoms: N_2  and  C_3
REMARK    3  A    between atoms: N_2  and  C_4
REMARK    4  A    between atoms: C_8  and  C_21
REMARK    5  A    between atoms: C_12  and  N_18
REMARK    6  A    between atoms: N_18  and  C_19
REMARK    7  A    between atoms: N_18  and  C_20
REMARK    8  A    between atoms: C_24  and  N_30
REMARK    9  A    between atoms: C_26  and  C_27
REMARK   10  A    between atoms: C_27  and  O_28
REMARK                            x       y       z     vdW  Elec       q    Type
REMARK                         _______ _______ _______ _____ _____    ______ ____
ROOT
ATOM      1  C   UNL     1       3.445   0.102  28.761  0.00  0.00    +0.029 C 
ATOM      2  C   UNL     1       3.658  -1.086  27.951  0.00  0.00    +0.069 C 
ATOM      3  C   UNL     1       4.443  -1.136  26.863  0.00  0.00    +0.134 C 
ATOM      4  C   UNL     1       5.175   0.024  26.353  0.00  0.00    +0.007 C 
ATOM      5  C   UNL     1       5.881  -0.037  25.188  0.00  0.00    +0.001 C 
ATOM      6  C   UNL     1       5.814  -1.315  24.440  0.00  0.00    +0.025 A 
ATOM      7  C   UNL     1       5.242  -2.430  25.036  0.00  0.00    +0.138 A 
ATOM      8  C   UNL     1       5.272  -3.697  24.432  0.00  0.00    +0.070 A 
ATOM      9  C   UNL     1       5.851  -3.900  23.177  0.00  0.00    +0.033 A 
ATOM     10  C   UNL     1       6.324  -2.742  22.536  0.00  0.00    +0.024 A 
ATOM     11  C   UNL     1       6.320  -1.475  23.151  0.00  0.00    +0.014 A 
ATOM     12  C   UNL     1       5.077   1.276  27.216  0.00  0.00    +0.068 C 
ATOM     13  O   UNL     1       4.605  -2.369  26.249  0.00  0.00    -0.455 OA
ATOM     14  C   UNL     1       4.133   1.197  28.389  0.00  0.00    +0.001 C 
ENDROOT
BRANCH   5  15
ATOM     15  C   UNL     1       6.739   1.122  24.802  0.00  0.00    -0.003 A 
ATOM     16  C   UNL     1       6.319   2.318  24.197  0.00  0.00    +0.068 A 
ATOM     17  C   UNL     1       7.248   3.388  24.050  0.00  0.00    +0.039 A 
ATOM     18  C   UNL     1       8.601   3.288  24.419  0.00  0.00    +0.045 A 
ATOM     19  C   UNL     1       9.021   2.043  24.895  0.00  0.00    +0.024 A 
ATOM     20  C   UNL     1       8.110   0.992  25.100  0.00  0.00    +0.011 A 
BRANCH  18  21
ATOM     21  N   UNL     1       9.501   4.395  24.298  0.00  0.00    -0.203 N 
ATOM     22  C   UNL     1       9.341   5.615  24.904  0.00  0.00    +0.250 C 
ATOM     23  O   UNL     1       8.508   6.011  25.699  0.00  0.00    -0.270 OA
ATOM     24  C   UNL     1      10.471   6.464  24.509  0.00  0.00    +0.073 C 
ATOM     25  C   UNL     1      11.286   5.730  23.760  0.00  0.00    +0.073 C 
ATOM     26  C   UNL     1      10.698   4.392  23.636  0.00  0.00    +0.250 C 
ATOM     27  O   UNL     1      11.276   3.512  23.019  0.00  0.00    -0.270 OA
ENDBRANCH  18  21
BRANCH  16  28
ATOM     28  C   UNL     1       4.989   2.555  23.559  0.00  0.00    +0.337 C 
ATOM     29  O   UNL     1       3.974   2.622  24.237  0.00  0.00    -0.245 OA
BRANCH  28  30
ATOM     30  O   UNL     1       4.941   2.679  22.223  0.00  0.00    -0.477 OA
ATOM     31  H   UNL     1       5.590   2.184  21.700  0.00  0.00    +0.295 HD
ENDBRANCH  28  30
ENDBRANCH  16  28
ENDBRANCH   5  15
BRANCH   1  33
ATOM     32  C   UNL     1       2.109  -1.225  30.426  0.00  0.00    +0.129 C 
ATOM     33  N   UNL     1       2.581   0.047  29.870  0.00  0.00    -0.336 N 
ATOM     34  C   UNL     1       1.950   1.236  30.454  0.00  0.00    +0.129 C 
ENDBRANCH   1  33
BRANCH   9  35
ATOM     35  N   UNL     1       5.992  -5.165  22.629  0.00  0.00    -0.336 N 
ATOM     36  C   UNL     1       5.213  -6.298  23.118  0.00  0.00    +0.129 C 
ATOM     37  C   UNL     1       7.068  -5.508  21.703  0.00  0.00    +0.129 C 
ENDBRANCH   9  35
TORSDOF 6
ENDMDL
MODEL 9
REMARK VINA RESULT:      -6.2      2.625      7.822
REMARK  Name = 
REMARK  10 active torsions:
REMARK  status: ('A' for Active; 'I' for Inactive)
REMARK    1  A    between atoms: C_1  and  N_2
REMARK    2  A    between atoms: N_2  and  C_3
REMARK    3  A    between atoms: N_2  and  C_4
REMARK    4  A    between atoms: C_8  and  C_21
REMARK    5  A    between atoms: C_12  and  N_18
REMARK    6  A    between atoms: N_18  and  C_19
REMARK    7  A    between atoms: N_18  and  C_20
REMARK    8  A    between atoms: C_24  and  N_30
REMARK    9  A    between atoms: C_26  and  C_27
REMARK   10  A    between atoms: C_27  and  O_28
REMARK                            x       y       z     vdW  Elec       q    Type
REMARK                         _______ _______ _______ _____ _____    ______ ____
ROOT
ATOM      1  C   UNL     1       8.354  -2.449  24.350  0.00  0.00    +0.029 C 
ATOM      2  C   UNL     1       9.328  -1.396  24.117  0.00  0.00    +0.069 C 
ATOM      3  C   UNL     1       9.087  -0.086  24.280  0.00  0.00    +0.134 C 
ATOM      4  C   UNL     1       7.789   0.441  24.705  0.00  0.00    +0.007 C 
ATOM      5  C   UNL     1       7.550   1.783  24.760  0.00  0.00    +0.001 C 
ATOM      6  C   UNL     1       8.649   2.670  24.311  0.00  0.00    +0.025 A 
ATOM      7  C   UNL     1       9.906   2.136  24.069  0.00  0.00    +0.138 A 
ATOM      8  C   UNL     1      11.016   2.945  23.774  0.00  0.00    +0.070 A 
ATOM      9  C   UNL     1      10.907   4.334  23.672  0.00  0.00    +0.033 A 
ATOM     10  C   UNL     1       9.607   4.849  23.807  0.00  0.00    +0.024 A 
ATOM     11  C   UNL     1       8.498   4.044  24.130  0.00  0.00    +0.014 A 
ATOM     12  C   UNL     1       6.753  -0.617  25.065  0.00  0.00    +0.068 C 
ATOM     13  O   UNL     1      10.150   0.787  24.096  0.00  0.00    -0.455 OA
ATOM     14  C   UNL     1       7.151  -2.047  24.800  0.00  0.00    +0.001 C 
ENDROOT
BRANCH   5  15
ATOM     15  C   UNL     1       6.267   2.263  25.356  0.00  0.00    -0.003 A 
ATOM     16  C   UNL     1       6.026   2.570  26.704  0.00  0.00    +0.068 A 
ATOM     17  C   UNL     1       4.790   3.176  27.071  0.00  0.00    +0.039 A 
ATOM     18  C   UNL     1       3.753   3.425  26.154  0.00  0.00    +0.045 A 
ATOM     19  C   UNL     1       3.970   2.988  24.844  0.00  0.00    +0.024 A 
ATOM     20  C   UNL     1       5.202   2.439  24.450  0.00  0.00    +0.011 A 
BRANCH  18  21
ATOM     21  N   UNL     1       2.539   4.073  26.544  0.00  0.00    -0.203 N 
ATOM     22  C   UNL     1       1.488   3.467  27.185  0.00  0.00    +0.250 C 
ATOM     23  O   UNL     1       1.362   2.339  27.624  0.00  0.00    -0.270 OA
ATOM     24  C   UNL     1       0.443   4.477  27.386  0.00  0.00    +0.073 C 
ATOM     25  C   UNL     1       0.909   5.638  26.940  0.00  0.00    +0.073 C 
ATOM     26  C   UNL     1       2.261   5.408  26.421  0.00  0.00    +0.250 C 
ATOM     27  O   UNL     1       2.926   6.331  25.980  0.00  0.00    -0.270 OA
ENDBRANCH  18  21
BRANCH  16  28
ATOM     28  C   UNL     1       6.908   2.207  27.855  0.00  0.00    +0.337 C 
ATOM     29  O   UNL     1       7.053   1.039  28.186  0.00  0.00    -0.245 OA
BRANCH  28  30
ATOM     30  O   UNL     1       7.524   3.199  28.519  0.00  0.00    -0.477 OA
ATOM     31  H   UNL     1       8.431   3.042  28.823  0.00  0.00    +0.295 HD
ENDBRANCH  28  30
ENDBRANCH  16  28
ENDBRANCH   5  15
BRANCH   1  33
ATOM     32  C   UNL     1       7.938  -4.660  23.229  0.00  0.00    +0.129 C 
ATOM     33  N   UNL     1       8.708  -3.791  24.125  0.00  0.00    -0.336 N 
ATOM     34  C   UNL     1       9.759  -4.481  24.883  0.00  0.00    +0.129 C 
ENDBRANCH   1  33
BRANCH   9  35
ATOM     35  N   UNL     1      12.017   5.146  23.501  0.00  0.00    -0.336 N 
ATOM     36  C   UNL     1      12.339   6.206  24.452  0.00  0.00    +0.129 C 
ATOM     37  C   UNL     1      12.803   5.161  22.271  0.00  0.00    +0.129 C 
ENDBRANCH   9  35
TORSDOF 6
ENDMDL
