MODEL 1
REMARK VINA RESULT:      -4.0      0.000      0.000
REMARK  Name = 
REMARK  6 active torsions:
REMARK  status: ('A' for Active; 'I' for Inactive)
REMARK    1  A    between atoms: N_1  and  CA_2
REMARK    2  A    between atoms: CA_2  and  C_4
REMARK    3  A    between atoms: CA_2  and  C_10
REMARK    4  A    between atoms: C_4  and  O_6
REMARK    5  A    between atoms: C_4  and  C_7
REMARK    6  A    between atoms: C_10  and  O_11
REMARK                            x       y       z     vdW  Elec       q    Type
REMARK                         _______ _______ _______ _____ _____    ______ ____
ROOT
ATOM      1  CA  UNL     1      10.301   0.239  23.067  0.00  0.00    +0.198 C 
ENDROOT
BRANCH   1   2
ATOM      2  N   UNL     1       9.900   0.238  24.520  0.00  0.00    -0.316 NA
ATOM      3  H1  UNL     1      10.320   1.079  24.937  0.00  0.00    +0.119 HD
ATOM      4  H2  UNL     1       8.895   0.443  24.555  0.00  0.00    +0.119 HD
ENDBRANCH   1   2
BRANCH   1   5
ATOM      5  C   UNL     1       9.331   1.147  22.309  0.00  0.00    +0.325 C 
ATOM      6  OXT UNL     1       8.111   1.075  22.371  0.00  0.00    -0.249 OA
BRANCH   5   7
ATOM      7  O   UNL     1       9.989   2.052  21.538  0.00  0.00    -0.479 OA
ATOM      8  H   UNL     1      10.767   1.555  21.167  0.00  0.00    +0.295 HD
ENDBRANCH   5   7
ENDBRANCH   1   5
BRANCH   1   9
ATOM      9  C   UNL     1      10.315  -1.141  22.373  0.00  0.00    +0.227 C 
BRANCH   9  10
ATOM     10  C   UNL     1       9.580  -2.182  23.229  0.00  0.00    +0.241 C 
ATOM     11  O   UNL     1      10.139  -3.018  23.933  0.00  0.00    -0.273 OA
ATOM     12  N   UNL     1       8.214  -2.117  23.192  0.00  0.00    -0.327 N 
ATOM     13  H   UNL     1       7.709  -2.805  23.737  0.00  0.00    +0.145 HD
ATOM     14  H   UNL     1       7.696  -1.584  22.509  0.00  0.00    +0.145 HD
ENDBRANCH   9  10
BRANCH   9  15
ATOM     15  O   UNL     1       9.720  -1.064  21.077  0.00  0.00    -0.380 OA
ATOM     16  H   UNL     1       8.815  -0.729  21.185  0.00  0.00    +0.211 HD
ENDBRANCH   9  15
ENDBRANCH   1   9
TORSDOF 6
ENDMDL
MODEL 2
REMARK VINA RESULT:      -4.0      3.621      5.917
REMARK  Name = 
REMARK  6 active torsions:
REMARK  status: ('A' for Active; 'I' for Inactive)
REMARK    1  A    between atoms: N_1  and  CA_2
REMARK    2  A    between atoms: CA_2  and  C_4
REMARK    3  A    between atoms: CA_2  and  C_10
REMARK    4  A    between atoms: C_4  and  O_6
REMARK    5  A    between atoms: C_4  and  C_7
REMARK    6  A    between atoms: C_10  and  O_11
REMARK                            x       y       z     vdW  Elec       q    Type
REMARK                         _______ _______ _______ _____ _____    ______ ____
ROOT
ATOM      1  CA  UNL     1       9.142  -4.720  26.231  0.00  0.00    +0.198 C 
ENDROOT
BRANCH   1   2
ATOM      2  N   UNL     1       9.986  -5.598  25.343  0.00  0.00    -0.316 NA
ATOM      3  H1  UNL     1      10.308  -6.378  25.931  0.00  0.00    +0.119 HD
ATOM      4  H2  UNL     1       9.351  -6.057  24.682  0.00  0.00    +0.119 HD
ENDBRANCH   1   2
BRANCH   1   5
ATOM      5  C   UNL     1       7.799  -5.420  26.449  0.00  0.00    +0.325 C 
ATOM      6  OXT UNL     1       6.919  -5.527  25.605  0.00  0.00    -0.249 OA
BRANCH   5   7
ATOM      7  O   UNL     1       7.689  -5.911  27.712  0.00  0.00    -0.479 OA
ATOM      8  H   UNL     1       8.157  -5.248  28.285  0.00  0.00    +0.295 HD
ENDBRANCH   5   7
ENDBRANCH   1   5
BRANCH   1   9
ATOM      9  C   UNL     1       8.863  -3.297  25.698  0.00  0.00    +0.227 C 
BRANCH   9  10
ATOM     10  C   UNL     1       9.154  -3.218  24.193  0.00  0.00    +0.241 C 
ATOM     11  O   UNL     1      10.223  -2.851  23.713  0.00  0.00    -0.273 OA
ATOM     12  N   UNL     1       8.135  -3.618  23.373  0.00  0.00    -0.327 N 
ATOM     13  H   UNL     1       8.300  -3.559  22.376  0.00  0.00    +0.145 HD
ATOM     14  H   UNL     1       7.185  -3.757  23.687  0.00  0.00    +0.145 HD
ENDBRANCH   9  10
BRANCH   9  15
ATOM     15  O   UNL     1       7.512  -2.912  25.956  0.00  0.00    -0.380 OA
ATOM     16  H   UNL     1       7.245  -2.286  25.264  0.00  0.00    +0.211 HD
ENDBRANCH   9  15
ENDBRANCH   1   9
TORSDOF 6
ENDMDL
MODEL 3
REMARK VINA RESULT:      -4.0      1.816      3.853
REMARK  Name = 
REMARK  6 active torsions:
REMARK  status: ('A' for Active; 'I' for Inactive)
REMARK    1  A    between atoms: N_1  and  CA_2
REMARK    2  A    between atoms: CA_2  and  C_4
REMARK    3  A    between atoms: CA_2  and  C_10
REMARK    4  A    between atoms: C_4  and  O_6
REMARK    5  A    between atoms: C_4  and  C_7
REMARK    6  A    between atoms: C_10  and  O_11
REMARK                            x       y       z     vdW  Elec       q    Type
REMARK                         _______ _______ _______ _____ _____    ______ ____
ROOT
ATOM      1  CA  UNL     1      10.324  -1.204  22.466  0.00  0.00    +0.198 C 
ENDROOT
BRANCH   1   2
ATOM      2  N   UNL     1       9.578  -1.144  21.157  0.00  0.00    -0.316 NA
ATOM      3  H1  UNL     1       8.669  -1.595  21.322  0.00  0.00    +0.119 HD
ATOM      4  H2  UNL     1       9.323  -0.163  21.001  0.00  0.00    +0.119 HD
ENDBRANCH   1   2
BRANCH   1   5
ATOM      5  C   UNL     1       9.592  -2.185  23.383  0.00  0.00    +0.325 C 
ATOM      6  OXT UNL     1      10.118  -3.118  23.975  0.00  0.00    -0.249 OA
BRANCH   5   7
ATOM      7  O   UNL     1       8.264  -1.904  23.459  0.00  0.00    -0.479 OA
ATOM      8  H   UNL     1       8.028  -2.042  24.415  0.00  0.00    +0.295 HD
ENDBRANCH   5   7
ENDBRANCH   1   5
BRANCH   1   9
ATOM      9  C   UNL     1      10.474   0.138  23.216  0.00  0.00    +0.227 C 
BRANCH   9  10
ATOM     10  C   UNL     1       9.520   1.190  22.634  0.00  0.00    +0.241 C 
ATOM     11  O   UNL     1       8.328   1.275  22.914  0.00  0.00    -0.273 OA
ATOM     12  N   UNL     1      10.088   2.088  21.772  0.00  0.00    -0.327 N 
ATOM     13  H   UNL     1       9.473   2.781  21.364  0.00  0.00    +0.145 HD
ATOM     14  H   UNL     1      11.004   1.971  21.364  0.00  0.00    +0.145 HD
ENDBRANCH   9  10
BRANCH   9  15
ATOM     15  O   UNL     1      10.226  -0.029  24.613  0.00  0.00    -0.380 OA
ATOM     16  H   UNL     1       9.264  -0.037  24.744  0.00  0.00    +0.211 HD
ENDBRANCH   9  15
ENDBRANCH   1   9
TORSDOF 6
ENDMDL
MODEL 4
REMARK VINA RESULT:      -3.8      1.899      3.439
REMARK  Name = 
REMARK  6 active torsions:
REMARK  status: ('A' for Active; 'I' for Inactive)
REMARK    1  A    between atoms: N_1  and  CA_2
REMARK    2  A    between atoms: CA_2  and  C_4
REMARK    3  A    between atoms: CA_2  and  C_10
REMARK    4  A    between atoms: C_4  and  O_6
REMARK    5  A    between atoms: C_4  and  C_7
REMARK    6  A    between atoms: C_10  and  O_11
REMARK                            x       y       z     vdW  Elec       q    Type
REMARK                         _______ _______ _______ _____ _____    ______ ____
ROOT
ATOM      1  CA  UNL     1       8.150  -0.979  22.562  0.00  0.00    +0.198 C 
ENDROOT
BRANCH   1   2
ATOM      2  N   UNL     1       7.601   0.045  23.523  0.00  0.00    -0.316 NA
ATOM      3  H1  UNL     1       7.164   0.776  22.948  0.00  0.00    +0.119 HD
ATOM      4  H2  UNL     1       6.799  -0.386  23.996  0.00  0.00    +0.119 HD
ENDBRANCH   1   2
BRANCH   1   5
ATOM      5  C   UNL     1       8.644  -2.175  23.377  0.00  0.00    +0.325 C 
ATOM      6  OXT UNL     1       8.342  -3.342  23.164  0.00  0.00    -0.249 OA
BRANCH   5   7
ATOM      7  O   UNL     1       9.463  -1.788  24.391  0.00  0.00    -0.479 OA
ATOM      8  H   UNL     1      10.251  -1.381  23.941  0.00  0.00    +0.295 HD
ENDBRANCH   5   7
ENDBRANCH   1   5
BRANCH   1   9
ATOM      9  C   UNL     1       9.308  -0.500  21.659  0.00  0.00    +0.227 C 
BRANCH   9  10
ATOM     10  C   UNL     1       9.933   0.785  22.220  0.00  0.00    +0.241 C 
ATOM     11  O   UNL     1      10.622   0.834  23.234  0.00  0.00    -0.273 OA
ATOM     12  N   UNL     1       9.701   1.920  21.492  0.00  0.00    -0.327 N 
ATOM     13  H   UNL     1      10.090   2.782  21.853  0.00  0.00    +0.145 HD
ATOM     14  H   UNL     1       9.007   1.985  20.761  0.00  0.00    +0.145 HD
ENDBRANCH   9  10
BRANCH   9  15
ATOM     15  O   UNL     1      10.305  -1.514  21.528  0.00  0.00    -0.380 OA
ATOM     16  H   UNL     1       9.939  -2.337  21.890  0.00  0.00    +0.211 HD
ENDBRANCH   9  15
ENDBRANCH   1   9
TORSDOF 6
ENDMDL
MODEL 5
REMARK VINA RESULT:      -3.8      3.840      5.928
REMARK  Name = 
REMARK  6 active torsions:
REMARK  status: ('A' for Active; 'I' for Inactive)
REMARK    1  A    between atoms: N_1  and  CA_2
REMARK    2  A    between atoms: CA_2  and  C_4
REMARK    3  A    between atoms: CA_2  and  C_10
REMARK    4  A    between atoms: C_4  and  O_6
REMARK    5  A    between atoms: C_4  and  C_7
REMARK    6  A    between atoms: C_10  and  O_11
REMARK                            x       y       z     vdW  Elec       q    Type
REMARK                         _______ _______ _______ _____ _____    ______ ____
ROOT
ATOM      1  CA  UNL     1       7.299  -4.939  25.438  0.00  0.00    +0.198 C 
ENDROOT
BRANCH   1   2
ATOM      2  N   UNL     1       6.428  -3.709  25.442  0.00  0.00    -0.316 NA
ATOM      3  H1  UNL     1       6.798  -3.090  24.709  0.00  0.00    +0.119 HD
ATOM      4  H2  UNL     1       5.514  -3.986  25.068  0.00  0.00    +0.119 HD
ENDBRANCH   1   2
BRANCH   1   5
ATOM      5  C   UNL     1       8.152  -4.919  26.708  0.00  0.00    +0.325 C 
ATOM      6  OXT UNL     1       8.965  -4.050  26.992  0.00  0.00    -0.249 OA
BRANCH   5   7
ATOM      7  O   UNL     1       7.905  -6.000  27.494  0.00  0.00    -0.479 OA
ATOM      8  H   UNL     1       7.700  -5.622  28.391  0.00  0.00    +0.295 HD
ENDBRANCH   5   7
ENDBRANCH   1   5
BRANCH   1   9
ATOM      9  C   UNL     1       8.244  -5.090  24.225  0.00  0.00    +0.227 C 
BRANCH   9  10
ATOM     10  C   UNL     1       8.452  -3.736  23.533  0.00  0.00    +0.241 C 
ATOM     11  O   UNL     1       7.803  -3.344  22.567  0.00  0.00    -0.273 OA
ATOM     12  N   UNL     1       9.418  -2.936  24.080  0.00  0.00    -0.327 N 
ATOM     13  H   UNL     1       9.583  -2.045  23.630  0.00  0.00    +0.145 HD
ATOM     14  H   UNL     1      10.101  -3.260  24.749  0.00  0.00    +0.145 HD
ENDBRANCH   9  10
BRANCH   9  15
ATOM     15  O   UNL     1       9.502  -5.635  24.623  0.00  0.00    -0.380 OA
ATOM     16  H   UNL     1       9.951  -5.959  23.825  0.00  0.00    +0.211 HD
ENDBRANCH   9  15
ENDBRANCH   1   9
TORSDOF 6
ENDMDL
MODEL 6
REMARK VINA RESULT:      -3.7      2.149      2.395
REMARK  Name = 
REMARK  6 active torsions:
REMARK  status: ('A' for Active; 'I' for Inactive)
REMARK    1  A    between atoms: N_1  and  CA_2
REMARK    2  A    between atoms: CA_2  and  C_4
REMARK    3  A    between atoms: CA_2  and  C_10
REMARK    4  A    between atoms: C_4  and  O_6
REMARK    5  A    between atoms: C_4  and  C_7
REMARK    6  A    between atoms: C_10  and  O_11
REMARK                            x       y       z     vdW  Elec       q    Type
REMARK                         _______ _______ _______ _____ _____    ______ ____
ROOT
ATOM      1  CA  UNL     1       8.662   1.227  23.226  0.00  0.00    +0.198 C 
ENDROOT
BRANCH   1   2
ATOM      2  N   UNL     1       7.594   1.311  22.165  0.00  0.00    -0.316 NA
ATOM      3  H1  UNL     1       7.237   0.355  22.038  0.00  0.00    +0.119 HD
ATOM      4  H2  UNL     1       6.795   1.801  22.581  0.00  0.00    +0.119 HD
ENDBRANCH   1   2
BRANCH   1   5
ATOM      5  C   UNL     1       9.776   2.208  22.853  0.00  0.00    +0.325 C 
ATOM      6  OXT UNL     1      10.334   2.965  23.636  0.00  0.00    -0.249 OA
BRANCH   5   7
ATOM      7  O   UNL     1      10.074   2.148  21.528  0.00  0.00    -0.479 OA
ATOM      8  H   UNL     1      11.060   2.020  21.494  0.00  0.00    +0.295 HD
ENDBRANCH   5   7
ENDBRANCH   1   5
BRANCH   1   9
ATOM      9  C   UNL     1       9.296  -0.167  23.433  0.00  0.00    +0.227 C 
BRANCH   9  10
ATOM     10  C   UNL     1       8.924  -1.105  22.276  0.00  0.00    +0.241 C 
ATOM     11  O   UNL     1       7.981  -1.891  22.298  0.00  0.00    -0.273 OA
ATOM     12  N   UNL     1       9.707  -1.004  21.159  0.00  0.00    -0.327 N 
ATOM     13  H   UNL     1       9.489  -1.624  20.390  0.00  0.00    +0.145 HD
ATOM     14  H   UNL     1      10.592  -0.518  21.137  0.00  0.00    +0.145 HD
ENDBRANCH   9  10
BRANCH   9  15
ATOM     15  O   UNL     1      10.716  -0.069  23.547  0.00  0.00    -0.380 OA
ATOM     16  H   UNL     1      10.951   0.873  23.517  0.00  0.00    +0.211 HD
ENDBRANCH   9  15
ENDBRANCH   1   9
TORSDOF 6
ENDMDL
MODEL 7
REMARK VINA RESULT:      -3.7      2.215      3.549
REMARK  Name = 
REMARK  6 active torsions:
REMARK  status: ('A' for Active; 'I' for Inactive)
REMARK    1  A    between atoms: N_1  and  CA_2
REMARK    2  A    between atoms: CA_2  and  C_4
REMARK    3  A    between atoms: CA_2  and  C_10
REMARK    4  A    between atoms: C_4  and  O_6
REMARK    5  A    between atoms: C_4  and  C_7
REMARK    6  A    between atoms: C_10  and  O_11
REMARK                            x       y       z     vdW  Elec       q    Type
REMARK                         _______ _______ _______ _____ _____    ______ ____
ROOT
ATOM      1  CA  UNL     1      10.040   0.863  22.064  0.00  0.00    +0.198 C 
ENDROOT
BRANCH   1   2
ATOM      2  N   UNL     1       9.150   1.887  21.407  0.00  0.00    -0.316 NA
ATOM      3  H1  UNL     1       9.429   2.800  21.790  0.00  0.00    +0.119 HD
ATOM      4  H2  UNL     1       9.439   1.951  20.425  0.00  0.00    +0.119 HD
ENDBRANCH   1   2
BRANCH   1   5
ATOM      5  C   UNL     1       9.349  -0.498  21.964  0.00  0.00    +0.325 C 
ATOM      6  OXT UNL     1       8.202  -0.730  22.321  0.00  0.00    -0.249 OA
BRANCH   5   7
ATOM      7  O   UNL     1      10.172  -1.441  21.432  0.00  0.00    -0.479 OA
ATOM      8  H   UNL     1       9.736  -2.309  21.643  0.00  0.00    +0.295 HD
ENDBRANCH   5   7
ENDBRANCH   1   5
BRANCH   1   9
ATOM      9  C   UNL     1      10.383   1.122  23.548  0.00  0.00    +0.227 C 
BRANCH   9  10
ATOM     10  C   UNL     1       9.371   2.092  24.173  0.00  0.00    +0.241 C 
ATOM     11  O   UNL     1       9.533   3.306  24.253  0.00  0.00    -0.273 OA
ATOM     12  N   UNL     1       8.215   1.523  24.633  0.00  0.00    -0.327 N 
ATOM     13  H   UNL     1       7.540   2.142  25.064  0.00  0.00    +0.145 HD
ATOM     14  H   UNL     1       8.092   0.529  24.761  0.00  0.00    +0.145 HD
ENDBRANCH   9  10
BRANCH   9  15
ATOM     15  O   UNL     1      10.410  -0.101  24.285  0.00  0.00    -0.380 OA
ATOM     16  H   UNL     1       9.508  -0.461  24.294  0.00  0.00    +0.211 HD
ENDBRANCH   9  15
ENDBRANCH   1   9
TORSDOF 6
ENDMDL
MODEL 8
REMARK VINA RESULT:      -3.7      1.693      3.483
REMARK  Name = 
REMARK  6 active torsions:
REMARK  status: ('A' for Active; 'I' for Inactive)
REMARK    1  A    between atoms: N_1  and  CA_2
REMARK    2  A    between atoms: CA_2  and  C_4
REMARK    3  A    between atoms: CA_2  and  C_10
REMARK    4  A    between atoms: C_4  and  O_6
REMARK    5  A    between atoms: C_4  and  C_7
REMARK    6  A    between atoms: C_10  and  O_11
REMARK                            x       y       z     vdW  Elec       q    Type
REMARK                         _______ _______ _______ _____ _____    ______ ____
ROOT
ATOM      1  CA  UNL     1       9.713  -0.568  23.918  0.00  0.00    +0.198 C 
ENDROOT
BRANCH   1   2
ATOM      2  N   UNL     1      10.864   0.399  23.810  0.00  0.00    -0.316 NA
ATOM      3  H1  UNL     1      10.495   1.319  24.083  0.00  0.00    +0.119 HD
ATOM      4  H2  UNL     1      11.515   0.178  24.570  0.00  0.00    +0.119 HD
ENDBRANCH   1   2
BRANCH   1   5
ATOM      5  C   UNL     1      10.125  -1.872  23.232  0.00  0.00    +0.325 C 
ATOM      6  OXT UNL     1      10.099  -2.978  23.756  0.00  0.00    -0.249 OA
BRANCH   5   7
ATOM      7  O   UNL     1      10.540  -1.658  21.955  0.00  0.00    -0.479 OA
ATOM      8  H   UNL     1       9.766  -1.226  21.505  0.00  0.00    +0.295 HD
ENDBRANCH   5   7
ENDBRANCH   1   5
BRANCH   1   9
ATOM      9  C   UNL     1       8.379  -0.097  23.297  0.00  0.00    +0.227 C 
BRANCH   9  10
ATOM     10  C   UNL     1       8.590   1.178  22.470  0.00  0.00    +0.241 C 
ATOM     11  O   UNL     1       8.411   2.316  22.893  0.00  0.00    -0.273 OA
ATOM     12  N   UNL     1       9.032   0.984  21.190  0.00  0.00    -0.327 N 
ATOM     13  H   UNL     1       9.163   1.810  20.621  0.00  0.00    +0.145 HD
ATOM     14  H   UNL     1       9.028   0.087  20.725  0.00  0.00    +0.145 HD
ENDBRANCH   9  10
BRANCH   9  15
ATOM     15  O   UNL     1       7.806  -1.121  22.483  0.00  0.00    -0.380 OA
ATOM     16  H   UNL     1       7.805  -0.804  21.565  0.00  0.00    +0.211 HD
ENDBRANCH   9  15
ENDBRANCH   1   9
TORSDOF 6
ENDMDL
MODEL 9
REMARK VINA RESULT:      -3.6      1.958      2.600
REMARK  Name = 
REMARK  6 active torsions:
REMARK  status: ('A' for Active; 'I' for Inactive)
REMARK    1  A    between atoms: N_1  and  CA_2
REMARK    2  A    between atoms: CA_2  and  C_4
REMARK    3  A    between atoms: CA_2  and  C_10
REMARK    4  A    between atoms: C_4  and  O_6
REMARK    5  A    between atoms: C_4  and  C_7
REMARK    6  A    between atoms: C_10  and  O_11
REMARK                            x       y       z     vdW  Elec       q    Type
REMARK                         _______ _______ _______ _____ _____    ______ ____
ROOT
ATOM      1  CA  UNL     1       8.955   1.410  23.401  0.00  0.00    +0.198 C 
ENDROOT
BRANCH   1   2
ATOM      2  N   UNL     1       7.673   0.621  23.332  0.00  0.00    -0.316 NA
ATOM      3  H1  UNL     1       7.198   0.763  24.233  0.00  0.00    +0.119 HD
ATOM      4  H2  UNL     1       7.057   1.105  22.670  0.00  0.00    +0.119 HD
ENDBRANCH   1   2
BRANCH   1   5
ATOM      5  C   UNL     1       9.735   1.159  22.109  0.00  0.00    +0.325 C 
ATOM      6  OXT UNL     1       9.888   0.064  21.585  0.00  0.00    -0.249 OA
BRANCH   5   7
ATOM      7  O   UNL     1      10.254   2.310  21.605  0.00  0.00    -0.479 OA
ATOM      8  H   UNL     1      11.239   2.206  21.696  0.00  0.00    +0.295 HD
ENDBRANCH   5   7
ENDBRANCH   1   5
BRANCH   1   9
ATOM      9  C   UNL     1       9.881   1.085  24.594  0.00  0.00    +0.227 C 
BRANCH   9  10
ATOM     10  C   UNL     1       9.504  -0.266  25.216  0.00  0.00    +0.241 C 
ATOM     11  O   UNL     1       9.701  -1.354  24.682  0.00  0.00    -0.273 OA
ATOM     12  N   UNL     1       8.939  -0.205  26.460  0.00  0.00    -0.327 N 
ATOM     13  H   UNL     1       8.667  -1.084  26.883  0.00  0.00    +0.145 HD
ATOM     14  H   UNL     1       8.589   0.646  26.876  0.00  0.00    +0.145 HD
ENDBRANCH   9  10
BRANCH   9  15
ATOM     15  O   UNL     1      11.250   1.073  24.188  0.00  0.00    -0.380 OA
ATOM     16  H   UNL     1      11.291   1.404  23.276  0.00  0.00    +0.211 HD
ENDBRANCH   9  15
ENDBRANCH   1   9
TORSDOF 6
ENDMDL
