MODEL 1
REMARK VINA RESULT:      -6.6      0.000      0.000
REMARK  Name = 
REMARK  21 active torsions:
REMARK  status: ('A' for Active; 'I' for Inactive)
REMARK    1  A    between atoms: C_1  and  C_2
REMARK    2  A    between atoms: N_4  and  C_5
REMARK    3  A    between atoms: C_7  and  O_9
REMARK    4  A    between atoms: C_11  and  C_13
REMARK    5  A    between atoms: C_13  and  O_14
REMARK    6  A    between atoms: C_15  and  O_17
REMARK    7  A    between atoms: O_17  and  C_18
REMARK    8  A    between atoms: C_21  and  C_23
REMARK    9  A    between atoms: C_23  and  O_24
REMARK   10  A    between atoms: C_25  and  O_27
REMARK   11  A    between atoms: O_27  and  C_28
REMARK   12  A    between atoms: C_31  and  C_33
REMARK   13  A    between atoms: C_33  and  O_34
REMARK   14  A    between atoms: C_35  and  O_37
REMARK   15  A    between atoms: C_38  and  O_40
REMARK   16  A    between atoms: C_41  and  N_43
REMARK   17  A    between atoms: C_44  and  C_45
REMARK   18  A    between atoms: C_47  and  O_49
REMARK   19  A    between atoms: C_50  and  N_52
REMARK   20  A    between atoms: C_53  and  C_54
REMARK   21  A    between atoms: C_56  and  O_58
REMARK                            x       y       z     vdW  Elec       q    Type
REMARK                         _______ _______ _______ _____ _____    ______ ____
ROOT
ATOM      1  C   UNL     1       7.870  -3.581  23.456  0.00  0.00    +0.274 C 
ATOM      2  C   UNL     1       6.425  -4.098  23.276  0.00  0.00    +0.160 C 
ATOM      3  C   UNL     1       5.847  -4.411  24.662  0.00  0.00    +0.171 C 
ATOM      4  C   UNL     1       6.698  -5.441  25.429  0.00  0.00    +0.183 C 
ATOM      5  C   UNL     1       8.213  -5.094  25.366  0.00  0.00    +0.178 C 
ATOM      6  O   UNL     1       8.672  -4.567  24.106  0.00  0.00    -0.341 OA
ENDROOT
BRANCH   2   7
ATOM      7  N   UNL     1       6.363  -5.241  22.341  0.00  0.00    -0.305 N 
ATOM      8  H   UNL     1       6.589  -6.165  22.689  0.00  0.00    +0.149 HD
ATOM      9  C   UNL     1       6.047  -5.086  21.011  0.00  0.00    +0.210 C 
ATOM     10  O   UNL     1       5.742  -4.007  20.514  0.00  0.00    -0.276 OA
ATOM     11  C   UNL     1       6.083  -6.356  20.199  0.00  0.00    +0.109 C 
ENDBRANCH   2   7
BRANCH   3  12
ATOM     12  O   UNL     1       5.715  -3.235  25.480  0.00  0.00    -0.387 OA
ATOM     13  H   UNL     1       5.206  -3.463  26.284  0.00  0.00    +0.210 HD
ENDBRANCH   3  12
BRANCH   4  14
ATOM     14  O   UNL     1       6.264  -5.649  26.806  0.00  0.00    -0.341 OA
BRANCH  14  15
ATOM     15  C   UNL     1       5.382  -6.782  26.955  0.00  0.00    +0.274 C 
ATOM     16  C   UNL     1       3.930  -6.481  26.468  0.00  0.00    +0.160 C 
ATOM     17  C   UNL     1       3.147  -5.686  27.531  0.00  0.00    +0.171 C 
ATOM     18  C   UNL     1       3.255  -6.376  28.900  0.00  0.00    +0.176 C 
ATOM     19  C   UNL     1       4.726  -6.576  29.300  0.00  0.00    +0.178 C 
ATOM     20  O   UNL     1       5.439  -7.303  28.285  0.00  0.00    -0.341 OA
BRANCH  16  21
ATOM     21  N   UNL     1       3.185  -7.717  26.162  0.00  0.00    -0.305 N 
ATOM     22  H   UNL     1       3.520  -8.556  26.634  0.00  0.00    +0.149 HD
ATOM     23  C   UNL     1       2.298  -7.839  25.127  0.00  0.00    +0.210 C 
ATOM     24  O   UNL     1       1.988  -6.910  24.392  0.00  0.00    -0.276 OA
ATOM     25  C   UNL     1       1.698  -9.210  24.973  0.00  0.00    +0.109 C 
ENDBRANCH  16  21
BRANCH  17  26
ATOM     26  O   UNL     1       3.565  -4.321  27.626  0.00  0.00    -0.387 OA
ATOM     27  H   UNL     1       3.479  -3.910  26.744  0.00  0.00    +0.210 HD
ENDBRANCH  17  26
BRANCH  18  28
ATOM     28  O   UNL     1       2.594  -7.658  28.833  0.00  0.00    -0.387 OA
ATOM     29  H   UNL     1       2.839  -8.157  29.635  0.00  0.00    +0.210 HD
ENDBRANCH  18  28
BRANCH  19  30
ATOM     30  C   UNL     1       5.405  -5.264  29.733  0.00  0.00    +0.190 C 
BRANCH  30  31
ATOM     31  O   UNL     1       4.503  -4.452  30.484  0.00  0.00    -0.392 OA
ATOM     32  H   UNL     1       5.022  -3.702  30.823  0.00  0.00    +0.210 HD
ENDBRANCH  30  31
ENDBRANCH  19  30
ENDBRANCH  14  15
ENDBRANCH   4  14
BRANCH   1  33
ATOM     33  O   UNL     1       7.865  -2.262  24.041  0.00  0.00    -0.341 OA
BRANCH  33  36
ATOM     34  C   UNL     1       7.489   0.612  24.974  0.00  0.00    +0.160 C 
ATOM     35  C   UNL     1       6.575  -0.110  23.968  0.00  0.00    +0.171 C 
ATOM     36  C   UNL     1       7.378  -1.190  23.195  0.00  0.00    +0.183 C 
ATOM     37  C   UNL     1       8.554  -0.412  22.511  0.00  0.00    +0.178 C 
ATOM     38  O   UNL     1       9.376   0.282  23.485  0.00  0.00    -0.341 OA
ATOM     39  C   UNL     1       8.643   1.270  24.198  0.00  0.00    +0.270 C 
BRANCH  34  42
ATOM     40  C   UNL     1       5.851   2.409  27.892  0.00  0.00    +0.109 C 
ATOM     41  C   UNL     1       6.722   1.388  27.214  0.00  0.00    +0.210 C 
ATOM     42  N   UNL     1       6.733   1.524  25.844  0.00  0.00    -0.305 N 
ATOM     43  H   UNL     1       5.973   2.040  25.414  0.00  0.00    +0.149 HD
ATOM     44  O   UNL     1       7.352   0.529  27.822  0.00  0.00    -0.276 OA
ENDBRANCH  34  42
BRANCH  35  45
ATOM     45  O   UNL     1       5.417  -0.644  24.621  0.00  0.00    -0.387 OA
ATOM     46  H   UNL     1       5.184  -1.469  24.157  0.00  0.00    +0.210 HD
ENDBRANCH  35  45
BRANCH  39  47
ATOM     47  O   UNL     1       9.507   1.916  25.126  0.00  0.00    -0.365 OA
ATOM     48  H   UNL     1       9.719   1.244  25.796  0.00  0.00    +0.213 HD
ENDBRANCH  39  47
BRANCH  37  49
ATOM     49  C   UNL     1       9.536  -1.212  21.656  0.00  0.00    +0.190 C 
BRANCH  49  50
ATOM     50  O   UNL     1      10.534  -1.776  22.527  0.00  0.00    -0.392 OA
ATOM     51  H   UNL     1      10.261  -2.705  22.658  0.00  0.00    +0.210 HD
ENDBRANCH  49  50
ENDBRANCH  37  49
ENDBRANCH  33  36
ENDBRANCH   1  33
BRANCH   5  52
ATOM     52  C   UNL     1       8.783  -4.275  26.530  0.00  0.00    +0.190 C 
BRANCH  52  53
ATOM     53  O   UNL     1       8.081  -3.073  26.777  0.00  0.00    -0.392 OA
ATOM     54  H   UNL     1       7.138  -3.216  26.554  0.00  0.00    +0.210 HD
ENDBRANCH  52  53
ENDBRANCH   5  52
TORSDOF 18
ENDMDL
MODEL 2
REMARK VINA RESULT:      -6.5      2.205      8.669
REMARK  Name = 
REMARK  21 active torsions:
REMARK  status: ('A' for Active; 'I' for Inactive)
REMARK    1  A    between atoms: C_1  and  C_2
REMARK    2  A    between atoms: N_4  and  C_5
REMARK    3  A    between atoms: C_7  and  O_9
REMARK    4  A    between atoms: C_11  and  C_13
REMARK    5  A    between atoms: C_13  and  O_14
REMARK    6  A    between atoms: C_15  and  O_17
REMARK    7  A    between atoms: O_17  and  C_18
REMARK    8  A    between atoms: C_21  and  C_23
REMARK    9  A    between atoms: C_23  and  O_24
REMARK   10  A    between atoms: C_25  and  O_27
REMARK   11  A    between atoms: O_27  and  C_28
REMARK   12  A    between atoms: C_31  and  C_33
REMARK   13  A    between atoms: C_33  and  O_34
REMARK   14  A    between atoms: C_35  and  O_37
REMARK   15  A    between atoms: C_38  and  O_40
REMARK   16  A    between atoms: C_41  and  N_43
REMARK   17  A    between atoms: C_44  and  C_45
REMARK   18  A    between atoms: C_47  and  O_49
REMARK   19  A    between atoms: C_50  and  N_52
REMARK   20  A    between atoms: C_53  and  C_54
REMARK   21  A    between atoms: C_56  and  O_58
REMARK                            x       y       z     vdW  Elec       q    Type
REMARK                         _______ _______ _______ _____ _____    ______ ____
ROOT
ATOM      1  C   UNL     1       5.770  -3.427  25.881  0.00  0.00    +0.274 C 
ATOM      2  C   UNL     1       5.269  -1.967  25.823  0.00  0.00    +0.160 C 
ATOM      3  C   UNL     1       6.089  -1.215  24.766  0.00  0.00    +0.171 C 
ATOM      4  C   UNL     1       7.600  -1.257  25.064  0.00  0.00    +0.183 C 
ATOM      5  C   UNL     1       8.073  -2.694  25.424  0.00  0.00    +0.178 C 
ATOM      6  O   UNL     1       7.155  -3.462  26.224  0.00  0.00    -0.341 OA
ENDROOT
BRANCH   2   7
ATOM      7  N   UNL     1       5.294  -1.324  27.153  0.00  0.00    -0.305 N 
ATOM      8  H   UNL     1       6.009  -1.604  27.814  0.00  0.00    +0.149 HD
ATOM      9  C   UNL     1       4.359  -0.390  27.536  0.00  0.00    +0.210 C 
ATOM     10  O   UNL     1       3.473   0.018  26.792  0.00  0.00    -0.276 OA
ATOM     11  C   UNL     1       4.511   0.118  28.948  0.00  0.00    +0.109 C 
ENDBRANCH   2   7
BRANCH   3  12
ATOM     12  O   UNL     1       5.874  -1.727  23.439  0.00  0.00    -0.387 OA
ATOM     13  H   UNL     1       6.675  -1.560  22.901  0.00  0.00    +0.210 HD
ENDBRANCH   3  12
BRANCH   4  14
ATOM     14  O   UNL     1       8.421  -0.684  24.003  0.00  0.00    -0.341 OA
BRANCH  14  15
ATOM     15  C   UNL     1       8.845   0.666  24.284  0.00  0.00    +0.274 C 
ATOM     16  C   UNL     1       7.656   1.677  24.317  0.00  0.00    +0.160 C 
ATOM     17  C   UNL     1       7.230   2.071  22.889  0.00  0.00    +0.171 C 
ATOM     18  C   UNL     1       8.453   2.516  22.071  0.00  0.00    +0.176 C 
ATOM     19  C   UNL     1       9.537   1.426  22.067  0.00  0.00    +0.178 C 
ATOM     20  O   UNL     1       9.904   1.063  23.409  0.00  0.00    -0.341 OA
BRANCH  16  21
ATOM     21  N   UNL     1       7.997   2.904  25.061  0.00  0.00    -0.305 N 
ATOM     22  H   UNL     1       8.991   3.052  25.227  0.00  0.00    +0.149 HD
ATOM     23  C   UNL     1       7.083   3.665  25.740  0.00  0.00    +0.210 C 
ATOM     24  O   UNL     1       5.881   3.434  25.741  0.00  0.00    -0.276 OA
ATOM     25  C   UNL     1       7.668   4.842  26.473  0.00  0.00    +0.109 C 
ENDBRANCH  16  21
BRANCH  17  26
ATOM     26  O   UNL     1       6.528   1.026  22.209  0.00  0.00    -0.387 OA
ATOM     27  H   UNL     1       7.177   0.353  21.925  0.00  0.00    +0.210 HD
ENDBRANCH  17  26
BRANCH  18  28
ATOM     28  O   UNL     1       8.988   3.727  22.647  0.00  0.00    -0.387 OA
ATOM     29  H   UNL     1       9.961   3.669  22.603  0.00  0.00    +0.210 HD
ENDBRANCH  18  28
BRANCH  19  30
ATOM     30  C   UNL     1       9.173   0.232  21.166  0.00  0.00    +0.190 C 
BRANCH  30  31
ATOM     31  O   UNL     1       9.921  -0.927  21.537  0.00  0.00    -0.392 OA
ATOM     32  H   UNL     1       9.283  -1.660  21.595  0.00  0.00    +0.210 HD
ENDBRANCH  30  31
ENDBRANCH  19  30
ENDBRANCH  14  15
ENDBRANCH   4  14
BRANCH   1  33
ATOM     33  O   UNL     1       5.380  -4.143  24.689  0.00  0.00    -0.341 OA
BRANCH  33  36
ATOM     34  C   UNL     1       3.686  -6.511  25.582  0.00  0.00    +0.160 C 
ATOM     35  C   UNL     1       5.217  -6.423  25.725  0.00  0.00    +0.171 C 
ATOM     36  C   UNL     1       5.809  -5.526  24.606  0.00  0.00    +0.183 C 
ATOM     37  C   UNL     1       5.352  -6.193  23.263  0.00  0.00    +0.178 C 
ATOM     38  O   UNL     1       3.906  -6.288  23.176  0.00  0.00    -0.341 OA
ATOM     39  C   UNL     1       3.360  -7.106  24.201  0.00  0.00    +0.270 C 
BRANCH  34  42
ATOM     40  C   UNL     1       1.451  -7.655  28.432  0.00  0.00    +0.109 C 
ATOM     41  C   UNL     1       1.866  -6.815  27.256  0.00  0.00    +0.210 C 
ATOM     42  N   UNL     1       3.070  -7.211  26.717  0.00  0.00    -0.305 N 
ATOM     43  H   UNL     1       3.685  -7.773  27.296  0.00  0.00    +0.149 HD
ATOM     44  O   UNL     1       1.200  -5.878  26.828  0.00  0.00    -0.276 OA
ENDBRANCH  34  42
BRANCH  35  45
ATOM     45  O   UNL     1       5.583  -5.983  27.038  0.00  0.00    -0.387 OA
ATOM     46  H   UNL     1       5.014  -5.221  27.251  0.00  0.00    +0.210 HD
ENDBRANCH  35  45
BRANCH  39  47
ATOM     47  O   UNL     1       1.946  -7.164  24.052  0.00  0.00    -0.365 OA
ATOM     48  H   UNL     1       1.661  -7.936  24.570  0.00  0.00    +0.213 HD
ENDBRANCH  39  47
BRANCH  37  49
ATOM     49  C   UNL     1       5.790  -5.535  21.955  0.00  0.00    +0.190 C 
BRANCH  49  50
ATOM     50  O   UNL     1       5.325  -4.173  21.960  0.00  0.00    -0.392 OA
ATOM     51  H   UNL     1       5.858  -3.725  22.647  0.00  0.00    +0.210 HD
ENDBRANCH  49  50
ENDBRANCH  37  49
ENDBRANCH  33  36
ENDBRANCH   1  33
BRANCH   5  52
ATOM     52  C   UNL     1       8.630  -3.546  24.277  0.00  0.00    +0.190 C 
BRANCH  52  53
ATOM     53  O   UNL     1       8.087  -3.221  23.012  0.00  0.00    -0.392 OA
ATOM     54  H   UNL     1       7.939  -4.053  22.518  0.00  0.00    +0.210 HD
ENDBRANCH  52  53
ENDBRANCH   5  52
TORSDOF 18
ENDMDL
MODEL 3
REMARK VINA RESULT:      -6.5      2.866      9.175
REMARK  Name = 
REMARK  21 active torsions:
REMARK  status: ('A' for Active; 'I' for Inactive)
REMARK    1  A    between atoms: C_1  and  C_2
REMARK    2  A    between atoms: N_4  and  C_5
REMARK    3  A    between atoms: C_7  and  O_9
REMARK    4  A    between atoms: C_11  and  C_13
REMARK    5  A    between atoms: C_13  and  O_14
REMARK    6  A    between atoms: C_15  and  O_17
REMARK    7  A    between atoms: O_17  and  C_18
REMARK    8  A    between atoms: C_21  and  C_23
REMARK    9  A    between atoms: C_23  and  O_24
REMARK   10  A    between atoms: C_25  and  O_27
REMARK   11  A    between atoms: O_27  and  C_28
REMARK   12  A    between atoms: C_31  and  C_33
REMARK   13  A    between atoms: C_33  and  O_34
REMARK   14  A    between atoms: C_35  and  O_37
REMARK   15  A    between atoms: C_38  and  O_40
REMARK   16  A    between atoms: C_41  and  N_43
REMARK   17  A    between atoms: C_44  and  C_45
REMARK   18  A    between atoms: C_47  and  O_49
REMARK   19  A    between atoms: C_50  and  N_52
REMARK   20  A    between atoms: C_53  and  C_54
REMARK   21  A    between atoms: C_56  and  O_58
REMARK                            x       y       z     vdW  Elec       q    Type
REMARK                         _______ _______ _______ _____ _____    ______ ____
ROOT
ATOM      1  C   UNL     1       8.373  -1.363  26.578  0.00  0.00    +0.274 C 
ATOM      2  C   UNL     1       7.287  -0.350  27.005  0.00  0.00    +0.160 C 
ATOM      3  C   UNL     1       6.745   0.339  25.746  0.00  0.00    +0.171 C 
ATOM      4  C   UNL     1       7.856   1.044  24.945  0.00  0.00    +0.183 C 
ATOM      5  C   UNL     1       9.098   0.127  24.760  0.00  0.00    +0.178 C 
ATOM      6  O   UNL     1       9.432  -0.694  25.895  0.00  0.00    -0.341 OA
ENDROOT
BRANCH   2   7
ATOM      7  N   UNL     1       7.788   0.596  28.024  0.00  0.00    -0.305 N 
ATOM      8  H   UNL     1       8.766   0.862  28.000  0.00  0.00    +0.149 HD
ATOM      9  C   UNL     1       6.984   1.096  29.022  0.00  0.00    +0.210 C 
ATOM     10  O   UNL     1       5.788   0.841  29.112  0.00  0.00    -0.276 OA
ATOM     11  C   UNL     1       7.681   2.006  30.002  0.00  0.00    +0.109 C 
ENDBRANCH   2   7
BRANCH   3  12
ATOM     12  O   UNL     1       6.065  -0.576  24.870  0.00  0.00    -0.387 OA
ATOM     13  H   UNL     1       5.806  -1.371  25.379  0.00  0.00    +0.210 HD
ENDBRANCH   3  12
BRANCH   4  14
ATOM     14  O   UNL     1       7.404   1.579  23.665  0.00  0.00    -0.341 OA
BRANCH  14  15
ATOM     15  C   UNL     1       8.309   2.558  23.112  0.00  0.00    +0.274 C 
ATOM     16  C   UNL     1       8.673   3.684  24.130  0.00  0.00    +0.160 C 
ATOM     17  C   UNL     1       7.544   4.728  24.223  0.00  0.00    +0.171 C 
ATOM     18  C   UNL     1       7.146   5.211  22.819  0.00  0.00    +0.176 C 
ATOM     19  C   UNL     1       6.760   4.025  21.920  0.00  0.00    +0.178 C 
ATOM     20  O   UNL     1       7.822   3.057  21.864  0.00  0.00    -0.341 OA
BRANCH  16  21
ATOM     21  N   UNL     1       9.923   4.376  23.762  0.00  0.00    -0.305 N 
ATOM     22  H   UNL     1       9.813   5.339  23.449  0.00  0.00    +0.149 HD
ATOM     23  C   UNL     1      11.119   3.739  23.566  0.00  0.00    +0.210 C 
ATOM     24  O   UNL     1      11.281   2.539  23.741  0.00  0.00    -0.276 OA
ATOM     25  C   UNL     1      12.247   4.641  23.142  0.00  0.00    +0.109 C 
ENDBRANCH  16  21
BRANCH  17  26
ATOM     26  O   UNL     1       6.396   4.245  24.928  0.00  0.00    -0.387 OA
ATOM     27  H   UNL     1       6.589   4.270  25.886  0.00  0.00    +0.210 HD
ENDBRANCH  17  26
BRANCH  18  28
ATOM     28  O   UNL     1       8.260   5.919  22.234  0.00  0.00    -0.387 OA
ATOM     29  H   UNL     1       8.056   6.059  21.290  0.00  0.00    +0.210 HD
ENDBRANCH  18  28
BRANCH  19  30
ATOM     30  C   UNL     1       5.384   3.435  22.277  0.00  0.00    +0.190 C 
BRANCH  30  31
ATOM     31  O   UNL     1       4.411   4.470  22.416  0.00  0.00    -0.392 OA
ATOM     32  H   UNL     1       4.896   5.313  22.376  0.00  0.00    +0.210 HD
ENDBRANCH  30  31
ENDBRANCH  19  30
ENDBRANCH  14  15
ENDBRANCH   4  14
BRANCH   1  33
ATOM     33  O   UNL     1       7.774  -2.489  25.901  0.00  0.00    -0.341 OA
BRANCH  33  36
ATOM     34  C   UNL     1       5.380  -4.355  25.656  0.00  0.00    +0.160 C 
ATOM     35  C   UNL     1       6.107  -4.028  26.973  0.00  0.00    +0.171 C 
ATOM     36  C   UNL     1       7.596  -3.690  26.694  0.00  0.00    +0.183 C 
ATOM     37  C   UNL     1       8.173  -4.954  25.968  0.00  0.00    +0.178 C 
ATOM     38  O   UNL     1       7.444  -5.250  24.748  0.00  0.00    -0.341 OA
ATOM     39  C   UNL     1       6.080  -5.558  24.999  0.00  0.00    +0.270 C 
BRANCH  34  42
ATOM     40  C   UNL     1       1.635  -3.853  26.037  0.00  0.00    +0.109 C 
ATOM     41  C   UNL     1       3.058  -3.458  25.757  0.00  0.00    +0.210 C 
ATOM     42  N   UNL     1       3.934  -4.516  25.855  0.00  0.00    -0.305 N 
ATOM     43  H   UNL     1       3.632  -5.332  26.378  0.00  0.00    +0.149 HD
ATOM     44  O   UNL     1       3.397  -2.314  25.472  0.00  0.00    -0.276 OA
ENDBRANCH  34  42
BRANCH  35  45
ATOM     45  O   UNL     1       5.429  -2.989  27.688  0.00  0.00    -0.387 OA
ATOM     46  H   UNL     1       6.110  -2.478  28.161  0.00  0.00    +0.210 HD
ENDBRANCH  35  45
BRANCH  39  47
ATOM     47  O   UNL     1       5.429  -5.847  23.767  0.00  0.00    -0.365 OA
ATOM     48  H   UNL     1       4.596  -6.286  24.010  0.00  0.00    +0.213 HD
ENDBRANCH  39  47
BRANCH  37  49
ATOM     49  C   UNL     1       9.645  -4.931  25.560  0.00  0.00    +0.190 C 
BRANCH  49  50
ATOM     50  O   UNL     1       9.795  -4.004  24.469  0.00  0.00    -0.392 OA
ATOM     51  H   UNL     1       9.845  -4.561  23.667  0.00  0.00    +0.210 HD
ENDBRANCH  49  50
ENDBRANCH  37  49
ENDBRANCH  33  36
ENDBRANCH   1  33
BRANCH   5  52
ATOM     52  C   UNL     1       9.166  -0.693  23.465  0.00  0.00    +0.190 C 
BRANCH  52  53
ATOM     53  O   UNL     1       8.059  -1.553  23.279  0.00  0.00    -0.392 OA
ATOM     54  H   UNL     1       7.558  -1.596  24.120  0.00  0.00    +0.210 HD
ENDBRANCH  52  53
ENDBRANCH   5  52
TORSDOF 18
ENDMDL
MODEL 4
REMARK VINA RESULT:      -6.2      2.507      8.287
REMARK  Name = 
REMARK  21 active torsions:
REMARK  status: ('A' for Active; 'I' for Inactive)
REMARK    1  A    between atoms: C_1  and  C_2
REMARK    2  A    between atoms: N_4  and  C_5
REMARK    3  A    between atoms: C_7  and  O_9
REMARK    4  A    between atoms: C_11  and  C_13
REMARK    5  A    between atoms: C_13  and  O_14
REMARK    6  A    between atoms: C_15  and  O_17
REMARK    7  A    between atoms: O_17  and  C_18
REMARK    8  A    between atoms: C_21  and  C_23
REMARK    9  A    between atoms: C_23  and  O_24
REMARK   10  A    between atoms: C_25  and  O_27
REMARK   11  A    between atoms: O_27  and  C_28
REMARK   12  A    between atoms: C_31  and  C_33
REMARK   13  A    between atoms: C_33  and  O_34
REMARK   14  A    between atoms: C_35  and  O_37
REMARK   15  A    between atoms: C_38  and  O_40
REMARK   16  A    between atoms: C_41  and  N_43
REMARK   17  A    between atoms: C_44  and  C_45
REMARK   18  A    between atoms: C_47  and  O_49
REMARK   19  A    between atoms: C_50  and  N_52
REMARK   20  A    between atoms: C_53  and  C_54
REMARK   21  A    between atoms: C_56  and  O_58
REMARK                            x       y       z     vdW  Elec       q    Type
REMARK                         _______ _______ _______ _____ _____    ______ ____
ROOT
ATOM      1  C   UNL     1       7.136  -3.173  24.828  0.00  0.00    +0.274 C 
ATOM      2  C   UNL     1       5.870  -2.293  24.725  0.00  0.00    +0.160 C 
ATOM      3  C   UNL     1       6.243  -0.989  24.010  0.00  0.00    +0.171 C 
ATOM      4  C   UNL     1       7.371  -0.230  24.734  0.00  0.00    +0.183 C 
ATOM      5  C   UNL     1       8.543  -1.177  25.117  0.00  0.00    +0.178 C 
ATOM      6  O   UNL     1       8.154  -2.492  25.558  0.00  0.00    -0.341 OA
ENDROOT
BRANCH   2   7
ATOM      7  N   UNL     1       5.240  -2.081  26.045  0.00  0.00    -0.305 N 
ATOM      8  H   UNL     1       5.808  -1.715  26.800  0.00  0.00    +0.149 HD
ATOM      9  C   UNL     1       3.924  -2.398  26.292  0.00  0.00    +0.210 C 
ATOM     10  O   UNL     1       3.164  -2.827  25.431  0.00  0.00    -0.276 OA
ATOM     11  C   UNL     1       3.470  -2.162  27.711  0.00  0.00    +0.109 C 
ENDBRANCH   2   7
BRANCH   3  12
ATOM     12  O   UNL     1       6.646  -1.208  22.646  0.00  0.00    -0.387 OA
ATOM     13  H   UNL     1       7.021  -2.109  22.566  0.00  0.00    +0.210 HD
ENDBRANCH   3  12
BRANCH   4  14
ATOM     14  O   UNL     1       7.855   0.935  24.001  0.00  0.00    -0.341 OA
BRANCH  14  15
ATOM     15  C   UNL     1       7.238   2.167  24.430  0.00  0.00    +0.274 C 
ATOM     16  C   UNL     1       6.516   2.916  23.267  0.00  0.00    +0.160 C 
ATOM     17  C   UNL     1       7.528   3.684  22.396  0.00  0.00    +0.171 C 
ATOM     18  C   UNL     1       8.438   4.555  23.277  0.00  0.00    +0.176 C 
ATOM     19  C   UNL     1       9.135   3.707  24.353  0.00  0.00    +0.178 C 
ATOM     20  O   UNL     1       8.171   2.986  25.140  0.00  0.00    -0.341 OA
BRANCH  16  21
ATOM     21  N   UNL     1       5.507   3.870  23.768  0.00  0.00    -0.305 N 
ATOM     22  H   UNL     1       5.846   4.817  23.932  0.00  0.00    +0.149 HD
ATOM     23  C   UNL     1       4.284   3.500  24.258  0.00  0.00    +0.210 C 
ATOM     24  O   UNL     1       3.882   2.344  24.268  0.00  0.00    -0.276 OA
ATOM     25  C   UNL     1       3.442   4.640  24.765  0.00  0.00    +0.109 C 
ENDBRANCH  16  21
BRANCH  17  26
ATOM     26  O   UNL     1       8.313   2.825  21.564  0.00  0.00    -0.387 OA
ATOM     27  H   UNL     1       9.247   2.899  21.839  0.00  0.00    +0.210 HD
ENDBRANCH  17  26
BRANCH  18  28
ATOM     28  O   UNL     1       7.639   5.579  23.909  0.00  0.00    -0.387 OA
ATOM     29  H   UNL     1       8.125   5.885  24.698  0.00  0.00    +0.210 HD
ENDBRANCH  18  28
BRANCH  19  30
ATOM     30  C   UNL     1      10.264   2.832  23.779  0.00  0.00    +0.190 C 
BRANCH  30  31
ATOM     31  O   UNL     1      10.974   3.532  22.756  0.00  0.00    -0.392 OA
ATOM     32  H   UNL     1      10.726   4.469  22.839  0.00  0.00    +0.210 HD
ENDBRANCH  30  31
ENDBRANCH  19  30
ENDBRANCH  14  15
ENDBRANCH   4  14
BRANCH   1  33
ATOM     33  O   UNL     1       7.502  -3.684  23.528  0.00  0.00    -0.341 OA
BRANCH  33  36
ATOM     34  C   UNL     1       6.036  -5.605  25.381  0.00  0.00    +0.160 C 
ATOM     35  C   UNL     1       7.417  -5.872  24.753  0.00  0.00    +0.171 C 
ATOM     36  C   UNL     1       7.542  -5.128  23.397  0.00  0.00    +0.183 C 
ATOM     37  C   UNL     1       6.353  -5.663  22.526  0.00  0.00    +0.178 C 
ATOM     38  O   UNL     1       5.071  -5.421  23.162  0.00  0.00    -0.341 OA
ATOM     39  C   UNL     1       4.954  -6.100  24.406  0.00  0.00    +0.270 C 
BRANCH  34  42
ATOM     40  C   UNL     1       6.076  -6.173  29.136  0.00  0.00    +0.109 C 
ATOM     41  C   UNL     1       6.203  -5.392  27.858  0.00  0.00    +0.210 C 
ATOM     42  N   UNL     1       5.938  -6.153  26.740  0.00  0.00    -0.305 N 
ATOM     43  H   UNL     1       5.993  -7.161  26.832  0.00  0.00    +0.149 HD
ATOM     44  O   UNL     1       6.511  -4.205  27.820  0.00  0.00    -0.276 OA
ENDBRANCH  34  42
BRANCH  35  45
ATOM     45  O   UNL     1       8.468  -5.538  25.667  0.00  0.00    -0.387 OA
ATOM     46  H   UNL     1       8.913  -4.749  25.310  0.00  0.00    +0.210 HD
ENDBRANCH  35  45
BRANCH  39  47
ATOM     47  O   UNL     1       3.675  -5.830  24.969  0.00  0.00    -0.365 OA
ATOM     48  H   UNL     1       3.787  -5.933  25.929  0.00  0.00    +0.213 HD
ENDBRANCH  39  47
BRANCH  37  49
ATOM     49  C   UNL     1       6.206  -5.114  21.107  0.00  0.00    +0.190 C 
BRANCH  49  50
ATOM     50  O   UNL     1       5.679  -3.777  21.196  0.00  0.00    -0.392 OA
ATOM     51  H   UNL     1       5.539  -3.622  22.151  0.00  0.00    +0.210 HD
ENDBRANCH  49  50
ENDBRANCH  37  49
ENDBRANCH  33  36
ENDBRANCH   1  33
BRANCH   5  52
ATOM     52  C   UNL     1       9.712  -1.266  24.128  0.00  0.00    +0.190 C 
BRANCH  52  53
ATOM     53  O   UNL     1       9.313  -1.545  22.801  0.00  0.00    -0.392 OA
ATOM     54  H   UNL     1       8.349  -1.385  22.729  0.00  0.00    +0.210 HD
ENDBRANCH  52  53
ENDBRANCH   5  52
TORSDOF 18
ENDMDL
MODEL 5
REMARK VINA RESULT:      -6.2      2.784      8.941
REMARK  Name = 
REMARK  21 active torsions:
REMARK  status: ('A' for Active; 'I' for Inactive)
REMARK    1  A    between atoms: C_1  and  C_2
REMARK    2  A    between atoms: N_4  and  C_5
REMARK    3  A    between atoms: C_7  and  O_9
REMARK    4  A    between atoms: C_11  and  C_13
REMARK    5  A    between atoms: C_13  and  O_14
REMARK    6  A    between atoms: C_15  and  O_17
REMARK    7  A    between atoms: O_17  and  C_18
REMARK    8  A    between atoms: C_21  and  C_23
REMARK    9  A    between atoms: C_23  and  O_24
REMARK   10  A    between atoms: C_25  and  O_27
REMARK   11  A    between atoms: O_27  and  C_28
REMARK   12  A    between atoms: C_31  and  C_33
REMARK   13  A    between atoms: C_33  and  O_34
REMARK   14  A    between atoms: C_35  and  O_37
REMARK   15  A    between atoms: C_38  and  O_40
REMARK   16  A    between atoms: C_41  and  N_43
REMARK   17  A    between atoms: C_44  and  C_45
REMARK   18  A    between atoms: C_47  and  O_49
REMARK   19  A    between atoms: C_50  and  N_52
REMARK   20  A    between atoms: C_53  and  C_54
REMARK   21  A    between atoms: C_56  and  O_58
REMARK                            x       y       z     vdW  Elec       q    Type
REMARK                         _______ _______ _______ _____ _____    ______ ____
ROOT
ATOM      1  C   UNL     1       6.381  -2.432  26.438  0.00  0.00    +0.274 C 
ATOM      2  C   UNL     1       5.150  -1.534  26.185  0.00  0.00    +0.160 C 
ATOM      3  C   UNL     1       5.522  -0.489  25.125  0.00  0.00    +0.171 C 
ATOM      4  C   UNL     1       6.734   0.362  25.549  0.00  0.00    +0.183 C 
ATOM      5  C   UNL     1       7.891  -0.521  26.097  0.00  0.00    +0.178 C 
ATOM      6  O   UNL     1       7.481  -1.647  26.895  0.00  0.00    -0.341 OA
ENDROOT
BRANCH   2   7
ATOM      7  N   UNL     1       4.633  -0.943  27.437  0.00  0.00    -0.305 N 
ATOM      8  H   UNL     1       5.278  -0.792  28.204  0.00  0.00    +0.149 HD
ATOM      9  C   UNL     1       3.305  -0.629  27.609  0.00  0.00    +0.210 C 
ATOM     10  O   UNL     1       2.463  -0.762  26.727  0.00  0.00    -0.276 OA
ATOM     11  C   UNL     1       2.953  -0.085  28.971  0.00  0.00    +0.109 C 
ENDBRANCH   2   7
BRANCH   3  12
ATOM     12  O   UNL     1       5.810  -1.082  23.847  0.00  0.00    -0.387 OA
ATOM     13  H   UNL     1       6.711  -0.817  23.569  0.00  0.00    +0.210 HD
ENDBRANCH   3  12
BRANCH   4  14
ATOM     14  O   UNL     1       7.211   1.262  24.504  0.00  0.00    -0.341 OA
BRANCH  14  15
ATOM     15  C   UNL     1       7.438   2.607  24.977  0.00  0.00    +0.274 C 
ATOM     16  C   UNL     1       6.626   3.673  24.178  0.00  0.00    +0.160 C 
ATOM     17  C   UNL     1       7.310   3.992  22.835  0.00  0.00    +0.171 C 
ATOM     18  C   UNL     1       8.794   4.323  23.058  0.00  0.00    +0.176 C 
ATOM     19  C   UNL     1       9.505   3.185  23.808  0.00  0.00    +0.178 C 
ATOM     20  O   UNL     1       8.837   2.894  25.048  0.00  0.00    -0.341 OA
BRANCH  16  21
ATOM     21  N   UNL     1       6.469   4.929  24.936  0.00  0.00    -0.305 N 
ATOM     22  H   UNL     1       7.148   5.074  25.682  0.00  0.00    +0.149 HD
ATOM     23  C   UNL     1       5.359   5.726  24.873  0.00  0.00    +0.210 C 
ATOM     24  O   UNL     1       4.411   5.506  24.130  0.00  0.00    -0.276 OA
ATOM     25  C   UNL     1       5.399   6.929  25.777  0.00  0.00    +0.109 C 
ENDBRANCH  16  21
BRANCH  17  26
ATOM     26  O   UNL     1       7.173   2.939  21.876  0.00  0.00    -0.387 OA
ATOM     27  H   UNL     1       7.861   3.053  21.192  0.00  0.00    +0.210 HD
ENDBRANCH  17  26
BRANCH  18  28
ATOM     28  O   UNL     1       8.893   5.543  23.824  0.00  0.00    -0.387 OA
ATOM     29  H   UNL     1       9.300   5.319  24.682  0.00  0.00    +0.210 HD
ENDBRANCH  18  28
BRANCH  19  30
ATOM     30  C   UNL     1       9.752   1.953  22.919  0.00  0.00    +0.190 C 
BRANCH  30  31
ATOM     31  O   UNL     1      10.143   2.350  21.603  0.00  0.00    -0.392 OA
ATOM     32  H   UNL     1      10.438   1.543  21.148  0.00  0.00    +0.210 HD
ENDBRANCH  30  31
ENDBRANCH  19  30
ENDBRANCH  14  15
ENDBRANCH   4  14
BRANCH   1  33
ATOM     33  O   UNL     1       6.624  -3.288  25.301  0.00  0.00    -0.341 OA
BRANCH  33  36
ATOM     34  C   UNL     1       5.587  -5.646  23.677  0.00  0.00    +0.160 C 
ATOM     35  C   UNL     1       5.787  -5.652  25.204  0.00  0.00    +0.171 C 
ATOM     36  C   UNL     1       6.926  -4.675  25.598  0.00  0.00    +0.183 C 
ATOM     37  C   UNL     1       8.185  -5.175  24.809  0.00  0.00    +0.178 C 
ATOM     38  O   UNL     1       7.950  -5.186  23.377  0.00  0.00    -0.341 OA
ATOM     39  C   UNL     1       6.906  -6.077  23.012  0.00  0.00    +0.270 C 
BRANCH  34  42
ATOM     40  C   UNL     1       2.114  -6.847  22.719  0.00  0.00    +0.109 C 
ATOM     41  C   UNL     1       3.174  -5.848  23.088  0.00  0.00    +0.210 C 
ATOM     42  N   UNL     1       4.410  -6.428  23.276  0.00  0.00    -0.305 N 
ATOM     43  H   UNL     1       4.441  -7.426  23.456  0.00  0.00    +0.149 HD
ATOM     44  O   UNL     1       2.957  -4.647  23.208  0.00  0.00    -0.276 OA
ENDBRANCH  34  42
BRANCH  35  45
ATOM     45  O   UNL     1       4.557  -5.370  25.882  0.00  0.00    -0.387 OA
ATOM     46  H   UNL     1       3.865  -5.306  25.199  0.00  0.00    +0.210 HD
ENDBRANCH  35  45
BRANCH  39  47
ATOM     47  O   UNL     1       6.735  -6.047  21.599  0.00  0.00    -0.365 OA
ATOM     48  H   UNL     1       7.132  -5.209  21.307  0.00  0.00    +0.213 HD
ENDBRANCH  39  47
BRANCH  37  49
ATOM     49  C   UNL     1       9.493  -4.408  24.996  0.00  0.00    +0.190 C 
BRANCH  49  50
ATOM     50  O   UNL     1      10.575  -5.358  24.990  0.00  0.00    -0.392 OA
ATOM     51  H   UNL     1      11.389  -4.816  24.957  0.00  0.00    +0.210 HD
ENDBRANCH  49  50
ENDBRANCH  37  49
ENDBRANCH  33  36
ENDBRANCH   1  33
BRANCH   5  52
ATOM     52  C   UNL     1       8.976  -0.939  25.095  0.00  0.00    +0.190 C 
BRANCH  52  53
ATOM     53  O   UNL     1       8.466  -1.323  23.834  0.00  0.00    -0.392 OA
ATOM     54  H   UNL     1       8.891  -0.768  23.148  0.00  0.00    +0.210 HD
ENDBRANCH  52  53
ENDBRANCH   5  52
TORSDOF 18
ENDMDL
MODEL 6
REMARK VINA RESULT:      -6.1      2.645      3.963
REMARK  Name = 
REMARK  21 active torsions:
REMARK  status: ('A' for Active; 'I' for Inactive)
REMARK    1  A    between atoms: C_1  and  C_2
REMARK    2  A    between atoms: N_4  and  C_5
REMARK    3  A    between atoms: C_7  and  O_9
REMARK    4  A    between atoms: C_11  and  C_13
REMARK    5  A    between atoms: C_13  and  O_14
REMARK    6  A    between atoms: C_15  and  O_17
REMARK    7  A    between atoms: O_17  and  C_18
REMARK    8  A    between atoms: C_21  and  C_23
REMARK    9  A    between atoms: C_23  and  O_24
REMARK   10  A    between atoms: C_25  and  O_27
REMARK   11  A    between atoms: O_27  and  C_28
REMARK   12  A    between atoms: C_31  and  C_33
REMARK   13  A    between atoms: C_33  and  O_34
REMARK   14  A    between atoms: C_35  and  O_37
REMARK   15  A    between atoms: C_38  and  O_40
REMARK   16  A    between atoms: C_41  and  N_43
REMARK   17  A    between atoms: C_44  and  C_45
REMARK   18  A    between atoms: C_47  and  O_49
REMARK   19  A    between atoms: C_50  and  N_52
REMARK   20  A    between atoms: C_53  and  C_54
REMARK   21  A    between atoms: C_56  and  O_58
REMARK                            x       y       z     vdW  Elec       q    Type
REMARK                         _______ _______ _______ _____ _____    ______ ____
ROOT
ATOM      1  C   UNL     1       8.435  -1.128  23.669  0.00  0.00    +0.274 C 
ATOM      2  C   UNL     1       7.145  -1.768  23.108  0.00  0.00    +0.160 C 
ATOM      3  C   UNL     1       6.004  -1.506  24.098  0.00  0.00    +0.171 C 
ATOM      4  C   UNL     1       6.313  -2.057  25.503  0.00  0.00    +0.183 C 
ATOM      5  C   UNL     1       7.745  -1.667  25.968  0.00  0.00    +0.178 C 
ATOM      6  O   UNL     1       8.754  -1.691  24.941  0.00  0.00    -0.341 OA
ENDROOT
BRANCH   2   7
ATOM      7  N   UNL     1       7.335  -3.200  22.795  0.00  0.00    -0.305 N 
ATOM      8  H   UNL     1       8.142  -3.678  23.178  0.00  0.00    +0.149 HD
ATOM      9  C   UNL     1       6.476  -3.893  21.973  0.00  0.00    +0.210 C 
ATOM     10  O   UNL     1       5.466  -3.396  21.485  0.00  0.00    -0.276 OA
ATOM     11  C   UNL     1       6.857  -5.331  21.725  0.00  0.00    +0.109 C 
ENDBRANCH   2   7
BRANCH   3  12
ATOM     12  O   UNL     1       5.693  -0.106  24.219  0.00  0.00    -0.387 OA
ATOM     13  H   UNL     1       6.284   0.402  23.626  0.00  0.00    +0.210 HD
ENDBRANCH   3  12
BRANCH   4  14
ATOM     14  O   UNL     1       5.318  -1.693  26.506  0.00  0.00    -0.341 OA
BRANCH  14  15
ATOM     15  C   UNL     1       5.117  -2.720  27.499  0.00  0.00    +0.274 C 
ATOM     16  C   UNL     1       4.861  -4.126  26.869  0.00  0.00    +0.160 C 
ATOM     17  C   UNL     1       3.404  -4.255  26.387  0.00  0.00    +0.171 C 
ATOM     18  C   UNL     1       2.433  -3.848  27.507  0.00  0.00    +0.176 C 
ATOM     19  C   UNL     1       2.746  -2.431  28.016  0.00  0.00    +0.178 C 
ATOM     20  O   UNL     1       4.115  -2.331  28.443  0.00  0.00    -0.341 OA
BRANCH  16  21
ATOM     21  N   UNL     1       5.140  -5.216  27.823  0.00  0.00    -0.305 N 
ATOM     22  H   UNL     1       4.367  -5.466  28.437  0.00  0.00    +0.149 HD
ATOM     23  C   UNL     1       6.395  -5.689  28.097  0.00  0.00    +0.210 C 
ATOM     24  O   UNL     1       7.404  -5.295  27.527  0.00  0.00    -0.276 OA
ATOM     25  C   UNL     1       6.443  -6.767  29.146  0.00  0.00    +0.109 C 
ENDBRANCH  16  21
BRANCH  17  26
ATOM     26  O   UNL     1       3.140  -3.501  25.200  0.00  0.00    -0.387 OA
ATOM     27  H   UNL     1       2.254  -3.746  24.869  0.00  0.00    +0.210 HD
ENDBRANCH  17  26
BRANCH  18  28
ATOM     28  O   UNL     1       2.550  -4.790  28.595  0.00  0.00    -0.387 OA
ATOM     29  H   UNL     1       1.693  -4.808  29.062  0.00  0.00    +0.210 HD
ENDBRANCH  18  28
BRANCH  19  30
ATOM     30  C   UNL     1       2.309  -1.336  27.026  0.00  0.00    +0.190 C 
BRANCH  30  31
ATOM     31  O   UNL     1       1.103  -1.710  26.360  0.00  0.00    -0.392 OA
ATOM     32  H   UNL     1       0.578  -0.896  26.263  0.00  0.00    +0.210 HD
ENDBRANCH  30  31
ENDBRANCH  19  30
ENDBRANCH  14  15
ENDBRANCH   4  14
BRANCH   1  33
ATOM     33  O   UNL     1       8.354   0.312  23.600  0.00  0.00    -0.341 OA
BRANCH  33  36
ATOM     34  C   UNL     1       8.347   3.295  22.989  0.00  0.00    +0.160 C 
ATOM     35  C   UNL     1       8.709   2.193  21.977  0.00  0.00    +0.171 C 
ATOM     36  C   UNL     1       9.301   0.962  22.714  0.00  0.00    +0.183 C 
ATOM     37  C   UNL     1      10.542   1.513  23.497  0.00  0.00    +0.178 C 
ATOM     38  O   UNL     1      10.169   2.571  24.418  0.00  0.00    -0.341 OA
ATOM     39  C   UNL     1       9.624   3.698  23.747  0.00  0.00    +0.270 C 
BRANCH  34  42
ATOM     40  C   UNL     1       6.031   6.186  22.149  0.00  0.00    +0.109 C 
ATOM     41  C   UNL     1       6.651   5.120  23.009  0.00  0.00    +0.210 C 
ATOM     42  N   UNL     1       7.630   4.408  22.352  0.00  0.00    -0.305 N 
ATOM     43  H   UNL     1       7.633   4.433  21.338  0.00  0.00    +0.149 HD
ATOM     44  O   UNL     1       6.316   4.911  24.170  0.00  0.00    -0.276 OA
ENDBRANCH  34  42
BRANCH  35  45
ATOM     45  O   UNL     1       7.581   1.858  21.159  0.00  0.00    -0.387 OA
ATOM     46  H   UNL     1       7.829   2.058  20.239  0.00  0.00    +0.210 HD
ENDBRANCH  35  45
BRANCH  39  47
ATOM     47  O   UNL     1       9.290   4.698  24.703  0.00  0.00    -0.365 OA
ATOM     48  H   UNL     1      10.140   5.031  25.038  0.00  0.00    +0.213 HD
ENDBRANCH  39  47
BRANCH  37  49
ATOM     49  C   UNL     1      11.355   0.523  24.331  0.00  0.00    +0.190 C 
BRANCH  49  50
ATOM     50  O   UNL     1      10.710   0.379  25.610  0.00  0.00    -0.392 OA
ATOM     51  H   UNL     1      10.692  -0.585  25.777  0.00  0.00    +0.210 HD
ENDBRANCH  49  50
ENDBRANCH  37  49
ENDBRANCH  33  36
ENDBRANCH   1  33
BRANCH   5  52
ATOM     52  C   UNL     1       7.874  -0.397  26.819  0.00  0.00    +0.190 C 
BRANCH  52  53
ATOM     53  O   UNL     1       9.007  -0.392  27.664  0.00  0.00    -0.392 OA
ATOM     54  H   UNL     1       8.805   0.162  28.446  0.00  0.00    +0.210 HD
ENDBRANCH  52  53
ENDBRANCH   5  52
TORSDOF 18
ENDMDL
MODEL 7
REMARK VINA RESULT:      -6.1      3.750      7.342
REMARK  Name = 
REMARK  21 active torsions:
REMARK  status: ('A' for Active; 'I' for Inactive)
REMARK    1  A    between atoms: C_1  and  C_2
REMARK    2  A    between atoms: N_4  and  C_5
REMARK    3  A    between atoms: C_7  and  O_9
REMARK    4  A    between atoms: C_11  and  C_13
REMARK    5  A    between atoms: C_13  and  O_14
REMARK    6  A    between atoms: C_15  and  O_17
REMARK    7  A    between atoms: O_17  and  C_18
REMARK    8  A    between atoms: C_21  and  C_23
REMARK    9  A    between atoms: C_23  and  O_24
REMARK   10  A    between atoms: C_25  and  O_27
REMARK   11  A    between atoms: O_27  and  C_28
REMARK   12  A    between atoms: C_31  and  C_33
REMARK   13  A    between atoms: C_33  and  O_34
REMARK   14  A    between atoms: C_35  and  O_37
REMARK   15  A    between atoms: C_38  and  O_40
REMARK   16  A    between atoms: C_41  and  N_43
REMARK   17  A    between atoms: C_44  and  C_45
REMARK   18  A    between atoms: C_47  and  O_49
REMARK   19  A    between atoms: C_50  and  N_52
REMARK   20  A    between atoms: C_53  and  C_54
REMARK   21  A    between atoms: C_56  and  O_58
REMARK                            x       y       z     vdW  Elec       q    Type
REMARK                         _______ _______ _______ _____ _____    ______ ____
ROOT
ATOM      1  C   UNL     1       6.091   4.150  22.999  0.00  0.00    +0.274 C 
ATOM      2  C   UNL     1       5.120   3.052  23.489  0.00  0.00    +0.160 C 
ATOM      3  C   UNL     1       5.940   1.811  23.862  0.00  0.00    +0.171 C 
ATOM      4  C   UNL     1       6.786   1.296  22.682  0.00  0.00    +0.183 C 
ATOM      5  C   UNL     1       7.550   2.453  21.977  0.00  0.00    +0.178 C 
ATOM      6  O   UNL     1       6.824   3.692  21.864  0.00  0.00    -0.341 OA
ENDROOT
BRANCH   2   7
ATOM      7  N   UNL     1       4.056   2.779  22.501  0.00  0.00    -0.305 N 
ATOM      8  H   UNL     1       4.236   2.102  21.768  0.00  0.00    +0.149 HD
ATOM      9  C   UNL     1       2.848   3.439  22.518  0.00  0.00    +0.210 C 
ATOM     10  O   UNL     1       2.543   4.258  23.379  0.00  0.00    -0.276 OA
ATOM     11  C   UNL     1       1.906   3.068  21.401  0.00  0.00    +0.109 C 
ENDBRANCH   2   7
BRANCH   3  12
ATOM     12  O   UNL     1       6.816   2.047  24.978  0.00  0.00    -0.387 OA
ATOM     13  H   UNL     1       7.731   2.153  24.647  0.00  0.00    +0.210 HD
ENDBRANCH   3  12
BRANCH   4  14
ATOM     14  O   UNL     1       7.692   0.211  23.042  0.00  0.00    -0.341 OA
BRANCH  14  15
ATOM     15  C   UNL     1       7.035  -1.072  23.115  0.00  0.00    +0.274 C 
ATOM     16  C   UNL     1       6.905  -1.599  24.578  0.00  0.00    +0.160 C 
ATOM     17  C   UNL     1       8.233  -2.212  25.061  0.00  0.00    +0.171 C 
ATOM     18  C   UNL     1       8.755  -3.231  24.036  0.00  0.00    +0.176 C 
ATOM     19  C   UNL     1       8.891  -2.591  22.645  0.00  0.00    +0.178 C 
ATOM     20  O   UNL     1       7.644  -2.010  22.225  0.00  0.00    -0.341 OA
BRANCH  16  21
ATOM     21  N   UNL     1       5.844  -2.617  24.705  0.00  0.00    -0.305 N 
ATOM     22  H   UNL     1       5.956  -3.439  24.113  0.00  0.00    +0.149 HD
ATOM     23  C   UNL     1       4.647  -2.398  25.331  0.00  0.00    +0.210 C 
ATOM     24  O   UNL     1       4.367  -1.354  25.906  0.00  0.00    -0.276 OA
ATOM     25  C   UNL     1       3.696  -3.564  25.289  0.00  0.00    +0.109 C 
ENDBRANCH  16  21
BRANCH  17  26
ATOM     26  O   UNL     1       9.233  -1.227  25.339  0.00  0.00    -0.387 OA
ATOM     27  H   UNL     1       9.476  -0.789  24.500  0.00  0.00    +0.210 HD
ENDBRANCH  17  26
BRANCH  18  28
ATOM     28  O   UNL     1       7.835  -4.343  23.969  0.00  0.00    -0.387 OA
ATOM     29  H   UNL     1       7.304  -4.236  23.158  0.00  0.00    +0.210 HD
ENDBRANCH  18  28
BRANCH  19  30
ATOM     30  C   UNL     1      10.097  -1.639  22.547  0.00  0.00    +0.190 C 
BRANCH  30  31
ATOM     31  O   UNL     1      10.015  -0.841  21.365  0.00  0.00    -0.392 OA
ATOM     32  H   UNL     1      10.162   0.080  21.643  0.00  0.00    +0.210 HD
ENDBRANCH  30  31
ENDBRANCH  19  30
ENDBRANCH  14  15
ENDBRANCH   4  14
BRANCH   1  33
ATOM     33  O   UNL     1       6.864   4.669  24.103  0.00  0.00    -0.341 OA
BRANCH  33  36
ATOM     34  C   UNL     1       6.331   5.945  26.815  0.00  0.00    +0.160 C 
ATOM     35  C   UNL     1       5.809   6.488  25.472  0.00  0.00    +0.171 C 
ATOM     36  C   UNL     1       6.778   6.099  24.325  0.00  0.00    +0.183 C 
ATOM     37  C   UNL     1       8.164   6.705  24.738  0.00  0.00    +0.178 C 
ATOM     38  O   UNL     1       8.610   6.195  26.022  0.00  0.00    -0.341 OA
ATOM     39  C   UNL     1       7.723   6.546  27.076  0.00  0.00    +0.270 C 
BRANCH  34  42
ATOM     40  C   UNL     1       4.089   5.604  29.862  0.00  0.00    +0.109 C 
ATOM     41  C   UNL     1       5.154   5.200  28.881  0.00  0.00    +0.210 C 
ATOM     42  N   UNL     1       5.361   6.144  27.900  0.00  0.00    -0.305 N 
ATOM     43  H   UNL     1       4.626   6.825  27.737  0.00  0.00    +0.149 HD
ATOM     44  O   UNL     1       5.769   4.141  28.952  0.00  0.00    -0.276 OA
ENDBRANCH  34  42
BRANCH  35  45
ATOM     45  O   UNL     1       4.465   6.053  25.232  0.00  0.00    -0.387 OA
ATOM     46  H   UNL     1       4.076   5.843  26.101  0.00  0.00    +0.210 HD
ENDBRANCH  35  45
BRANCH  39  47
ATOM     47  O   UNL     1       8.223   6.026  28.302  0.00  0.00    -0.365 OA
ATOM     48  H   UNL     1       7.997   5.080  28.295  0.00  0.00    +0.213 HD
ENDBRANCH  39  47
BRANCH  37  49
ATOM     49  C   UNL     1       9.345   6.494  23.791  0.00  0.00    +0.190 C 
BRANCH  49  50
ATOM     50  O   UNL     1       8.824   6.147  22.495  0.00  0.00    -0.392 OA
ATOM     51  H   UNL     1       9.277   6.747  21.870  0.00  0.00    +0.210 HD
ENDBRANCH  49  50
ENDBRANCH  37  49
ENDBRANCH  33  36
ENDBRANCH   1  33
BRANCH   5  52
ATOM     52  C   UNL     1       8.989   2.715  22.441  0.00  0.00    +0.190 C 
BRANCH  52  53
ATOM     53  O   UNL     1       9.968   2.102  21.627  0.00  0.00    -0.392 OA
ATOM     54  H   UNL     1      10.315   2.775  21.004  0.00  0.00    +0.210 HD
ENDBRANCH  52  53
ENDBRANCH   5  52
TORSDOF 18
ENDMDL
MODEL 8
REMARK VINA RESULT:      -5.9      2.331      3.469
REMARK  Name = 
REMARK  21 active torsions:
REMARK  status: ('A' for Active; 'I' for Inactive)
REMARK    1  A    between atoms: C_1  and  C_2
REMARK    2  A    between atoms: N_4  and  C_5
REMARK    3  A    between atoms: C_7  and  O_9
REMARK    4  A    between atoms: C_11  and  C_13
REMARK    5  A    between atoms: C_13  and  O_14
REMARK    6  A    between atoms: C_15  and  O_17
REMARK    7  A    between atoms: O_17  and  C_18
REMARK    8  A    between atoms: C_21  and  C_23
REMARK    9  A    between atoms: C_23  and  O_24
REMARK   10  A    between atoms: C_25  and  O_27
REMARK   11  A    between atoms: O_27  and  C_28
REMARK   12  A    between atoms: C_31  and  C_33
REMARK   13  A    between atoms: C_33  and  O_34
REMARK   14  A    between atoms: C_35  and  O_37
REMARK   15  A    between atoms: C_38  and  O_40
REMARK   16  A    between atoms: C_41  and  N_43
REMARK   17  A    between atoms: C_44  and  C_45
REMARK   18  A    between atoms: C_47  and  O_49
REMARK   19  A    between atoms: C_50  and  N_52
REMARK   20  A    between atoms: C_53  and  C_54
REMARK   21  A    between atoms: C_56  and  O_58
REMARK                            x       y       z     vdW  Elec       q    Type
REMARK                         _______ _______ _______ _____ _____    ______ ____
ROOT
ATOM      1  C   UNL     1       8.135  -1.712  24.049  0.00  0.00    +0.274 C 
ATOM      2  C   UNL     1       6.911  -2.396  23.401  0.00  0.00    +0.160 C 
ATOM      3  C   UNL     1       5.676  -2.094  24.260  0.00  0.00    +0.171 C 
ATOM      4  C   UNL     1       5.851  -2.566  25.716  0.00  0.00    +0.183 C 
ATOM      5  C   UNL     1       7.229  -2.135  26.296  0.00  0.00    +0.178 C 
ATOM      6  O   UNL     1       8.333  -2.203  25.374  0.00  0.00    -0.341 OA
ENDROOT
BRANCH   2   7
ATOM      7  N   UNL     1       7.138  -3.840  23.186  0.00  0.00    -0.305 N 
ATOM      8  H   UNL     1       7.762  -4.332  23.814  0.00  0.00    +0.149 HD
ATOM      9  C   UNL     1       6.564  -4.527  22.141  0.00  0.00    +0.210 C 
ATOM     10  O   UNL     1       5.783  -4.013  21.347  0.00  0.00    -0.276 OA
ATOM     11  C   UNL     1       6.952  -5.982  22.049  0.00  0.00    +0.109 C 
ENDBRANCH   2   7
BRANCH   3  12
ATOM     12  O   UNL     1       5.347  -0.694  24.274  0.00  0.00    -0.387 OA
ATOM     13  H   UNL     1       4.825  -0.483  23.473  0.00  0.00    +0.210 HD
ENDBRANCH   3  12
BRANCH   4  14
ATOM     14  O   UNL     1       4.761  -2.160  26.597  0.00  0.00    -0.341 OA
BRANCH  14  15
ATOM     15  C   UNL     1       4.596  -3.037  27.731  0.00  0.00    +0.274 C 
ATOM     16  C   UNL     1       4.630  -4.547  27.335  0.00  0.00    +0.160 C 
ATOM     17  C   UNL     1       3.277  -4.992  26.749  0.00  0.00    +0.171 C 
ATOM     18  C   UNL     1       2.129  -4.580  27.684  0.00  0.00    +0.176 C 
ATOM     19  C   UNL     1       2.164  -3.069  27.965  0.00  0.00    +0.178 C 
ATOM     20  O   UNL     1       3.442  -2.676  28.494  0.00  0.00    -0.341 OA
BRANCH  16  21
ATOM     21  N   UNL     1       4.951  -5.411  28.487  0.00  0.00    -0.305 N 
ATOM     22  H   UNL     1       4.270  -5.398  29.244  0.00  0.00    +0.149 HD
ATOM     23  C   UNL     1       6.178  -5.981  28.696  0.00  0.00    +0.210 C 
ATOM     24  O   UNL     1       7.112  -5.879  27.912  0.00  0.00    -0.276 OA
ATOM     25  C   UNL     1       6.289  -6.779  29.967  0.00  0.00    +0.109 C 
ENDBRANCH  16  21
BRANCH  17  26
ATOM     26  O   UNL     1       3.049  -4.489  25.429  0.00  0.00    -0.387 OA
ATOM     27  H   UNL     1       3.695  -4.903  24.825  0.00  0.00    +0.210 HD
ENDBRANCH  17  26
BRANCH  18  28
ATOM     28  O   UNL     1       2.253  -5.306  28.927  0.00  0.00    -0.387 OA
ATOM     29  H   UNL     1       2.540  -6.213  28.709  0.00  0.00    +0.210 HD
ENDBRANCH  18  28
BRANCH  19  30
ATOM     30  C   UNL     1       1.692  -2.232  26.763  0.00  0.00    +0.190 C 
BRANCH  30  31
ATOM     31  O   UNL     1       2.092  -0.869  26.908  0.00  0.00    -0.392 OA
ATOM     32  H   UNL     1       2.033  -0.468  26.024  0.00  0.00    +0.210 HD
ENDBRANCH  30  31
ENDBRANCH  19  30
ENDBRANCH  14  15
ENDBRANCH   4  14
BRANCH   1  33
ATOM     33  O   UNL     1       8.053  -0.279  23.894  0.00  0.00    -0.341 OA
BRANCH  33  36
ATOM     34  C   UNL     1       8.021   2.676  23.158  0.00  0.00    +0.160 C 
ATOM     35  C   UNL     1       7.337   1.561  22.345  0.00  0.00    +0.171 C 
ATOM     36  C   UNL     1       8.094   0.220  22.533  0.00  0.00    +0.183 C 
ATOM     37  C   UNL     1       9.562   0.511  22.067  0.00  0.00    +0.178 C 
ATOM     38  O   UNL     1      10.165   1.586  22.833  0.00  0.00    -0.341 OA
ATOM     39  C   UNL     1       9.472   2.816  22.666  0.00  0.00    +0.270 C 
BRANCH  34  42
ATOM     40  C   UNL     1       6.267   5.935  24.009  0.00  0.00    +0.109 C 
ATOM     41  C   UNL     1       7.146   4.739  24.246  0.00  0.00    +0.210 C 
ATOM     42  N   UNL     1       7.242   3.921  23.143  0.00  0.00    -0.305 N 
ATOM     43  H   UNL     1       6.523   4.002  22.431  0.00  0.00    +0.149 HD
ATOM     44  O   UNL     1       7.714   4.520  25.311  0.00  0.00    -0.276 OA
ENDBRANCH  34  42
BRANCH  35  45
ATOM     45  O   UNL     1       5.947   1.464  22.679  0.00  0.00    -0.387 OA
ATOM     46  H   UNL     1       5.894   1.006  23.538  0.00  0.00    +0.210 HD
ENDBRANCH  35  45
BRANCH  39  47
ATOM     47  O   UNL     1      10.118   3.826  23.432  0.00  0.00    -0.365 OA
ATOM     48  H   UNL     1      11.069   3.633  23.368  0.00  0.00    +0.213 HD
ENDBRANCH  39  47
BRANCH  37  49
ATOM     49  C   UNL     1      10.569  -0.637  22.127  0.00  0.00    +0.190 C 
BRANCH  49  50
ATOM     50  O   UNL     1      10.049  -1.732  21.351  0.00  0.00    -0.392 OA
ATOM     51  H   UNL     1       9.779  -1.335  20.499  0.00  0.00    +0.210 HD
ENDBRANCH  49  50
ENDBRANCH  37  49
ENDBRANCH  33  36
ENDBRANCH   1  33
BRANCH   5  52
ATOM     52  C   UNL     1       7.267  -0.820  27.085  0.00  0.00    +0.190 C 
BRANCH  52  53
ATOM     53  O   UNL     1       6.622   0.254  26.429  0.00  0.00    -0.392 OA
ATOM     54  H   UNL     1       7.309   0.852  26.070  0.00  0.00    +0.210 HD
ENDBRANCH  52  53
ENDBRANCH   5  52
TORSDOF 18
ENDMDL
MODEL 9
REMARK VINA RESULT:      -5.8      2.359      8.114
REMARK  Name = 
REMARK  21 active torsions:
REMARK  status: ('A' for Active; 'I' for Inactive)
REMARK    1  A    between atoms: C_1  and  C_2
REMARK    2  A    between atoms: N_4  and  C_5
REMARK    3  A    between atoms: C_7  and  O_9
REMARK    4  A    between atoms: C_11  and  C_13
REMARK    5  A    between atoms: C_13  and  O_14
REMARK    6  A    between atoms: C_15  and  O_17
REMARK    7  A    between atoms: O_17  and  C_18
REMARK    8  A    between atoms: C_21  and  C_23
REMARK    9  A    between atoms: C_23  and  O_24
REMARK   10  A    between atoms: C_25  and  O_27
REMARK   11  A    between atoms: O_27  and  C_28
REMARK   12  A    between atoms: C_31  and  C_33
REMARK   13  A    between atoms: C_33  and  O_34
REMARK   14  A    between atoms: C_35  and  O_37
REMARK   15  A    between atoms: C_38  and  O_40
REMARK   16  A    between atoms: C_41  and  N_43
REMARK   17  A    between atoms: C_44  and  C_45
REMARK   18  A    between atoms: C_47  and  O_49
REMARK   19  A    between atoms: C_50  and  N_52
REMARK   20  A    between atoms: C_53  and  C_54
REMARK   21  A    between atoms: C_56  and  O_58
REMARK                            x       y       z     vdW  Elec       q    Type
REMARK                         _______ _______ _______ _____ _____    ______ ____
ROOT
ATOM      1  C   UNL     1       7.066  -3.137  24.806  0.00  0.00    +0.274 C 
ATOM      2  C   UNL     1       5.855  -2.188  24.666  0.00  0.00    +0.160 C 
ATOM      3  C   UNL     1       6.345  -0.861  24.071  0.00  0.00    +0.171 C 
ATOM      4  C   UNL     1       7.445  -0.210  24.930  0.00  0.00    +0.183 C 
ATOM      5  C   UNL     1       8.537  -1.238  25.339  0.00  0.00    +0.178 C 
ATOM      6  O   UNL     1       8.053  -2.557  25.658  0.00  0.00    -0.341 OA
ENDROOT
BRANCH   2   7
ATOM      7  N   UNL     1       5.132  -2.028  25.944  0.00  0.00    -0.305 N 
ATOM      8  H   UNL     1       5.611  -1.587  26.721  0.00  0.00    +0.149 HD
ATOM      9  C   UNL     1       3.848  -2.490  26.127  0.00  0.00    +0.210 C 
ATOM     10  O   UNL     1       3.192  -3.017  25.235  0.00  0.00    -0.276 OA
ATOM     11  C   UNL     1       3.291  -2.284  27.513  0.00  0.00    +0.109 C 
ENDBRANCH   2   7
BRANCH   3  12
ATOM     12  O   UNL     1       6.846  -1.013  22.731  0.00  0.00    -0.387 OA
ATOM     13  H   UNL     1       7.076  -1.953  22.583  0.00  0.00    +0.210 HD
ENDBRANCH   3  12
BRANCH   4  14
ATOM     14  O   UNL     1       8.041   0.973  24.319  0.00  0.00    -0.341 OA
BRANCH  14  15
ATOM     15  C   UNL     1       8.216   2.062  25.250  0.00  0.00    +0.274 C 
ATOM     16  C   UNL     1       6.910   2.399  26.036  0.00  0.00    +0.160 C 
ATOM     17  C   UNL     1       5.953   3.243  25.174  0.00  0.00    +0.171 C 
ATOM     18  C   UNL     1       6.695   4.450  24.578  0.00  0.00    +0.176 C 
ATOM     19  C   UNL     1       7.932   3.998  23.786  0.00  0.00    +0.178 C 
ATOM     20  O   UNL     1       8.800   3.197  24.606  0.00  0.00    -0.341 OA
BRANCH  16  21
ATOM     21  N   UNL     1       7.193   3.134  27.283  0.00  0.00    -0.305 N 
ATOM     22  H   UNL     1       8.045   3.693  27.276  0.00  0.00    +0.149 HD
ATOM     23  C   UNL     1       6.555   2.897  28.471  0.00  0.00    +0.210 C 
ATOM     24  O   UNL     1       5.641   2.094  28.597  0.00  0.00    -0.276 OA
ATOM     25  C   UNL     1       7.047   3.731  29.623  0.00  0.00    +0.109 C 
ENDBRANCH  16  21
BRANCH  17  26
ATOM     26  O   UNL     1       5.320   2.486  24.138  0.00  0.00    -0.387 OA
ATOM     27  H   UNL     1       4.801   1.770  24.553  0.00  0.00    +0.210 HD
ENDBRANCH  17  26
BRANCH  18  28
ATOM     28  O   UNL     1       7.102   5.328  25.651  0.00  0.00    -0.387 OA
ATOM     29  H   UNL     1       7.513   6.115  25.246  0.00  0.00    +0.210 HD
ENDBRANCH  18  28
BRANCH  19  30
ATOM     30  C   UNL     1       7.568   3.356  22.435  0.00  0.00    +0.190 C 
BRANCH  30  31
ATOM     31  O   UNL     1       6.431   4.001  21.860  0.00  0.00    -0.392 OA
ATOM     32  H   UNL     1       6.301   4.827  22.357  0.00  0.00    +0.210 HD
ENDBRANCH  30  31
ENDBRANCH  19  30
ENDBRANCH  14  15
ENDBRANCH   4  14
BRANCH   1  33
ATOM     33  O   UNL     1       7.512  -3.581  23.507  0.00  0.00    -0.341 OA
BRANCH  33  36
ATOM     34  C   UNL     1       6.202  -5.612  25.359  0.00  0.00    +0.160 C 
ATOM     35  C   UNL     1       7.543  -5.823  24.633  0.00  0.00    +0.171 C 
ATOM     36  C   UNL     1       7.568  -5.017  23.308  0.00  0.00    +0.183 C 
ATOM     37  C   UNL     1       6.335  -5.536  22.490  0.00  0.00    +0.178 C 
ATOM     38  O   UNL     1       5.093  -5.350  23.217  0.00  0.00    -0.341 OA
ATOM     39  C   UNL     1       5.068  -6.085  24.433  0.00  0.00    +0.270 C 
BRANCH  34  42
ATOM     40  C   UNL     1       6.253  -6.304  29.093  0.00  0.00    +0.109 C 
ATOM     41  C   UNL     1       6.218  -5.465  27.846  0.00  0.00    +0.210 C 
ATOM     42  N   UNL     1       6.202  -6.222  26.696  0.00  0.00    -0.305 N 
ATOM     43  H   UNL     1       6.515  -7.185  26.759  0.00  0.00    +0.149 HD
ATOM     44  O   UNL     1       6.207  -4.239  27.859  0.00  0.00    -0.276 OA
ENDBRANCH  34  42
BRANCH  35  45
ATOM     45  O   UNL     1       8.646  -5.509  25.493  0.00  0.00    -0.387 OA
ATOM     46  H   UNL     1       8.424  -5.856  26.376  0.00  0.00    +0.210 HD
ENDBRANCH  35  45
BRANCH  39  47
ATOM     47  O   UNL     1       3.824  -5.866  25.088  0.00  0.00    -0.365 OA
ATOM     48  H   UNL     1       3.151  -6.258  24.506  0.00  0.00    +0.213 HD
ENDBRANCH  39  47
BRANCH  37  49
ATOM     49  C   UNL     1       6.088  -4.928  21.111  0.00  0.00    +0.190 C 
BRANCH  49  50
ATOM     50  O   UNL     1       5.693  -3.555  21.290  0.00  0.00    -0.392 OA
ATOM     51  H   UNL     1       5.557  -3.210  20.385  0.00  0.00    +0.210 HD
ENDBRANCH  49  50
ENDBRANCH  37  49
ENDBRANCH  33  36
ENDBRANCH   1  33
BRANCH   5  52
ATOM     52  C   UNL     1       9.777  -1.325  24.439  0.00  0.00    +0.190 C 
BRANCH  52  53
ATOM     53  O   UNL     1       9.473  -1.415  23.061  0.00  0.00    -0.392 OA
ATOM     54  H   UNL     1       9.283  -2.352  22.848  0.00  0.00    +0.210 HD
ENDBRANCH  52  53
ENDBRANCH   5  52
TORSDOF 18
ENDMDL
