MODEL 1
REMARK VINA RESULT:      -4.7      0.000      0.000
REMARK  Name = 
REMARK  6 active torsions:
REMARK  status: ('A' for Active; 'I' for Inactive)
REMARK    1  A    between atoms: O_1  and  C_2
REMARK    2  A    between atoms: C_2  and  C_3
REMARK    3  A    between atoms: C_6  and  O_8
REMARK    4  A    between atoms: C_9  and  O_11
REMARK    5  A    between atoms: C_12  and  O_14
REMARK    6  A    between atoms: C_15  and  S_17
REMARK                            x       y       z     vdW  Elec       q    Type
REMARK                         _______ _______ _______ _____ _____    ______ ____
ROOT
ATOM      1  C   UNL     1       9.406  -2.258  23.931  0.00  0.00    +0.162 C 
ATOM      2  C   UNL     1       7.997  -2.539  23.365  0.00  0.00    +0.105 C 
ATOM      3  C   UNL     1       7.243  -3.530  24.271  0.00  0.00    +0.163 C 
ATOM      4  C   UNL     1       8.097  -4.755  24.607  0.00  0.00    +0.200 C 
ATOM      5  C   UNL     1       9.482  -4.322  25.090  0.00  0.00    +0.279 C 
ATOM      6  O   UNL     1      10.109  -3.506  24.122  0.00  0.00    -0.342 OA
ENDROOT
BRANCH   2   7
ATOM      7  S   UNL     1       7.018  -0.988  23.180  0.00  0.00    -0.170 S 
ATOM      8  H   UNL     1       6.610  -0.897  24.456  0.00  0.00    +0.102 HD
ENDBRANCH   2   7
BRANCH   3   9
ATOM      9  O   UNL     1       6.035  -3.982  23.642  0.00  0.00    -0.388 OA
ATOM     10  H   UNL     1       5.359  -3.305  23.848  0.00  0.00    +0.210 HD
ENDBRANCH   3   9
BRANCH   4  11
ATOM     11  O   UNL     1       7.419  -5.528  25.612  0.00  0.00    -0.384 OA
ATOM     12  H   UNL     1       8.133  -5.964  26.121  0.00  0.00    +0.210 HD
ENDBRANCH   4  11
BRANCH   5  13
ATOM     13  O   UNL     1      10.268  -5.490  25.269  0.00  0.00    -0.365 OA
ATOM     14  H   UNL     1      10.899  -5.463  24.528  0.00  0.00    +0.213 HD
ENDBRANCH   5  13
BRANCH   1  15
ATOM     15  C   UNL     1      10.273  -1.394  23.000  0.00  0.00    +0.188 C 
BRANCH  15  16
ATOM     16  O   UNL     1      10.085  -1.819  21.647  0.00  0.00    -0.392 OA
ATOM     17  H   UNL     1       9.150  -1.660  21.430  0.00  0.00    +0.210 HD
ENDBRANCH  15  16
ENDBRANCH   1  15
TORSDOF 6
ENDMDL
MODEL 2
REMARK VINA RESULT:      -4.6      2.788      3.594
REMARK  Name = 
REMARK  6 active torsions:
REMARK  status: ('A' for Active; 'I' for Inactive)
REMARK    1  A    between atoms: O_1  and  C_2
REMARK    2  A    between atoms: C_2  and  C_3
REMARK    3  A    between atoms: C_6  and  O_8
REMARK    4  A    between atoms: C_9  and  O_11
REMARK    5  A    between atoms: C_12  and  O_14
REMARK    6  A    between atoms: C_15  and  S_17
REMARK                            x       y       z     vdW  Elec       q    Type
REMARK                         _______ _______ _______ _____ _____    ______ ____
ROOT
ATOM      1  C   UNL     1       6.957  -4.875  23.394  0.00  0.00    +0.162 C 
ATOM      2  C   UNL     1       6.109  -5.607  24.456  0.00  0.00    +0.105 C 
ATOM      3  C   UNL     1       6.660  -5.331  25.867  0.00  0.00    +0.163 C 
ATOM      4  C   UNL     1       8.173  -5.548  25.938  0.00  0.00    +0.200 C 
ATOM      5  C   UNL     1       8.870  -4.818  24.789  0.00  0.00    +0.279 C 
ATOM      6  O   UNL     1       8.347  -5.241  23.547  0.00  0.00    -0.342 OA
ENDROOT
BRANCH   2   7
ATOM      7  S   UNL     1       4.335  -5.113  24.366  0.00  0.00    -0.170 S 
ATOM      8  H   UNL     1       3.816  -6.299  24.723  0.00  0.00    +0.102 HD
ENDBRANCH   2   7
BRANCH   3   9
ATOM      9  O   UNL     1       6.037  -6.185  26.836  0.00  0.00    -0.388 OA
ATOM     10  H   UNL     1       5.077  -5.999  26.775  0.00  0.00    +0.210 HD
ENDBRANCH   3   9
BRANCH   4  11
ATOM     11  O   UNL     1       8.647  -5.076  27.211  0.00  0.00    -0.384 OA
ATOM     12  H   UNL     1       9.310  -5.739  27.497  0.00  0.00    +0.210 HD
ENDBRANCH   4  11
BRANCH   5  13
ATOM     13  O   UNL     1      10.249  -5.151  24.831  0.00  0.00    -0.365 OA
ATOM     14  H   UNL     1      10.258  -6.070  25.154  0.00  0.00    +0.213 HD
ENDBRANCH   5  13
BRANCH   1  15
ATOM     15  C   UNL     1       6.558  -5.224  21.950  0.00  0.00    +0.188 C 
BRANCH  15  16
ATOM     16  O   UNL     1       6.351  -6.635  21.844  0.00  0.00    -0.392 OA
ATOM     17  H   UNL     1       7.221  -7.035  21.669  0.00  0.00    +0.210 HD
ENDBRANCH  15  16
ENDBRANCH   1  15
TORSDOF 6
ENDMDL
MODEL 3
REMARK VINA RESULT:      -4.6      3.896      5.824
REMARK  Name = 
REMARK  6 active torsions:
REMARK  status: ('A' for Active; 'I' for Inactive)
REMARK    1  A    between atoms: O_1  and  C_2
REMARK    2  A    between atoms: C_2  and  C_3
REMARK    3  A    between atoms: C_6  and  O_8
REMARK    4  A    between atoms: C_9  and  O_11
REMARK    5  A    between atoms: C_12  and  O_14
REMARK    6  A    between atoms: C_15  and  S_17
REMARK                            x       y       z     vdW  Elec       q    Type
REMARK                         _______ _______ _______ _____ _____    ______ ____
ROOT
ATOM      1  C   UNL     1       9.472  -0.030  25.040  0.00  0.00    +0.162 C 
ATOM      2  C   UNL     1       9.258  -0.715  23.673  0.00  0.00    +0.105 C 
ATOM      3  C   UNL     1       9.938   0.096  22.555  0.00  0.00    +0.163 C 
ATOM      4  C   UNL     1       9.580   1.582  22.633  0.00  0.00    +0.200 C 
ATOM      5  C   UNL     1       9.780   2.103  24.058  0.00  0.00    +0.279 C 
ATOM      6  O   UNL     1       9.018   1.341  24.971  0.00  0.00    -0.342 OA
ENDROOT
BRANCH   2   7
ATOM      7  S   UNL     1       9.898  -2.444  23.674  0.00  0.00    -0.170 S 
ATOM      8  H   UNL     1       9.627  -2.719  24.959  0.00  0.00    +0.102 HD
ENDBRANCH   2   7
BRANCH   3   9
ATOM      9  O   UNL     1       9.553  -0.392  21.262  0.00  0.00    -0.388 OA
ATOM     10  H   UNL     1       9.022  -1.197  21.430  0.00  0.00    +0.210 HD
ENDBRANCH   3   9
BRANCH   4  11
ATOM     11  O   UNL     1      10.404   2.304  21.701  0.00  0.00    -0.384 OA
ATOM     12  H   UNL     1      11.176   1.723  21.542  0.00  0.00    +0.210 HD
ENDBRANCH   4  11
BRANCH   5  13
ATOM     13  O   UNL     1       9.320   3.445  24.101  0.00  0.00    -0.365 OA
ATOM     14  H   UNL     1      10.135   3.974  24.030  0.00  0.00    +0.213 HD
ENDBRANCH   5  13
BRANCH   1  15
ATOM     15  C   UNL     1       8.695  -0.702  26.185  0.00  0.00    +0.188 C 
BRANCH  15  16
ATOM     16  O   UNL     1       9.332  -0.401  27.430  0.00  0.00    -0.392 OA
ATOM     17  H   UNL     1       8.645  -0.041  28.018  0.00  0.00    +0.210 HD
ENDBRANCH  15  16
ENDBRANCH   1  15
TORSDOF 6
ENDMDL
MODEL 4
REMARK VINA RESULT:      -4.4      1.766      3.500
REMARK  Name = 
REMARK  6 active torsions:
REMARK  status: ('A' for Active; 'I' for Inactive)
REMARK    1  A    between atoms: O_1  and  C_2
REMARK    2  A    between atoms: C_2  and  C_3
REMARK    3  A    between atoms: C_6  and  O_8
REMARK    4  A    between atoms: C_9  and  O_11
REMARK    5  A    between atoms: C_12  and  O_14
REMARK    6  A    between atoms: C_15  and  S_17
REMARK                            x       y       z     vdW  Elec       q    Type
REMARK                         _______ _______ _______ _____ _____    ______ ____
ROOT
ATOM      1  C   UNL     1       6.638  -3.275  25.358  0.00  0.00    +0.162 C 
ATOM      2  C   UNL     1       7.905  -2.697  24.692  0.00  0.00    +0.105 C 
ATOM      3  C   UNL     1       8.923  -3.818  24.411  0.00  0.00    +0.163 C 
ATOM      4  C   UNL     1       9.145  -4.703  25.640  0.00  0.00    +0.200 C 
ATOM      5  C   UNL     1       7.803  -5.144  26.227  0.00  0.00    +0.279 C 
ATOM      6  O   UNL     1       7.009  -4.019  26.540  0.00  0.00    -0.342 OA
ENDROOT
BRANCH   2   7
ATOM      7  S   UNL     1       7.503  -1.808  23.127  0.00  0.00    -0.170 S 
ATOM      8  H   UNL     1       6.302  -1.344  23.505  0.00  0.00    +0.102 HD
ENDBRANCH   2   7
BRANCH   3   9
ATOM      9  O   UNL     1      10.189  -3.273  24.014  0.00  0.00    -0.388 OA
ATOM     10  H   UNL     1      10.864  -3.887  24.368  0.00  0.00    +0.210 HD
ENDBRANCH   3   9
BRANCH   4  11
ATOM     11  O   UNL     1       9.936  -5.840  25.252  0.00  0.00    -0.384 OA
ATOM     12  H   UNL     1      10.746  -5.785  25.801  0.00  0.00    +0.210 HD
ENDBRANCH   4  11
BRANCH   5  13
ATOM     13  O   UNL     1       8.064  -5.856  27.427  0.00  0.00    -0.365 OA
ATOM     14  H   UNL     1       8.048  -6.791  27.153  0.00  0.00    +0.213 HD
ENDBRANCH   5  13
BRANCH   1  15
ATOM     15  C   UNL     1       5.639  -2.194  25.804  0.00  0.00    +0.188 C 
BRANCH  15  16
ATOM     16  O   UNL     1       4.428  -2.331  25.055  0.00  0.00    -0.392 OA
ATOM     17  H   UNL     1       3.695  -2.274  25.693  0.00  0.00    +0.210 HD
ENDBRANCH  15  16
ENDBRANCH   1  15
TORSDOF 6
ENDMDL
MODEL 5
REMARK VINA RESULT:      -4.4      2.877      4.690
REMARK  Name = 
REMARK  6 active torsions:
REMARK  status: ('A' for Active; 'I' for Inactive)
REMARK    1  A    between atoms: O_1  and  C_2
REMARK    2  A    between atoms: C_2  and  C_3
REMARK    3  A    between atoms: C_6  and  O_8
REMARK    4  A    between atoms: C_9  and  O_11
REMARK    5  A    between atoms: C_12  and  O_14
REMARK    6  A    between atoms: C_15  and  S_17
REMARK                            x       y       z     vdW  Elec       q    Type
REMARK                         _______ _______ _______ _____ _____    ______ ____
ROOT
ATOM      1  C   UNL     1       6.183  -5.027  25.777  0.00  0.00    +0.162 C 
ATOM      2  C   UNL     1       7.147  -4.633  24.638  0.00  0.00    +0.105 C 
ATOM      3  C   UNL     1       6.435  -4.725  23.276  0.00  0.00    +0.163 C 
ATOM      4  C   UNL     1       5.697  -6.055  23.110  0.00  0.00    +0.200 C 
ATOM      5  C   UNL     1       4.834  -6.341  24.341  0.00  0.00    +0.279 C 
ATOM      6  O   UNL     1       5.627  -6.334  25.510  0.00  0.00    -0.342 OA
ENDROOT
BRANCH   2   7
ATOM      7  S   UNL     1       7.824  -2.934  24.879  0.00  0.00    -0.170 S 
ATOM      8  H   UNL     1       8.994  -3.133  24.252  0.00  0.00    +0.102 HD
ENDBRANCH   2   7
BRANCH   3   9
ATOM      9  O   UNL     1       7.373  -4.593  22.198  0.00  0.00    -0.388 OA
ATOM     10  H   UNL     1       8.115  -5.193  22.418  0.00  0.00    +0.210 HD
ENDBRANCH   3   9
BRANCH   4  11
ATOM     11  O   UNL     1       4.891  -5.990  21.921  0.00  0.00    -0.384 OA
ATOM     12  H   UNL     1       4.617  -5.052  21.851  0.00  0.00    +0.210 HD
ENDBRANCH   4  11
BRANCH   5  13
ATOM     13  O   UNL     1       4.271  -7.635  24.189  0.00  0.00    -0.365 OA
ATOM     14  H   UNL     1       4.960  -8.232  24.535  0.00  0.00    +0.213 HD
ENDBRANCH   5  13
BRANCH   1  15
ATOM     15  C   UNL     1       6.866  -5.103  27.153  0.00  0.00    +0.188 C 
BRANCH  15  16
ATOM     16  O   UNL     1       8.022  -5.941  27.062  0.00  0.00    -0.392 OA
ATOM     17  H   UNL     1       8.135  -6.359  27.934  0.00  0.00    +0.210 HD
ENDBRANCH  15  16
ENDBRANCH   1  15
TORSDOF 6
ENDMDL
MODEL 6
REMARK VINA RESULT:      -4.4      2.283      3.528
REMARK  Name = 
REMARK  6 active torsions:
REMARK  status: ('A' for Active; 'I' for Inactive)
REMARK    1  A    between atoms: O_1  and  C_2
REMARK    2  A    between atoms: C_2  and  C_3
REMARK    3  A    between atoms: C_6  and  O_8
REMARK    4  A    between atoms: C_9  and  O_11
REMARK    5  A    between atoms: C_12  and  O_14
REMARK    6  A    between atoms: C_15  and  S_17
REMARK                            x       y       z     vdW  Elec       q    Type
REMARK                         _______ _______ _______ _____ _____    ______ ____
ROOT
ATOM      1  C   UNL     1       8.045  -4.493  24.649  0.00  0.00    +0.162 C 
ATOM      2  C   UNL     1       7.658  -3.014  24.440  0.00  0.00    +0.105 C 
ATOM      3  C   UNL     1       6.434  -2.906  23.510  0.00  0.00    +0.163 C 
ATOM      4  C   UNL     1       6.607  -3.749  22.244  0.00  0.00    +0.200 C 
ATOM      5  C   UNL     1       7.054  -5.166  22.606  0.00  0.00    +0.279 C 
ATOM      6  O   UNL     1       8.244  -5.129  23.367  0.00  0.00    -0.342 OA
ENDROOT
BRANCH   2   7
ATOM      7  S   UNL     1       7.306  -2.171  26.041  0.00  0.00    -0.170 S 
ATOM      8  H   UNL     1       7.503  -0.914  25.613  0.00  0.00    +0.102 HD
ENDBRANCH   2   7
BRANCH   3   9
ATOM      9  O   UNL     1       6.209  -1.545  23.117  0.00  0.00    -0.388 OA
ATOM     10  H   UNL     1       6.675  -1.435  22.263  0.00  0.00    +0.210 HD
ENDBRANCH   3   9
BRANCH   4  11
ATOM     11  O   UNL     1       5.360  -3.769  21.530  0.00  0.00    -0.384 OA
ATOM     12  H   UNL     1       4.723  -4.193  22.143  0.00  0.00    +0.210 HD
ENDBRANCH   4  11
BRANCH   5  13
ATOM     13  O   UNL     1       7.316  -5.864  21.398  0.00  0.00    -0.365 OA
ATOM     14  H   UNL     1       8.240  -5.633  21.190  0.00  0.00    +0.213 HD
ENDBRANCH   5  13
BRANCH   1  15
ATOM     15  C   UNL     1       9.348  -4.674  25.446  0.00  0.00    +0.188 C 
BRANCH  15  16
ATOM     16  O   UNL     1       9.920  -5.948  25.137  0.00  0.00    -0.392 OA
ATOM     17  H   UNL     1      10.667  -6.077  25.747  0.00  0.00    +0.210 HD
ENDBRANCH  15  16
ENDBRANCH   1  15
TORSDOF 6
ENDMDL
MODEL 7
REMARK VINA RESULT:      -4.3      2.652      3.628
REMARK  Name = 
REMARK  6 active torsions:
REMARK  status: ('A' for Active; 'I' for Inactive)
REMARK    1  A    between atoms: O_1  and  C_2
REMARK    2  A    between atoms: C_2  and  C_3
REMARK    3  A    between atoms: C_6  and  O_8
REMARK    4  A    between atoms: C_9  and  O_11
REMARK    5  A    between atoms: C_12  and  O_14
REMARK    6  A    between atoms: C_15  and  S_17
REMARK                            x       y       z     vdW  Elec       q    Type
REMARK                         _______ _______ _______ _____ _____    ______ ____
ROOT
ATOM      1  C   UNL     1       8.984   0.989  23.166  0.00  0.00    +0.162 C 
ATOM      2  C   UNL     1       7.528   0.538  22.924  0.00  0.00    +0.105 C 
ATOM      3  C   UNL     1       7.371  -0.962  23.235  0.00  0.00    +0.163 C 
ATOM      4  C   UNL     1       8.462  -1.798  22.560  0.00  0.00    +0.200 C 
ATOM      5  C   UNL     1       9.841  -1.194  22.834  0.00  0.00    +0.279 C 
ATOM      6  O   UNL     1       9.883   0.151  22.405  0.00  0.00    -0.342 OA
ENDROOT
BRANCH   2   7
ATOM      7  S   UNL     1       6.337   1.516  23.937  0.00  0.00    -0.170 S 
ATOM      8  H   UNL     1       7.154   2.549  24.198  0.00  0.00    +0.102 HD
ENDBRANCH   2   7
BRANCH   3   9
ATOM      9  O   UNL     1       6.096  -1.447  22.792  0.00  0.00    -0.388 OA
ATOM     10  H   UNL     1       5.523  -1.447  23.586  0.00  0.00    +0.210 HD
ENDBRANCH   3   9
BRANCH   4  11
ATOM     11  O   UNL     1       8.383  -3.145  23.055  0.00  0.00    -0.384 OA
ATOM     12  H   UNL     1       8.416  -3.712  22.257  0.00  0.00    +0.210 HD
ENDBRANCH   4  11
BRANCH   5  13
ATOM     13  O   UNL     1      10.797  -1.932  22.090  0.00  0.00    -0.365 OA
ATOM     14  H   UNL     1      10.293  -2.694  21.751  0.00  0.00    +0.213 HD
ENDBRANCH   5  13
BRANCH   1  15
ATOM     15  C   UNL     1       9.251   2.440  22.734  0.00  0.00    +0.188 C 
BRANCH  15  16
ATOM     16  O   UNL     1      10.160   2.447  21.629  0.00  0.00    -0.392 OA
ATOM     17  H   UNL     1      10.973   2.885  21.937  0.00  0.00    +0.210 HD
ENDBRANCH  15  16
ENDBRANCH   1  15
TORSDOF 6
ENDMDL
MODEL 8
REMARK VINA RESULT:      -4.2      2.840      3.862
REMARK  Name = 
REMARK  6 active torsions:
REMARK  status: ('A' for Active; 'I' for Inactive)
REMARK    1  A    between atoms: O_1  and  C_2
REMARK    2  A    between atoms: C_2  and  C_3
REMARK    3  A    between atoms: C_6  and  O_8
REMARK    4  A    between atoms: C_9  and  O_11
REMARK    5  A    between atoms: C_12  and  O_14
REMARK    6  A    between atoms: C_15  and  S_17
REMARK                            x       y       z     vdW  Elec       q    Type
REMARK                         _______ _______ _______ _____ _____    ______ ____
ROOT
ATOM      1  C   UNL     1       8.218  -5.236  24.534  0.00  0.00    +0.162 C 
ATOM      2  C   UNL     1       6.919  -4.818  25.255  0.00  0.00    +0.105 C 
ATOM      3  C   UNL     1       5.710  -5.563  24.658  0.00  0.00    +0.163 C 
ATOM      4  C   UNL     1       5.694  -5.485  23.130  0.00  0.00    +0.200 C 
ATOM      5  C   UNL     1       7.064  -5.864  22.563  0.00  0.00    +0.279 C 
ATOM      6  O   UNL     1       8.069  -5.035  23.111  0.00  0.00    -0.342 OA
ENDROOT
BRANCH   2   7
ATOM      7  S   UNL     1       7.018  -5.133  27.069  0.00  0.00    -0.170 S 
ATOM      8  H   UNL     1       8.273  -4.688  27.245  0.00  0.00    +0.102 HD
ENDBRANCH   2   7
BRANCH   3   9
ATOM      9  O   UNL     1       4.479  -5.016  25.150  0.00  0.00    -0.388 OA
ATOM     10  H   UNL     1       4.514  -5.115  26.123  0.00  0.00    +0.210 HD
ENDBRANCH   3   9
BRANCH   4  11
ATOM     11  O   UNL     1       4.671  -6.366  22.635  0.00  0.00    -0.384 OA
ATOM     12  H   UNL     1       4.753  -6.327  21.659  0.00  0.00    +0.210 HD
ENDBRANCH   4  11
BRANCH   5  13
ATOM     13  O   UNL     1       7.029  -5.658  21.159  0.00  0.00    -0.365 OA
ATOM     14  H   UNL     1       7.258  -6.530  20.790  0.00  0.00    +0.213 HD
ENDBRANCH   5  13
BRANCH   1  15
ATOM     15  C   UNL     1       9.447  -4.424  24.975  0.00  0.00    +0.188 C 
BRANCH  15  16
ATOM     16  O   UNL     1      10.555  -5.308  25.171  0.00  0.00    -0.392 OA
ATOM     17  H   UNL     1      10.209  -6.214  25.091  0.00  0.00    +0.210 HD
ENDBRANCH  15  16
ENDBRANCH   1  15
TORSDOF 6
ENDMDL
MODEL 9
REMARK VINA RESULT:      -4.2      3.022      5.455
REMARK  Name = 
REMARK  6 active torsions:
REMARK  status: ('A' for Active; 'I' for Inactive)
REMARK    1  A    between atoms: O_1  and  C_2
REMARK    2  A    between atoms: C_2  and  C_3
REMARK    3  A    between atoms: C_6  and  O_8
REMARK    4  A    between atoms: C_9  and  O_11
REMARK    5  A    between atoms: C_12  and  O_14
REMARK    6  A    between atoms: C_15  and  S_17
REMARK                            x       y       z     vdW  Elec       q    Type
REMARK                         _______ _______ _______ _____ _____    ______ ____
ROOT
ATOM      1  C   UNL     1       7.296  -0.896  23.620  0.00  0.00    +0.162 C 
ATOM      2  C   UNL     1       8.416  -1.691  22.915  0.00  0.00    +0.105 C 
ATOM      3  C   UNL     1       9.548  -0.747  22.472  0.00  0.00    +0.163 C 
ATOM      4  C   UNL     1       9.008   0.475  21.724  0.00  0.00    +0.200 C 
ATOM      5  C   UNL     1       7.865   1.118  22.511  0.00  0.00    +0.279 C 
ATOM      6  O   UNL     1       6.845   0.173  22.758  0.00  0.00    -0.342 OA
ENDROOT
BRANCH   2   7
ATOM      7  S   UNL     1       9.094  -3.018  24.003  0.00  0.00    -0.170 S 
ATOM      8  H   UNL     1      10.385  -2.855  23.675  0.00  0.00    +0.102 HD
ENDBRANCH   2   7
BRANCH   3   9
ATOM      9  O   UNL     1      10.476  -1.426  21.614  0.00  0.00    -0.388 OA
ATOM     10  H   UNL     1      10.053  -2.281  21.391  0.00  0.00    +0.210 HD
ENDBRANCH   3   9
BRANCH   4  11
ATOM     11  O   UNL     1      10.085   1.407  21.526  0.00  0.00    -0.384 OA
ATOM     12  H   UNL     1       9.856   2.181  22.080  0.00  0.00    +0.210 HD
ENDBRANCH   4  11
BRANCH   5  13
ATOM     13  O   UNL     1       7.324   2.164  21.719  0.00  0.00    -0.365 OA
ATOM     14  H   UNL     1       6.379   2.170  21.954  0.00  0.00    +0.213 HD
ENDBRANCH   5  13
BRANCH   1  15
ATOM     15  C   UNL     1       6.063  -1.750  23.958  0.00  0.00    +0.188 C 
BRANCH  15  16
ATOM     16  O   UNL     1       5.575  -2.371  22.765  0.00  0.00    -0.392 OA
ATOM     17  H   UNL     1       5.292  -1.653  22.171  0.00  0.00    +0.210 HD
ENDBRANCH  15  16
ENDBRANCH   1  15
TORSDOF 6
ENDMDL
