MODEL 1
REMARK VINA RESULT:      -5.1      0.000      0.000
REMARK  Name = 
REMARK  5 active torsions:
REMARK  status: ('A' for Active; 'I' for Inactive)
REMARK    1  A    between atoms: C_1  and  C_2
REMARK    2  A    between atoms: C_2  and  O_4
REMARK    3  A    between atoms: O_4  and  C_5
REMARK    4  A    between atoms: C_10  and  C_11
REMARK    5  A    between atoms: C_11  and  O_12
REMARK                            x       y       z     vdW  Elec       q    Type
REMARK                         _______ _______ _______ _____ _____    ______ ____
ROOT
ATOM      1  C   UNL     1       8.427  -3.804  23.838  0.00  0.00    +0.146 A 
ATOM      2  C   UNL     1       7.917  -4.666  24.822  0.00  0.00    +0.101 A 
ATOM      3  C   UNL     1       6.617  -5.176  24.666  0.00  0.00    +0.018 A 
ATOM      4  C   UNL     1       5.844  -4.832  23.555  0.00  0.00    +0.001 A 
ATOM      5  C   UNL     1       6.364  -3.985  22.579  0.00  0.00    +0.004 A 
ATOM      6  C   UNL     1       7.656  -3.481  22.712  0.00  0.00    +0.047 A 
ENDROOT
BRANCH   2   7
ATOM      7  C   UNL     1       8.676  -5.125  26.013  0.00  0.00    +0.340 C 
ATOM      8  O   UNL     1       8.271  -4.959  27.152  0.00  0.00    -0.245 OA
BRANCH   7   9
ATOM      9  O   UNL     1       9.877  -5.672  25.737  0.00  0.00    -0.477 OA
ATOM     10  H   UNL     1       9.884  -6.644  25.759  0.00  0.00    +0.295 HD
ENDBRANCH   7   9
ENDBRANCH   2   7
BRANCH   1  11
ATOM     11  O   UNL     1       9.774  -3.389  23.895  0.00  0.00    -0.425 OA
BRANCH  11  13
ATOM     12  C   UNL     1       9.613  -1.106  24.482  0.00  0.00    +0.136 C 
ATOM     13  C   UNL     1      10.076  -2.098  23.458  0.00  0.00    +0.309 C 
ATOM     14  O   UNL     1      10.601  -1.808  22.392  0.00  0.00    -0.251 OA
ENDBRANCH  11  13
ENDBRANCH   1  11
TORSDOF 4
ENDMDL
MODEL 2
REMARK VINA RESULT:      -5.0      2.066      3.697
REMARK  Name = 
REMARK  5 active torsions:
REMARK  status: ('A' for Active; 'I' for Inactive)
REMARK    1  A    between atoms: C_1  and  C_2
REMARK    2  A    between atoms: C_2  and  O_4
REMARK    3  A    between atoms: O_4  and  C_5
REMARK    4  A    between atoms: C_10  and  C_11
REMARK    5  A    between atoms: C_11  and  O_12
REMARK                            x       y       z     vdW  Elec       q    Type
REMARK                         _______ _______ _______ _____ _____    ______ ____
ROOT
ATOM      1  C   UNL     1       7.805  -3.565  23.324  0.00  0.00    +0.146 A 
ATOM      2  C   UNL     1       8.965  -3.614  24.113  0.00  0.00    +0.101 A 
ATOM      3  C   UNL     1       9.968  -2.652  23.900  0.00  0.00    +0.018 A 
ATOM      4  C   UNL     1       9.816  -1.668  22.920  0.00  0.00    +0.001 A 
ATOM      5  C   UNL     1       8.656  -1.623  22.151  0.00  0.00    +0.004 A 
ATOM      6  C   UNL     1       7.647  -2.560  22.358  0.00  0.00    +0.047 A 
ENDROOT
BRANCH   2   7
ATOM      7  C   UNL     1       9.198  -4.591  25.206  0.00  0.00    +0.340 C 
ATOM      8  O   UNL     1       8.973  -4.331  26.377  0.00  0.00    -0.245 OA
BRANCH   7   9
ATOM      9  O   UNL     1       9.745  -5.758  24.809  0.00  0.00    -0.477 OA
ATOM     10  H   UNL     1       9.338  -6.544  25.212  0.00  0.00    +0.295 HD
ENDBRANCH   7   9
ENDBRANCH   2   7
BRANCH   1  11
ATOM     11  O   UNL     1       6.724  -4.427  23.607  0.00  0.00    -0.425 OA
BRANCH  11  13
ATOM     12  C   UNL     1       7.064  -6.094  21.968  0.00  0.00    +0.136 C 
ATOM     13  C   UNL     1       6.116  -5.081  22.535  0.00  0.00    +0.309 C 
ATOM     14  O   UNL     1       4.998  -4.848  22.094  0.00  0.00    -0.251 OA
ENDBRANCH  11  13
ENDBRANCH   1  11
TORSDOF 4
ENDMDL
MODEL 3
REMARK VINA RESULT:      -4.9      1.953      3.258
REMARK  Name = 
REMARK  5 active torsions:
REMARK  status: ('A' for Active; 'I' for Inactive)
REMARK    1  A    between atoms: C_1  and  C_2
REMARK    2  A    between atoms: C_2  and  O_4
REMARK    3  A    between atoms: O_4  and  C_5
REMARK    4  A    between atoms: C_10  and  C_11
REMARK    5  A    between atoms: C_11  and  O_12
REMARK                            x       y       z     vdW  Elec       q    Type
REMARK                         _______ _______ _______ _____ _____    ______ ____
ROOT
ATOM      1  C   UNL     1       7.081  -5.209  24.243  0.00  0.00    +0.146 A 
ATOM      2  C   UNL     1       8.057  -5.012  25.233  0.00  0.00    +0.101 A 
ATOM      3  C   UNL     1       7.698  -5.181  26.581  0.00  0.00    +0.018 A 
ATOM      4  C   UNL     1       6.394  -5.536  26.932  0.00  0.00    +0.001 A 
ATOM      5  C   UNL     1       5.436  -5.739  25.942  0.00  0.00    +0.004 A 
ATOM      6  C   UNL     1       5.779  -5.589  24.600  0.00  0.00    +0.047 A 
ENDROOT
BRANCH   2   7
ATOM      7  C   UNL     1       9.478  -4.678  24.957  0.00  0.00    +0.340 C 
ATOM      8  O   UNL     1       9.810  -3.670  24.355  0.00  0.00    -0.245 OA
BRANCH   7   9
ATOM      9  O   UNL     1      10.363  -5.612  25.361  0.00  0.00    -0.477 OA
ATOM     10  H   UNL     1      10.514  -5.627  26.322  0.00  0.00    +0.295 HD
ENDBRANCH   7   9
ENDBRANCH   2   7
BRANCH   1  11
ATOM     11  O   UNL     1       7.444  -5.183  22.881  0.00  0.00    -0.425 OA
BRANCH  11  13
ATOM     12  C   UNL     1       7.013  -2.936  22.295  0.00  0.00    +0.136 C 
ATOM     13  C   UNL     1       6.697  -4.376  22.023  0.00  0.00    +0.309 C 
ATOM     14  O   UNL     1       5.880  -4.768  21.200  0.00  0.00    -0.251 OA
ENDBRANCH  11  13
ENDBRANCH   1  11
TORSDOF 4
ENDMDL
MODEL 4
REMARK VINA RESULT:      -4.6      2.005      3.966
REMARK  Name = 
REMARK  5 active torsions:
REMARK  status: ('A' for Active; 'I' for Inactive)
REMARK    1  A    between atoms: C_1  and  C_2
REMARK    2  A    between atoms: C_2  and  O_4
REMARK    3  A    between atoms: O_4  and  C_5
REMARK    4  A    between atoms: C_10  and  C_11
REMARK    5  A    between atoms: C_11  and  O_12
REMARK                            x       y       z     vdW  Elec       q    Type
REMARK                         _______ _______ _______ _____ _____    ______ ____
ROOT
ATOM      1  C   UNL     1       8.526  -2.405  23.434  0.00  0.00    +0.146 A 
ATOM      2  C   UNL     1       8.985  -1.765  24.596  0.00  0.00    +0.101 A 
ATOM      3  C   UNL     1       9.895  -0.701  24.467  0.00  0.00    +0.018 A 
ATOM      4  C   UNL     1      10.336  -0.289  23.208  0.00  0.00    +0.001 A 
ATOM      5  C   UNL     1       9.866  -0.925  22.061  0.00  0.00    +0.004 A 
ATOM      6  C   UNL     1       8.954  -1.972  22.171  0.00  0.00    +0.047 A 
ENDROOT
BRANCH   2   7
ATOM      7  C   UNL     1       8.541  -2.100  25.972  0.00  0.00    +0.340 C 
ATOM      8  O   UNL     1       8.112  -1.259  26.746  0.00  0.00    -0.245 OA
BRANCH   7   9
ATOM      9  O   UNL     1       8.716  -3.391  26.321  0.00  0.00    -0.477 OA
ATOM     10  H   UNL     1       9.623  -3.718  26.191  0.00  0.00    +0.295 HD
ENDBRANCH   7   9
ENDBRANCH   2   7
BRANCH   1  11
ATOM     11  O   UNL     1       7.510  -3.381  23.522  0.00  0.00    -0.425 OA
BRANCH  11  13
ATOM     12  C   UNL     1       7.110  -5.274  22.169  0.00  0.00    +0.136 C 
ATOM     13  C   UNL     1       7.871  -4.715  23.332  0.00  0.00    +0.309 C 
ATOM     14  O   UNL     1       8.656  -5.350  24.023  0.00  0.00    -0.251 OA
ENDBRANCH  11  13
ENDBRANCH   1  11
TORSDOF 4
ENDMDL
MODEL 5
REMARK VINA RESULT:      -4.6      2.749      4.165
REMARK  Name = 
REMARK  5 active torsions:
REMARK  status: ('A' for Active; 'I' for Inactive)
REMARK    1  A    between atoms: C_1  and  C_2
REMARK    2  A    between atoms: C_2  and  O_4
REMARK    3  A    between atoms: O_4  and  C_5
REMARK    4  A    between atoms: C_10  and  C_11
REMARK    5  A    between atoms: C_11  and  O_12
REMARK                            x       y       z     vdW  Elec       q    Type
REMARK                         _______ _______ _______ _____ _____    ______ ____
ROOT
ATOM      1  C   UNL     1       8.760   0.062  24.017  0.00  0.00    +0.146 A 
ATOM      2  C   UNL     1       8.679  -1.276  23.600  0.00  0.00    +0.101 A 
ATOM      3  C   UNL     1       7.420  -1.898  23.564  0.00  0.00    +0.018 A 
ATOM      4  C   UNL     1       6.269  -1.201  23.939  0.00  0.00    +0.001 A 
ATOM      5  C   UNL     1       6.359   0.129  24.340  0.00  0.00    +0.004 A 
ATOM      6  C   UNL     1       7.598   0.765  24.368  0.00  0.00    +0.047 A 
ENDROOT
BRANCH   2   7
ATOM      7  C   UNL     1       9.837  -2.085  23.141  0.00  0.00    +0.340 C 
ATOM      8  O   UNL     1      10.289  -3.012  23.794  0.00  0.00    -0.245 OA
BRANCH   7   9
ATOM      9  O   UNL     1      10.391  -1.667  21.985  0.00  0.00    -0.477 OA
ATOM     10  H   UNL     1       9.848  -1.844  21.198  0.00  0.00    +0.295 HD
ENDBRANCH   7   9
ENDBRANCH   2   7
BRANCH   1  11
ATOM     11  O   UNL     1       9.986   0.754  23.931  0.00  0.00    -0.425 OA
BRANCH  11  13
ATOM     12  C   UNL     1      10.548   2.990  23.419  0.00  0.00    +0.136 C 
ATOM     13  C   UNL     1      10.155   1.650  22.875  0.00  0.00    +0.309 C 
ATOM     14  O   UNL     1       9.977   1.402  21.689  0.00  0.00    -0.251 OA
ENDBRANCH  11  13
ENDBRANCH   1  11
TORSDOF 4
ENDMDL
MODEL 6
REMARK VINA RESULT:      -4.6      2.146      4.509
REMARK  Name = 
REMARK  5 active torsions:
REMARK  status: ('A' for Active; 'I' for Inactive)
REMARK    1  A    between atoms: C_1  and  C_2
REMARK    2  A    between atoms: C_2  and  O_4
REMARK    3  A    between atoms: O_4  and  C_5
REMARK    4  A    between atoms: C_10  and  C_11
REMARK    5  A    between atoms: C_11  and  O_12
REMARK                            x       y       z     vdW  Elec       q    Type
REMARK                         _______ _______ _______ _____ _____    ______ ____
ROOT
ATOM      1  C   UNL     1       8.143  -3.983  23.802  0.00  0.00    +0.146 A 
ATOM      2  C   UNL     1       7.599  -3.364  22.666  0.00  0.00    +0.101 A 
ATOM      3  C   UNL     1       8.203  -2.192  22.180  0.00  0.00    +0.018 A 
ATOM      4  C   UNL     1       9.322  -1.650  22.816  0.00  0.00    +0.001 A 
ATOM      5  C   UNL     1       9.860  -2.278  23.937  0.00  0.00    +0.004 A 
ATOM      6  C   UNL     1       9.281  -3.448  24.423  0.00  0.00    +0.047 A 
ENDROOT
BRANCH   2   7
ATOM      7  C   UNL     1       6.442  -3.887  21.896  0.00  0.00    +0.340 C 
ATOM      8  O   UNL     1       5.436  -3.226  21.693  0.00  0.00    -0.245 OA
BRANCH   7   9
ATOM      9  O   UNL     1       6.563  -5.172  21.504  0.00  0.00    -0.477 OA
ATOM     10  H   UNL     1       5.940  -5.780  21.939  0.00  0.00    +0.295 HD
ENDBRANCH   7   9
ENDBRANCH   2   7
BRANCH   1  11
ATOM     11  O   UNL     1       7.646  -5.232  24.230  0.00  0.00    -0.425 OA
BRANCH  11  13
ATOM     12  C   UNL     1       5.747  -4.833  25.577  0.00  0.00    +0.136 C 
ATOM     13  C   UNL     1       7.161  -5.327  25.535  0.00  0.00    +0.309 C 
ATOM     14  O   UNL     1       7.793  -5.717  26.508  0.00  0.00    -0.251 OA
ENDBRANCH  11  13
ENDBRANCH   1  11
TORSDOF 4
ENDMDL
MODEL 7
REMARK VINA RESULT:      -4.6      3.476      5.647
REMARK  Name = 
REMARK  5 active torsions:
REMARK  status: ('A' for Active; 'I' for Inactive)
REMARK    1  A    between atoms: C_1  and  C_2
REMARK    2  A    between atoms: C_2  and  O_4
REMARK    3  A    between atoms: O_4  and  C_5
REMARK    4  A    between atoms: C_10  and  C_11
REMARK    5  A    between atoms: C_11  and  O_12
REMARK                            x       y       z     vdW  Elec       q    Type
REMARK                         _______ _______ _______ _____ _____    ______ ____
ROOT
ATOM      1  C   UNL     1       9.674   0.193  24.082  0.00  0.00    +0.146 A 
ATOM      2  C   UNL     1       9.562   0.010  22.695  0.00  0.00    +0.101 A 
ATOM      3  C   UNL     1       9.716   1.124  21.852  0.00  0.00    +0.018 A 
ATOM      4  C   UNL     1       9.972   2.390  22.383  0.00  0.00    +0.001 A 
ATOM      5  C   UNL     1      10.092   2.558  23.760  0.00  0.00    +0.004 A 
ATOM      6  C   UNL     1       9.956   1.462  24.609  0.00  0.00    +0.047 A 
ENDROOT
BRANCH   2   7
ATOM      7  C   UNL     1       9.337  -1.300  22.035  0.00  0.00    +0.340 C 
ATOM      8  O   UNL     1       8.246  -1.847  22.018  0.00  0.00    -0.245 OA
BRANCH   7   9
ATOM      9  O   UNL     1      10.446  -1.869  21.521  0.00  0.00    -0.477 OA
ATOM     10  H   UNL     1      10.292  -2.735  21.106  0.00  0.00    +0.295 HD
ENDBRANCH   7   9
ENDBRANCH   2   7
BRANCH   1  11
ATOM     11  O   UNL     1       9.664  -0.925  24.943  0.00  0.00    -0.425 OA
BRANCH  11  13
ATOM     12  C   UNL     1       7.357  -1.101  25.415  0.00  0.00    +0.136 C 
ATOM     13  C   UNL     1       8.734  -0.937  25.983  0.00  0.00    +0.309 C 
ATOM     14  O   UNL     1       8.987  -0.798  27.172  0.00  0.00    -0.251 OA
ENDBRANCH  11  13
ENDBRANCH   1  11
TORSDOF 4
ENDMDL
MODEL 8
REMARK VINA RESULT:      -4.6      2.662      3.699
REMARK  Name = 
REMARK  5 active torsions:
REMARK  status: ('A' for Active; 'I' for Inactive)
REMARK    1  A    between atoms: C_1  and  C_2
REMARK    2  A    between atoms: C_2  and  O_4
REMARK    3  A    between atoms: O_4  and  C_5
REMARK    4  A    between atoms: C_10  and  C_11
REMARK    5  A    between atoms: C_11  and  O_12
REMARK                            x       y       z     vdW  Elec       q    Type
REMARK                         _______ _______ _______ _____ _____    ______ ____
ROOT
ATOM      1  C   UNL     1       8.448  -2.894  22.903  0.00  0.00    +0.146 A 
ATOM      2  C   UNL     1       7.302  -3.702  22.968  0.00  0.00    +0.101 A 
ATOM      3  C   UNL     1       7.189  -4.632  24.015  0.00  0.00    +0.018 A 
ATOM      4  C   UNL     1       8.198  -4.753  24.973  0.00  0.00    +0.001 A 
ATOM      5  C   UNL     1       9.326  -3.939  24.905  0.00  0.00    +0.004 A 
ATOM      6  C   UNL     1       9.447  -3.003  23.881  0.00  0.00    +0.047 A 
ENDROOT
BRANCH   2   7
ATOM      7  C   UNL     1       6.158  -3.616  22.025  0.00  0.00    +0.340 C 
ATOM      8  O   UNL     1       5.866  -4.523  21.263  0.00  0.00    -0.245 OA
BRANCH   7   9
ATOM      9  O   UNL     1       5.514  -2.430  22.029  0.00  0.00    -0.477 OA
ATOM     10  H   UNL     1       5.196  -2.149  21.154  0.00  0.00    +0.295 HD
ENDBRANCH   7   9
ENDBRANCH   2   7
BRANCH   1  11
ATOM     11  O   UNL     1       8.526  -1.859  21.948  0.00  0.00    -0.425 OA
BRANCH  11  13
ATOM     12  C   UNL     1       9.588   0.250  21.983  0.00  0.00    +0.136 C 
ATOM     13  C   UNL     1       8.388  -0.546  22.398  0.00  0.00    +0.309 C 
ATOM     14  O   UNL     1       7.457  -0.110  23.061  0.00  0.00    -0.251 OA
ENDBRANCH  11  13
ENDBRANCH   1  11
TORSDOF 4
ENDMDL
MODEL 9
REMARK VINA RESULT:      -4.6      2.332      4.473
REMARK  Name = 
REMARK  5 active torsions:
REMARK  status: ('A' for Active; 'I' for Inactive)
REMARK    1  A    between atoms: C_1  and  C_2
REMARK    2  A    between atoms: C_2  and  O_4
REMARK    3  A    between atoms: O_4  and  C_5
REMARK    4  A    between atoms: C_10  and  C_11
REMARK    5  A    between atoms: C_11  and  O_12
REMARK                            x       y       z     vdW  Elec       q    Type
REMARK                         _______ _______ _______ _____ _____    ______ ____
ROOT
ATOM      1  C   UNL     1       7.843  -3.773  23.361  0.00  0.00    +0.146 A 
ATOM      2  C   UNL     1       8.439  -2.526  23.606  0.00  0.00    +0.101 A 
ATOM      3  C   UNL     1       8.808  -2.200  24.921  0.00  0.00    +0.018 A 
ATOM      4  C   UNL     1       8.585  -3.098  25.968  0.00  0.00    +0.001 A 
ATOM      5  C   UNL     1       8.003  -4.337  25.712  0.00  0.00    +0.004 A 
ATOM      6  C   UNL     1       7.644  -4.681  24.411  0.00  0.00    +0.047 A 
ENDROOT
BRANCH   2   7
ATOM      7  C   UNL     1       8.757  -1.526  22.556  0.00  0.00    +0.340 C 
ATOM      8  O   UNL     1       8.178  -0.455  22.473  0.00  0.00    -0.245 OA
BRANCH   7   9
ATOM      9  O   UNL     1       9.684  -1.926  21.660  0.00  0.00    -0.477 OA
ATOM     10  H   UNL     1       9.315  -2.196  20.802  0.00  0.00    +0.295 HD
ENDBRANCH   7   9
ENDBRANCH   2   7
BRANCH   1  11
ATOM     11  O   UNL     1       7.590  -4.185  22.035  0.00  0.00    -0.425 OA
BRANCH  11  13
ATOM     12  C   UNL     1       6.111  -5.784  21.123  0.00  0.00    +0.136 C 
ATOM     13  C   UNL     1       6.262  -4.394  21.661  0.00  0.00    +0.309 C 
ATOM     14  O   UNL     1       5.362  -3.567  21.723  0.00  0.00    -0.251 OA
ENDBRANCH  11  13
ENDBRANCH   1  11
TORSDOF 4
ENDMDL
