MODEL 1
REMARK VINA RESULT:      -4.8      0.000      0.000
REMARK  Name = 
REMARK  14 active torsions:
REMARK  status: ('A' for Active; 'I' for Inactive)
REMARK    1  A    between atoms: O_1  and  C_2
REMARK    2  A    between atoms: C_2  and  C_3
REMARK    3  A    between atoms: C_3  and  O_5
REMARK    4  A    between atoms: C_3  and  C_6
REMARK    5  A    between atoms: C_6  and  O_8
REMARK    6  A    between atoms: C_6  and  C_9
REMARK    7  A    between atoms: C_9  and  O_11
REMARK    8  A    between atoms: C_9  and  C_12
REMARK    9  A    between atoms: C_12  and  O_14
REMARK   10  A    between atoms: C_12  and  C_15
REMARK   11  A    between atoms: C_15  and  O_16
REMARK   12  A    between atoms: O_16  and  P_17
REMARK   13  A    between atoms: P_17  and  O_18
REMARK   14  A    between atoms: P_17  and  O_19
REMARK                            x       y       z     vdW  Elec       q    Type
REMARK                         _______ _______ _______ _____ _____    ______ ____
ROOT
ATOM      1  C   UNL     1       9.438  -2.004  23.289  0.00  0.00    +0.176 C 
ENDROOT
BRANCH   1   2
ATOM      2  O   UNL     1       9.038  -1.525  24.600  0.00  0.00    -0.386 OA
ATOM      3  H   UNL     1       9.049  -0.552  24.542  0.00  0.00    +0.210 HD
ENDBRANCH   1   2
BRANCH   1   4
ATOM      4  C   UNL     1      10.007  -0.811  22.490  0.00  0.00    +0.176 C 
BRANCH   4   5
ATOM      5  O   UNL     1       9.506  -0.883  21.141  0.00  0.00    -0.386 OA
ATOM      6  H   UNL     1      10.289  -0.963  20.568  0.00  0.00    +0.210 HD
ENDBRANCH   4   5
BRANCH   4   7
ATOM      7  C   UNL     1       9.642   0.554  23.096  0.00  0.00    +0.171 C 
BRANCH   7   8
ATOM      8  O   UNL     1       8.209   0.715  23.145  0.00  0.00    -0.387 OA
ATOM      9  H   UNL     1       7.887  -0.091  23.596  0.00  0.00    +0.210 HD
ENDBRANCH   7   8
BRANCH   7  10
ATOM     10  C   UNL     1      10.237   1.730  22.311  0.00  0.00    +0.189 C 
BRANCH  10  11
ATOM     11  O   UNL     1       9.314   2.087  21.273  0.00  0.00    -0.392 OA
ATOM     12  H   UNL     1       9.577   1.583  20.482  0.00  0.00    +0.210 HD
ENDBRANCH  10  11
ENDBRANCH   7  10
ENDBRANCH   4   7
ENDBRANCH   1   4
BRANCH   1  13
ATOM     13  C   UNL     1       8.247  -2.696  22.601  0.00  0.00    +0.172 C 
BRANCH  13  14
ATOM     14  O   UNL     1       7.091  -1.841  22.625  0.00  0.00    -0.387 OA
ATOM     15  H   UNL     1       6.351  -2.417  22.902  0.00  0.00    +0.210 HD
ENDBRANCH  13  14
BRANCH  13  16
ATOM     16  C   UNL     1       7.891  -4.037  23.258  0.00  0.00    +0.206 C 
BRANCH  16  17
ATOM     17  O   UNL     1       8.914  -4.357  24.199  0.00  0.00    -0.284 OA
BRANCH  17  18
ATOM     18  P   UNL     1       8.366  -5.120  25.652  0.00  0.00    +0.472 P 
ATOM     19  O   UNL     1       7.875  -5.804  26.952  0.00  0.00    -0.228 OA
BRANCH  18  20
ATOM     20  O   UNL     1       8.887  -3.780  26.431  0.00  0.00    -0.303 OA
ATOM     21  H   UNL     1       9.552  -4.024  27.102  0.00  0.00    +0.222 HD
ENDBRANCH  18  20
BRANCH  18  22
ATOM     22  O   UNL     1       9.779  -5.934  25.682  0.00  0.00    -0.303 OA
ATOM     23  H   UNL     1       9.557  -6.842  25.965  0.00  0.00    +0.222 HD
ENDBRANCH  18  22
ENDBRANCH  17  18
ENDBRANCH  16  17
ENDBRANCH  13  16
ENDBRANCH   1  13
TORSDOF 14
ENDMDL
MODEL 2
REMARK VINA RESULT:      -4.7      2.628      5.967
REMARK  Name = 
REMARK  14 active torsions:
REMARK  status: ('A' for Active; 'I' for Inactive)
REMARK    1  A    between atoms: O_1  and  C_2
REMARK    2  A    between atoms: C_2  and  C_3
REMARK    3  A    between atoms: C_3  and  O_5
REMARK    4  A    between atoms: C_3  and  C_6
REMARK    5  A    between atoms: C_6  and  O_8
REMARK    6  A    between atoms: C_6  and  C_9
REMARK    7  A    between atoms: C_9  and  O_11
REMARK    8  A    between atoms: C_9  and  C_12
REMARK    9  A    between atoms: C_12  and  O_14
REMARK   10  A    between atoms: C_12  and  C_15
REMARK   11  A    between atoms: C_15  and  O_16
REMARK   12  A    between atoms: O_16  and  P_17
REMARK   13  A    between atoms: P_17  and  O_18
REMARK   14  A    between atoms: P_17  and  O_19
REMARK                            x       y       z     vdW  Elec       q    Type
REMARK                         _______ _______ _______ _____ _____    ______ ____
ROOT
ATOM      1  C   UNL     1       8.551  -1.213  23.363  0.00  0.00    +0.176 C 
ENDROOT
BRANCH   1   2
ATOM      2  O   UNL     1       9.581  -0.916  24.342  0.00  0.00    -0.386 OA
ATOM      3  H   UNL     1       9.720  -1.741  24.841  0.00  0.00    +0.210 HD
ENDBRANCH   1   2
BRANCH   1   4
ATOM      4  C   UNL     1       8.054  -2.656  23.605  0.00  0.00    +0.176 C 
BRANCH   4   5
ATOM      5  O   UNL     1       7.949  -3.323  22.332  0.00  0.00    -0.386 OA
ATOM      6  H   UNL     1       7.607  -4.214  22.524  0.00  0.00    +0.210 HD
ENDBRANCH   4   5
BRANCH   4   7
ATOM      7  C   UNL     1       8.975  -3.467  24.530  0.00  0.00    +0.171 C 
BRANCH   7   8
ATOM      8  O   UNL     1      10.320  -3.487  24.009  0.00  0.00    -0.387 OA
ATOM      9  H   UNL     1      10.229  -3.860  23.109  0.00  0.00    +0.210 HD
ENDBRANCH   7   8
BRANCH   7  10
ATOM     10  C   UNL     1       8.504  -4.915  24.715  0.00  0.00    +0.189 C 
BRANCH  10  11
ATOM     11  O   UNL     1       9.658  -5.764  24.720  0.00  0.00    -0.392 OA
ATOM     12  H   UNL     1       9.778  -6.065  25.639  0.00  0.00    +0.210 HD
ENDBRANCH  10  11
ENDBRANCH   7  10
ENDBRANCH   4   7
ENDBRANCH   1   4
BRANCH   1  13
ATOM     13  C   UNL     1       9.100  -0.980  21.943  0.00  0.00    +0.172 C 
BRANCH  13  14
ATOM     14  O   UNL     1      10.347  -1.674  21.770  0.00  0.00    -0.387 OA
ATOM     15  H   UNL     1      10.627  -1.928  22.671  0.00  0.00    +0.210 HD
ENDBRANCH  13  14
BRANCH  13  16
ATOM     16  C   UNL     1       9.309   0.510  21.635  0.00  0.00    +0.206 C 
BRANCH  16  17
ATOM     17  O   UNL     1       8.813   1.267  22.738  0.00  0.00    -0.284 OA
BRANCH  17  18
ATOM     18  P   UNL     1       9.764   2.645  23.173  0.00  0.00    +0.472 P 
ATOM     19  O   UNL     1      10.614   3.879  23.563  0.00  0.00    -0.228 OA
BRANCH  18  20
ATOM     20  O   UNL     1      10.461   2.501  21.700  0.00  0.00    -0.303 OA
ATOM     21  H   UNL     1      11.347   2.103  21.791  0.00  0.00    +0.222 HD
ENDBRANCH  18  20
BRANCH  18  22
ATOM     22  O   UNL     1      10.759   1.628  23.969  0.00  0.00    -0.303 OA
ATOM     23  H   UNL     1      11.659   1.988  23.850  0.00  0.00    +0.222 HD
ENDBRANCH  18  22
ENDBRANCH  17  18
ENDBRANCH  16  17
ENDBRANCH  13  16
ENDBRANCH   1  13
TORSDOF 14
ENDMDL
MODEL 3
REMARK VINA RESULT:      -4.6      1.514      2.348
REMARK  Name = 
REMARK  14 active torsions:
REMARK  status: ('A' for Active; 'I' for Inactive)
REMARK    1  A    between atoms: O_1  and  C_2
REMARK    2  A    between atoms: C_2  and  C_3
REMARK    3  A    between atoms: C_3  and  O_5
REMARK    4  A    between atoms: C_3  and  C_6
REMARK    5  A    between atoms: C_6  and  O_8
REMARK    6  A    between atoms: C_6  and  C_9
REMARK    7  A    between atoms: C_9  and  O_11
REMARK    8  A    between atoms: C_9  and  C_12
REMARK    9  A    between atoms: C_12  and  O_14
REMARK   10  A    between atoms: C_12  and  C_15
REMARK   11  A    between atoms: C_15  and  O_16
REMARK   12  A    between atoms: O_16  and  P_17
REMARK   13  A    between atoms: P_17  and  O_18
REMARK   14  A    between atoms: P_17  and  O_19
REMARK                            x       y       z     vdW  Elec       q    Type
REMARK                         _______ _______ _______ _____ _____    ______ ____
ROOT
ATOM      1  C   UNL     1       8.895  -0.227  23.637  0.00  0.00    +0.176 C 
ENDROOT
BRANCH   1   2
ATOM      2  O   UNL     1       7.960   0.067  22.566  0.00  0.00    -0.386 OA
ATOM      3  H   UNL     1       8.208   0.948  22.231  0.00  0.00    +0.210 HD
ENDBRANCH   1   2
BRANCH   1   4
ATOM      4  C   UNL     1       9.666   1.068  23.977  0.00  0.00    +0.176 C 
BRANCH   4   5
ATOM      5  O   UNL     1      11.076   0.767  24.000  0.00  0.00    -0.386 OA
ATOM      6  H   UNL     1      11.456   1.326  24.701  0.00  0.00    +0.210 HD
ENDBRANCH   4   5
BRANCH   4   7
ATOM      7  C   UNL     1       9.406   2.208  22.978  0.00  0.00    +0.171 C 
BRANCH   7   8
ATOM      8  O   UNL     1      10.038   1.922  21.713  0.00  0.00    -0.387 OA
ATOM      9  H   UNL     1      10.631   1.167  21.900  0.00  0.00    +0.210 HD
ENDBRANCH   7   8
BRANCH   7  10
ATOM     10  C   UNL     1       9.916   3.564  23.481  0.00  0.00    +0.189 C 
BRANCH  10  11
ATOM     11  O   UNL     1      11.269   3.725  23.039  0.00  0.00    -0.392 OA
ATOM     12  H   UNL     1      11.258   4.421  22.357  0.00  0.00    +0.210 HD
ENDBRANCH  10  11
ENDBRANCH   7  10
ENDBRANCH   4   7
ENDBRANCH   1   4
BRANCH   1  13
ATOM     13  C   UNL     1       9.805  -1.399  23.226  0.00  0.00    +0.172 C 
BRANCH  13  14
ATOM     14  O   UNL     1      10.218  -1.254  21.858  0.00  0.00    -0.387 OA
ATOM     15  H   UNL     1      10.387  -2.164  21.542  0.00  0.00    +0.210 HD
ENDBRANCH  13  14
BRANCH  13  16
ATOM     16  C   UNL     1       9.119  -2.761  23.401  0.00  0.00    +0.206 C 
BRANCH  16  17
ATOM     17  O   UNL     1       9.923  -3.557  24.270  0.00  0.00    -0.284 OA
BRANCH  17  18
ATOM     18  P   UNL     1       9.055  -4.702  25.234  0.00  0.00    +0.472 P 
ATOM     19  O   UNL     1       8.278  -5.726  26.097  0.00  0.00    -0.228 OA
BRANCH  18  20
ATOM     20  O   UNL     1      10.473  -5.505  25.375  0.00  0.00    -0.303 OA
ATOM     21  H   UNL     1      10.518  -6.217  24.710  0.00  0.00    +0.222 HD
ENDBRANCH  18  20
BRANCH  18  22
ATOM     22  O   UNL     1       8.563  -5.402  23.846  0.00  0.00    -0.303 OA
ATOM     23  H   UNL     1       7.806  -5.969  24.088  0.00  0.00    +0.222 HD
ENDBRANCH  18  22
ENDBRANCH  17  18
ENDBRANCH  16  17
ENDBRANCH  13  16
ENDBRANCH   1  13
TORSDOF 14
ENDMDL
MODEL 4
REMARK VINA RESULT:      -4.6      2.936      4.460
REMARK  Name = 
REMARK  14 active torsions:
REMARK  status: ('A' for Active; 'I' for Inactive)
REMARK    1  A    between atoms: O_1  and  C_2
REMARK    2  A    between atoms: C_2  and  C_3
REMARK    3  A    between atoms: C_3  and  O_5
REMARK    4  A    between atoms: C_3  and  C_6
REMARK    5  A    between atoms: C_6  and  O_8
REMARK    6  A    between atoms: C_6  and  C_9
REMARK    7  A    between atoms: C_9  and  O_11
REMARK    8  A    between atoms: C_9  and  C_12
REMARK    9  A    between atoms: C_12  and  O_14
REMARK   10  A    between atoms: C_12  and  C_15
REMARK   11  A    between atoms: C_15  and  O_16
REMARK   12  A    between atoms: O_16  and  P_17
REMARK   13  A    between atoms: P_17  and  O_18
REMARK   14  A    between atoms: P_17  and  O_19
REMARK                            x       y       z     vdW  Elec       q    Type
REMARK                         _______ _______ _______ _____ _____    ______ ____
ROOT
ATOM      1  C   UNL     1       8.525  -4.798  24.605  0.00  0.00    +0.176 C 
ENDROOT
BRANCH   1   2
ATOM      2  O   UNL     1       9.779  -5.505  24.797  0.00  0.00    -0.386 OA
ATOM      3  H   UNL     1       9.711  -6.316  24.260  0.00  0.00    +0.210 HD
ENDBRANCH   1   2
BRANCH   1   4
ATOM      4  C   UNL     1       8.844  -3.313  24.326  0.00  0.00    +0.176 C 
BRANCH   4   5
ATOM      5  O   UNL     1      10.222  -3.210  23.915  0.00  0.00    -0.386 OA
ATOM      6  H   UNL     1      10.588  -2.445  24.394  0.00  0.00    +0.210 HD
ENDBRANCH   4   5
BRANCH   4   7
ATOM      7  C   UNL     1       7.944  -2.692  23.245  0.00  0.00    +0.171 C 
BRANCH   7   8
ATOM      8  O   UNL     1       7.611  -3.675  22.242  0.00  0.00    -0.387 OA
ATOM      9  H   UNL     1       7.157  -4.386  22.737  0.00  0.00    +0.210 HD
ENDBRANCH   7   8
BRANCH   7  10
ATOM     10  C   UNL     1       8.595  -1.490  22.550  0.00  0.00    +0.189 C 
BRANCH  10  11
ATOM     11  O   UNL     1       9.522  -1.984  21.576  0.00  0.00    -0.392 OA
ATOM     12  H   UNL     1      10.346  -2.189  22.055  0.00  0.00    +0.210 HD
ENDBRANCH  10  11
ENDBRANCH   7  10
ENDBRANCH   4   7
ENDBRANCH   1   4
BRANCH   1  13
ATOM     13  C   UNL     1       7.613  -5.015  25.826  0.00  0.00    +0.172 C 
BRANCH  13  14
ATOM     14  O   UNL     1       8.210  -5.954  26.735  0.00  0.00    -0.387 OA
ATOM     15  H   UNL     1       8.657  -5.408  27.412  0.00  0.00    +0.210 HD
ENDBRANCH  13  14
BRANCH  13  16
ATOM     16  C   UNL     1       6.217  -5.518  25.431  0.00  0.00    +0.206 C 
BRANCH  16  17
ATOM     17  O   UNL     1       6.170  -5.631  24.010  0.00  0.00    -0.284 OA
BRANCH  17  18
ATOM     18  P   UNL     1       4.581  -5.720  23.330  0.00  0.00    +0.472 P 
ATOM     19  O   UNL     1       3.160  -5.800  22.721  0.00  0.00    -0.228 OA
BRANCH  18  20
ATOM     20  O   UNL     1       4.612  -7.307  23.726  0.00  0.00    -0.303 OA
ATOM     21  H   UNL     1       4.337  -7.845  22.960  0.00  0.00    +0.222 HD
ENDBRANCH  18  20
BRANCH  18  22
ATOM     22  O   UNL     1       5.286  -5.863  21.866  0.00  0.00    -0.303 OA
ATOM     23  H   UNL     1       5.661  -4.985  21.664  0.00  0.00    +0.222 HD
ENDBRANCH  18  22
ENDBRANCH  17  18
ENDBRANCH  16  17
ENDBRANCH  13  16
ENDBRANCH   1  13
TORSDOF 14
ENDMDL
MODEL 5
REMARK VINA RESULT:      -4.5      1.438      2.106
REMARK  Name = 
REMARK  14 active torsions:
REMARK  status: ('A' for Active; 'I' for Inactive)
REMARK    1  A    between atoms: O_1  and  C_2
REMARK    2  A    between atoms: C_2  and  C_3
REMARK    3  A    between atoms: C_3  and  O_5
REMARK    4  A    between atoms: C_3  and  C_6
REMARK    5  A    between atoms: C_6  and  O_8
REMARK    6  A    between atoms: C_6  and  C_9
REMARK    7  A    between atoms: C_9  and  O_11
REMARK    8  A    between atoms: C_9  and  C_12
REMARK    9  A    between atoms: C_12  and  O_14
REMARK   10  A    between atoms: C_12  and  C_15
REMARK   11  A    between atoms: C_15  and  O_16
REMARK   12  A    between atoms: O_16  and  P_17
REMARK   13  A    between atoms: P_17  and  O_18
REMARK   14  A    between atoms: P_17  and  O_19
REMARK                            x       y       z     vdW  Elec       q    Type
REMARK                         _______ _______ _______ _____ _____    ______ ____
ROOT
ATOM      1  C   UNL     1       8.474  -1.549  23.850  0.00  0.00    +0.176 C 
ENDROOT
BRANCH   1   2
ATOM      2  O   UNL     1       7.740  -2.114  22.733  0.00  0.00    -0.386 OA
ATOM      3  H   UNL     1       8.409  -2.520  22.152  0.00  0.00    +0.210 HD
ENDBRANCH   1   2
BRANCH   1   4
ATOM      4  C   UNL     1       8.836  -0.087  23.505  0.00  0.00    +0.176 C 
BRANCH   4   5
ATOM      5  O   UNL     1      10.210   0.143  23.873  0.00  0.00    -0.386 OA
ATOM      6  H   UNL     1      10.747  -0.243  23.158  0.00  0.00    +0.210 HD
ENDBRANCH   4   5
BRANCH   4   7
ATOM      7  C   UNL     1       8.644   0.248  22.017  0.00  0.00    +0.171 C 
BRANCH   7   8
ATOM      8  O   UNL     1       9.656  -0.401  21.220  0.00  0.00    -0.387 OA
ATOM      9  H   UNL     1       9.413  -1.349  21.239  0.00  0.00    +0.210 HD
ENDBRANCH   7   8
BRANCH   7  10
ATOM     10  C   UNL     1       8.699   1.756  21.738  0.00  0.00    +0.189 C 
BRANCH  10  11
ATOM     11  O   UNL     1      10.070   2.126  21.546  0.00  0.00    -0.392 OA
ATOM     12  H   UNL     1      10.069   2.903  20.958  0.00  0.00    +0.210 HD
ENDBRANCH  10  11
ENDBRANCH   7  10
ENDBRANCH   4   7
ENDBRANCH   1   4
BRANCH   1  13
ATOM     13  C   UNL     1       9.698  -2.429  24.166  0.00  0.00    +0.172 C 
BRANCH  13  14
ATOM     14  O   UNL     1      10.533  -2.560  23.004  0.00  0.00    -0.387 OA
ATOM     15  H   UNL     1      10.294  -3.423  22.611  0.00  0.00    +0.210 HD
ENDBRANCH  13  14
BRANCH  13  16
ATOM     16  C   UNL     1       9.300  -3.829  24.657  0.00  0.00    +0.206 C 
BRANCH  16  17
ATOM     17  O   UNL     1       8.006  -3.742  25.251  0.00  0.00    -0.284 OA
BRANCH  17  18
ATOM     18  P   UNL     1       7.723  -4.832  26.564  0.00  0.00    +0.472 P 
ATOM     19  O   UNL     1       7.469  -5.807  27.739  0.00  0.00    -0.228 OA
BRANCH  18  20
ATOM     20  O   UNL     1       9.027  -5.659  26.024  0.00  0.00    -0.303 OA
ATOM     21  H   UNL     1       8.851  -6.618  26.064  0.00  0.00    +0.222 HD
ENDBRANCH  18  20
BRANCH  18  22
ATOM     22  O   UNL     1       6.612  -5.571  25.627  0.00  0.00    -0.303 OA
ATOM     23  H   UNL     1       5.940  -4.892  25.425  0.00  0.00    +0.222 HD
ENDBRANCH  18  22
ENDBRANCH  17  18
ENDBRANCH  16  17
ENDBRANCH  13  16
ENDBRANCH   1  13
TORSDOF 14
ENDMDL
MODEL 6
REMARK VINA RESULT:      -4.5      2.170      2.906
REMARK  Name = 
REMARK  14 active torsions:
REMARK  status: ('A' for Active; 'I' for Inactive)
REMARK    1  A    between atoms: O_1  and  C_2
REMARK    2  A    between atoms: C_2  and  C_3
REMARK    3  A    between atoms: C_3  and  O_5
REMARK    4  A    between atoms: C_3  and  C_6
REMARK    5  A    between atoms: C_6  and  O_8
REMARK    6  A    between atoms: C_6  and  C_9
REMARK    7  A    between atoms: C_9  and  O_11
REMARK    8  A    between atoms: C_9  and  C_12
REMARK    9  A    between atoms: C_12  and  O_14
REMARK   10  A    between atoms: C_12  and  C_15
REMARK   11  A    between atoms: C_15  and  O_16
REMARK   12  A    between atoms: O_16  and  P_17
REMARK   13  A    between atoms: P_17  and  O_18
REMARK   14  A    between atoms: P_17  and  O_19
REMARK                            x       y       z     vdW  Elec       q    Type
REMARK                         _______ _______ _______ _____ _____    ______ ____
ROOT
ATOM      1  C   UNL     1       9.948  -0.801  24.167  0.00  0.00    +0.176 C 
ENDROOT
BRANCH   1   2
ATOM      2  O   UNL     1       8.739  -0.902  24.963  0.00  0.00    -0.386 OA
ATOM      3  H   UNL     1       8.018  -0.573  24.395  0.00  0.00    +0.210 HD
ENDBRANCH   1   2
BRANCH   1   4
ATOM      4  C   UNL     1       9.847   0.467  23.290  0.00  0.00    +0.176 C 
BRANCH   4   5
ATOM      5  O   UNL     1       8.508   0.553  22.764  0.00  0.00    -0.386 OA
ATOM      6  H   UNL     1       8.104  -0.320  22.917  0.00  0.00    +0.210 HD
ENDBRANCH   4   5
BRANCH   4   7
ATOM      7  C   UNL     1      10.178   1.760  24.053  0.00  0.00    +0.171 C 
BRANCH   7   8
ATOM      8  O   UNL     1       9.223   1.977  25.112  0.00  0.00    -0.387 OA
ATOM      9  H   UNL     1       9.204   1.130  25.603  0.00  0.00    +0.210 HD
ENDBRANCH   7   8
BRANCH   7  10
ATOM     10  C   UNL     1      10.188   2.997  23.146  0.00  0.00    +0.189 C 
BRANCH  10  11
ATOM     11  O   UNL     1      10.413   2.563  21.799  0.00  0.00    -0.392 OA
ATOM     12  H   UNL     1      11.183   3.063  21.471  0.00  0.00    +0.210 HD
ENDBRANCH  10  11
ENDBRANCH   7  10
ENDBRANCH   4   7
ENDBRANCH   1   4
BRANCH   1  13
ATOM     13  C   UNL     1      10.149  -2.096  23.358  0.00  0.00    +0.172 C 
BRANCH  13  14
ATOM     14  O   UNL     1      10.410  -1.789  21.979  0.00  0.00    -0.387 OA
ATOM     15  H   UNL     1       9.732  -1.129  21.730  0.00  0.00    +0.210 HD
ENDBRANCH  13  14
BRANCH  13  16
ATOM     16  C   UNL     1       8.935  -3.032  23.443  0.00  0.00    +0.206 C 
BRANCH  16  17
ATOM     17  O   UNL     1       7.935  -2.546  22.549  0.00  0.00    -0.284 OA
BRANCH  17  18
ATOM     18  P   UNL     1       6.303  -2.856  23.031  0.00  0.00    +0.472 P 
ATOM     19  O   UNL     1       4.842  -3.134  23.462  0.00  0.00    -0.228 OA
BRANCH  18  20
ATOM     20  O   UNL     1       6.170  -1.241  23.255  0.00  0.00    -0.303 OA
ATOM     21  H   UNL     1       5.987  -0.802  22.403  0.00  0.00    +0.222 HD
ENDBRANCH  18  20
BRANCH  18  22
ATOM     22  O   UNL     1       6.877  -3.219  24.514  0.00  0.00    -0.303 OA
ATOM     23  H   UNL     1       7.503  -2.505  24.739  0.00  0.00    +0.222 HD
ENDBRANCH  18  22
ENDBRANCH  17  18
ENDBRANCH  16  17
ENDBRANCH  13  16
ENDBRANCH   1  13
TORSDOF 14
ENDMDL
MODEL 7
REMARK VINA RESULT:      -4.4      2.156      2.945
REMARK  Name = 
REMARK  14 active torsions:
REMARK  status: ('A' for Active; 'I' for Inactive)
REMARK    1  A    between atoms: O_1  and  C_2
REMARK    2  A    between atoms: C_2  and  C_3
REMARK    3  A    between atoms: C_3  and  O_5
REMARK    4  A    between atoms: C_3  and  C_6
REMARK    5  A    between atoms: C_6  and  O_8
REMARK    6  A    between atoms: C_6  and  C_9
REMARK    7  A    between atoms: C_9  and  O_11
REMARK    8  A    between atoms: C_9  and  C_12
REMARK    9  A    between atoms: C_12  and  O_14
REMARK   10  A    between atoms: C_12  and  C_15
REMARK   11  A    between atoms: C_15  and  O_16
REMARK   12  A    between atoms: O_16  and  P_17
REMARK   13  A    between atoms: P_17  and  O_18
REMARK   14  A    between atoms: P_17  and  O_19
REMARK                            x       y       z     vdW  Elec       q    Type
REMARK                         _______ _______ _______ _____ _____    ______ ____
ROOT
ATOM      1  C   UNL     1       9.500  -1.995  23.316  0.00  0.00    +0.176 C 
ENDROOT
BRANCH   1   2
ATOM      2  O   UNL     1       9.110  -1.509  24.628  0.00  0.00    -0.386 OA
ATOM      3  H   UNL     1       9.875  -1.671  25.209  0.00  0.00    +0.210 HD
ENDBRANCH   1   2
BRANCH   1   4
ATOM      4  C   UNL     1      10.074  -0.810  22.510  0.00  0.00    +0.176 C 
BRANCH   4   5
ATOM      5  O   UNL     1       9.570  -0.886  21.162  0.00  0.00    -0.386 OA
ATOM      6  H   UNL     1       8.643  -0.592  21.206  0.00  0.00    +0.210 HD
ENDBRANCH   4   5
BRANCH   4   7
ATOM      7  C   UNL     1       9.718   0.560  23.110  0.00  0.00    +0.171 C 
BRANCH   7   8
ATOM      8  O   UNL     1       8.288   0.694  23.243  0.00  0.00    -0.387 OA
ATOM      9  H   UNL     1       8.131   1.660  23.244  0.00  0.00    +0.210 HD
ENDBRANCH   7   8
BRANCH   7  10
ATOM     10  C   UNL     1      10.240   1.730  22.266  0.00  0.00    +0.189 C 
BRANCH  10  11
ATOM     11  O   UNL     1       9.255   2.039  21.271  0.00  0.00    -0.392 OA
ATOM     12  H   UNL     1       9.160   1.242  20.718  0.00  0.00    +0.210 HD
ENDBRANCH  10  11
ENDBRANCH   7  10
ENDBRANCH   4   7
ENDBRANCH   1   4
BRANCH   1  13
ATOM     13  C   UNL     1       8.299  -2.680  22.637  0.00  0.00    +0.172 C 
BRANCH  13  14
ATOM     14  O   UNL     1       7.169  -1.792  22.608  0.00  0.00    -0.387 OA
ATOM     15  H   UNL     1       7.348  -1.172  21.873  0.00  0.00    +0.210 HD
ENDBRANCH  13  14
BRANCH  13  16
ATOM     16  C   UNL     1       7.894  -3.983  23.342  0.00  0.00    +0.206 C 
BRANCH  16  17
ATOM     17  O   UNL     1       7.305  -4.848  22.373  0.00  0.00    -0.284 OA
BRANCH  17  18
ATOM     18  P   UNL     1       5.598  -5.077  22.529  0.00  0.00    +0.472 P 
ATOM     19  O   UNL     1       4.069  -5.281  22.668  0.00  0.00    -0.228 OA
BRANCH  18  20
ATOM     20  O   UNL     1       5.779  -6.350  21.518  0.00  0.00    -0.303 OA
ATOM     21  H   UNL     1       5.407  -7.154  21.927  0.00  0.00    +0.222 HD
ENDBRANCH  18  20
BRANCH  18  22
ATOM     22  O   UNL     1       5.404  -3.934  21.382  0.00  0.00    -0.303 OA
ATOM     23  H   UNL     1       5.680  -3.093  21.795  0.00  0.00    +0.222 HD
ENDBRANCH  18  22
ENDBRANCH  17  18
ENDBRANCH  16  17
ENDBRANCH  13  16
ENDBRANCH   1  13
TORSDOF 14
ENDMDL
MODEL 8
REMARK VINA RESULT:      -4.4      1.673      2.638
REMARK  Name = 
REMARK  14 active torsions:
REMARK  status: ('A' for Active; 'I' for Inactive)
REMARK    1  A    between atoms: O_1  and  C_2
REMARK    2  A    between atoms: C_2  and  C_3
REMARK    3  A    between atoms: C_3  and  O_5
REMARK    4  A    between atoms: C_3  and  C_6
REMARK    5  A    between atoms: C_6  and  O_8
REMARK    6  A    between atoms: C_6  and  C_9
REMARK    7  A    between atoms: C_9  and  O_11
REMARK    8  A    between atoms: C_9  and  C_12
REMARK    9  A    between atoms: C_12  and  O_14
REMARK   10  A    between atoms: C_12  and  C_15
REMARK   11  A    between atoms: C_15  and  O_16
REMARK   12  A    between atoms: O_16  and  P_17
REMARK   13  A    between atoms: P_17  and  O_18
REMARK   14  A    between atoms: P_17  and  O_19
REMARK                            x       y       z     vdW  Elec       q    Type
REMARK                         _______ _______ _______ _____ _____    ______ ____
ROOT
ATOM      1  C   UNL     1       9.366   0.379  22.384  0.00  0.00    +0.176 C 
ENDROOT
BRANCH   1   2
ATOM      2  O   UNL     1       9.140   0.464  20.952  0.00  0.00    -0.386 OA
ATOM      3  H   UNL     1       9.992   0.733  20.564  0.00  0.00    +0.210 HD
ENDBRANCH   1   2
BRANCH   1   4
ATOM      4  C   UNL     1      10.160   1.630  22.824  0.00  0.00    +0.176 C 
BRANCH   4   5
ATOM      5  O   UNL     1      10.432   2.432  21.659  0.00  0.00    -0.386 OA
ATOM      6  H   UNL     1      10.036   3.304  21.837  0.00  0.00    +0.210 HD
ENDBRANCH   4   5
BRANCH   4   7
ATOM      7  C   UNL     1       9.418   2.481  23.867  0.00  0.00    +0.171 C 
BRANCH   7   8
ATOM      8  O   UNL     1       9.274   1.751  25.103  0.00  0.00    -0.387 OA
ATOM      9  H   UNL     1       8.485   2.142  25.529  0.00  0.00    +0.210 HD
ENDBRANCH   7   8
BRANCH   7  10
ATOM     10  C   UNL     1       8.025   2.916  23.395  0.00  0.00    +0.189 C 
BRANCH  10  11
ATOM     11  O   UNL     1       8.188   3.872  22.340  0.00  0.00    -0.392 OA
ATOM     12  H   UNL     1       7.688   3.531  21.576  0.00  0.00    +0.210 HD
ENDBRANCH  10  11
ENDBRANCH   7  10
ENDBRANCH   4   7
ENDBRANCH   1   4
BRANCH   1  13
ATOM     13  C   UNL     1      10.069  -0.949  22.722  0.00  0.00    +0.172 C 
BRANCH  13  14
ATOM     14  O   UNL     1      10.186  -1.766  21.545  0.00  0.00    -0.387 OA
ATOM     15  H   UNL     1      10.889  -2.414  21.750  0.00  0.00    +0.210 HD
ENDBRANCH  13  14
BRANCH  13  16
ATOM     16  C   UNL     1       9.330  -1.741  23.810  0.00  0.00    +0.206 C 
BRANCH  16  17
ATOM     17  O   UNL     1       9.928  -3.032  23.905  0.00  0.00    -0.284 OA
BRANCH  17  18
ATOM     18  P   UNL     1       9.084  -4.163  24.906  0.00  0.00    +0.472 P 
ATOM     19  O   UNL     1       8.328  -5.175  25.801  0.00  0.00    -0.228 OA
BRANCH  18  20
ATOM     20  O   UNL     1      10.451  -5.060  24.870  0.00  0.00    -0.303 OA
ATOM     21  H   UNL     1      11.231  -4.479  24.946  0.00  0.00    +0.222 HD
ENDBRANCH  18  20
BRANCH  18  22
ATOM     22  O   UNL     1       8.411  -4.765  23.547  0.00  0.00    -0.303 OA
ATOM     23  H   UNL     1       8.551  -5.731  23.587  0.00  0.00    +0.222 HD
ENDBRANCH  18  22
ENDBRANCH  17  18
ENDBRANCH  16  17
ENDBRANCH  13  16
ENDBRANCH   1  13
TORSDOF 14
ENDMDL
MODEL 9
REMARK VINA RESULT:      -4.4      2.253      6.030
REMARK  Name = 
REMARK  14 active torsions:
REMARK  status: ('A' for Active; 'I' for Inactive)
REMARK    1  A    between atoms: O_1  and  C_2
REMARK    2  A    between atoms: C_2  and  C_3
REMARK    3  A    between atoms: C_3  and  O_5
REMARK    4  A    between atoms: C_3  and  C_6
REMARK    5  A    between atoms: C_6  and  O_8
REMARK    6  A    between atoms: C_6  and  C_9
REMARK    7  A    between atoms: C_9  and  O_11
REMARK    8  A    between atoms: C_9  and  C_12
REMARK    9  A    between atoms: C_12  and  O_14
REMARK   10  A    between atoms: C_12  and  C_15
REMARK   11  A    between atoms: C_15  and  O_16
REMARK   12  A    between atoms: O_16  and  P_17
REMARK   13  A    between atoms: P_17  and  O_18
REMARK   14  A    between atoms: P_17  and  O_19
REMARK                            x       y       z     vdW  Elec       q    Type
REMARK                         _______ _______ _______ _____ _____    ______ ____
ROOT
ATOM      1  C   UNL     1       8.476  -2.842  23.346  0.00  0.00    +0.176 C 
ENDROOT
BRANCH   1   2
ATOM      2  O   UNL     1       7.475  -1.910  23.833  0.00  0.00    -0.386 OA
ATOM      3  H   UNL     1       6.708  -2.453  24.089  0.00  0.00    +0.210 HD
ENDBRANCH   1   2
BRANCH   1   4
ATOM      4  C   UNL     1       8.409  -4.120  24.211  0.00  0.00    +0.176 C 
BRANCH   4   5
ATOM      5  O   UNL     1       9.753  -4.510  24.556  0.00  0.00    -0.386 OA
ATOM      6  H   UNL     1      10.226  -3.684  24.762  0.00  0.00    +0.210 HD
ENDBRANCH   4   5
BRANCH   4   7
ATOM      7  C   UNL     1       7.586  -3.940  25.497  0.00  0.00    +0.171 C 
BRANCH   7   8
ATOM      8  O   UNL     1       8.325  -3.163  26.462  0.00  0.00    -0.387 OA
ATOM      9  H   UNL     1       7.868  -3.329  27.312  0.00  0.00    +0.210 HD
ENDBRANCH   7   8
BRANCH   7  10
ATOM     10  C   UNL     1       7.196  -5.275  26.143  0.00  0.00    +0.189 C 
BRANCH  10  11
ATOM     11  O   UNL     1       8.333  -5.775  26.859  0.00  0.00    -0.392 OA
ATOM     12  H   UNL     1       8.044  -5.910  27.780  0.00  0.00    +0.210 HD
ENDBRANCH  10  11
ENDBRANCH   7  10
ENDBRANCH   4   7
ENDBRANCH   1   4
BRANCH   1  13
ATOM     13  C   UNL     1       9.860  -2.167  23.348  0.00  0.00    +0.172 C 
BRANCH  13  14
ATOM     14  O   UNL     1       9.981  -1.278  24.470  0.00  0.00    -0.387 OA
ATOM     15  H   UNL     1       9.136  -1.360  24.956  0.00  0.00    +0.210 HD
ENDBRANCH  13  14
BRANCH  13  16
ATOM     16  C   UNL     1      10.129  -1.382  22.056  0.00  0.00    +0.206 C 
BRANCH  16  17
ATOM     17  O   UNL     1      10.222   0.002  22.387  0.00  0.00    -0.284 OA
BRANCH  17  18
ATOM     18  P   UNL     1       8.919   0.986  21.816  0.00  0.00    +0.472 P 
ATOM     19  O   UNL     1       7.752   1.867  21.306  0.00  0.00    -0.228 OA
BRANCH  18  20
ATOM     20  O   UNL     1       9.997   2.216  21.782  0.00  0.00    -0.303 OA
ATOM     21  H   UNL     1      10.904   1.860  21.745  0.00  0.00    +0.222 HD
ENDBRANCH  18  20
BRANCH  18  22
ATOM     22  O   UNL     1       8.458   1.165  23.370  0.00  0.00    -0.303 OA
ATOM     23  H   UNL     1       7.502   0.966  23.389  0.00  0.00    +0.222 HD
ENDBRANCH  18  22
ENDBRANCH  17  18
ENDBRANCH  16  17
ENDBRANCH  13  16
ENDBRANCH   1  13
TORSDOF 14
ENDMDL
