MODEL 1
REMARK VINA RESULT:      -4.9      0.000      0.000
REMARK  Name = 
REMARK  9 active torsions:
REMARK  status: ('A' for Active; 'I' for Inactive)
REMARK    1  A    between atoms: C_1  and  C_2
REMARK    2  A    between atoms: C_2  and  C_3
REMARK    3  A    between atoms: C_3  and  C_4
REMARK    4  A    between atoms: C_4  and  N_5
REMARK    5  A    between atoms: C_7  and  O_9
REMARK    6  A    between atoms: C_10  and  O_12
REMARK    7  A    between atoms: C_13  and  O_15
REMARK    8  A    between atoms: C_16  and  C_18
REMARK    9  A    between atoms: C_18  and  O_19
REMARK                            x       y       z     vdW  Elec       q    Type
REMARK                         _______ _______ _______ _____ _____    ______ ____
ROOT
ATOM      1  N   UNL     1       8.561  -4.703  23.879  0.00  0.00    -0.292 NA
ATOM      2  C   UNL     1       7.315  -5.288  23.300  0.00  0.00    +0.113 C 
ATOM      3  C   UNL     1       6.092  -5.124  24.232  0.00  0.00    +0.165 C 
ATOM      4  C   UNL     1       6.380  -5.641  25.645  0.00  0.00    +0.174 C 
ATOM      5  C   UNL     1       7.698  -5.099  26.207  0.00  0.00    +0.159 C 
ATOM      6  C   UNL     1       8.829  -5.321  25.186  0.00  0.00    +0.118 C 
ENDROOT
BRANCH   3   7
ATOM      7  O   UNL     1       4.960  -5.836  23.715  0.00  0.00    -0.388 OA
ATOM      8  H   UNL     1       4.882  -6.632  24.279  0.00  0.00    +0.210 HD
ENDBRANCH   3   7
BRANCH   4   9
ATOM      9  O   UNL     1       5.246  -5.259  26.453  0.00  0.00    -0.387 OA
ATOM     10  H   UNL     1       4.893  -4.427  26.079  0.00  0.00    +0.210 HD
ENDBRANCH   4   9
BRANCH   5  11
ATOM     11  O   UNL     1       7.993  -5.740  27.448  0.00  0.00    -0.388 OA
ATOM     12  H   UNL     1       7.150  -5.977  27.875  0.00  0.00    +0.210 HD
ENDBRANCH   5  11
BRANCH   1  13
ATOM     13  C   UNL     1       8.549  -3.227  23.916  0.00  0.00    +0.085 C 
BRANCH  13  14
ATOM     14  C   UNL     1       9.944  -2.572  23.951  0.00  0.00    +0.015 C 
BRANCH  14  16
ATOM     15  C   UNL     1       8.957  -1.517  21.888  0.00  0.00    +0.004 C 
ATOM     16  C   UNL     1      10.211  -1.699  22.724  0.00  0.00    -0.002 C 
ENDBRANCH  14  16
ENDBRANCH  13  14
ENDBRANCH   1  13
BRANCH   2  17
ATOM     17  C   UNL     1       6.966  -4.810  21.866  0.00  0.00    +0.177 C 
BRANCH  17  18
ATOM     18  O   UNL     1       6.334  -5.832  21.096  0.00  0.00    -0.393 OA
ATOM     19  H   UNL     1       5.792  -6.356  21.710  0.00  0.00    +0.209 HD
ENDBRANCH  17  18
ENDBRANCH   2  17
TORSDOF 8
ENDMDL
MODEL 2
REMARK VINA RESULT:      -4.8      2.458      4.396
REMARK  Name = 
REMARK  9 active torsions:
REMARK  status: ('A' for Active; 'I' for Inactive)
REMARK    1  A    between atoms: C_1  and  C_2
REMARK    2  A    between atoms: C_2  and  C_3
REMARK    3  A    between atoms: C_3  and  C_4
REMARK    4  A    between atoms: C_4  and  N_5
REMARK    5  A    between atoms: C_7  and  O_9
REMARK    6  A    between atoms: C_10  and  O_12
REMARK    7  A    between atoms: C_13  and  O_15
REMARK    8  A    between atoms: C_16  and  C_18
REMARK    9  A    between atoms: C_18  and  O_19
REMARK                            x       y       z     vdW  Elec       q    Type
REMARK                         _______ _______ _______ _____ _____    ______ ____
ROOT
ATOM      1  N   UNL     1       6.433  -3.793  24.688  0.00  0.00    -0.292 NA
ATOM      2  C   UNL     1       7.693  -3.111  24.268  0.00  0.00    +0.113 C 
ATOM      3  C   UNL     1       8.926  -4.040  24.343  0.00  0.00    +0.165 C 
ATOM      4  C   UNL     1       9.052  -4.708  25.716  0.00  0.00    +0.174 C 
ATOM      5  C   UNL     1       7.736  -5.342  26.179  0.00  0.00    +0.159 C 
ATOM      6  C   UNL     1       6.593  -4.318  26.052  0.00  0.00    +0.118 C 
ENDROOT
BRANCH   3   7
ATOM      7  O   UNL     1      10.132  -3.307  24.088  0.00  0.00    -0.388 OA
ATOM      8  H   UNL     1      10.709  -3.930  23.600  0.00  0.00    +0.210 HD
ENDBRANCH   3   7
BRANCH   4   9
ATOM      9  O   UNL     1      10.112  -5.682  25.595  0.00  0.00    -0.387 OA
ATOM     10  H   UNL     1      10.572  -5.504  24.751  0.00  0.00    +0.210 HD
ENDBRANCH   4   9
BRANCH   5  11
ATOM     11  O   UNL     1       7.869  -5.799  27.525  0.00  0.00    -0.388 OA
ATOM     12  H   UNL     1       7.228  -6.519  27.665  0.00  0.00    +0.210 HD
ENDBRANCH   5  11
BRANCH   1  13
ATOM     13  C   UNL     1       5.966  -4.805  23.718  0.00  0.00    +0.085 C 
BRANCH  13  14
ATOM     14  C   UNL     1       4.507  -4.629  23.256  0.00  0.00    +0.015 C 
BRANCH  14  16
ATOM     15  C   UNL     1       4.346  -6.908  24.316  0.00  0.00    +0.004 C 
ATOM     16  C   UNL     1       3.702  -5.926  23.353  0.00  0.00    -0.002 C 
ENDBRANCH  14  16
ENDBRANCH  13  14
ENDBRANCH   1  13
BRANCH   2  17
ATOM     17  C   UNL     1       7.633  -2.408  22.885  0.00  0.00    +0.177 C 
BRANCH  17  18
ATOM     18  O   UNL     1       8.467  -1.251  22.834  0.00  0.00    -0.393 OA
ATOM     19  H   UNL     1       9.279  -1.506  22.364  0.00  0.00    +0.209 HD
ENDBRANCH  17  18
ENDBRANCH   2  17
TORSDOF 8
ENDMDL
MODEL 3
REMARK VINA RESULT:      -4.7      3.690      5.048
REMARK  Name = 
REMARK  9 active torsions:
REMARK  status: ('A' for Active; 'I' for Inactive)
REMARK    1  A    between atoms: C_1  and  C_2
REMARK    2  A    between atoms: C_2  and  C_3
REMARK    3  A    between atoms: C_3  and  C_4
REMARK    4  A    between atoms: C_4  and  N_5
REMARK    5  A    between atoms: C_7  and  O_9
REMARK    6  A    between atoms: C_10  and  O_12
REMARK    7  A    between atoms: C_13  and  O_15
REMARK    8  A    between atoms: C_16  and  C_18
REMARK    9  A    between atoms: C_18  and  O_19
REMARK                            x       y       z     vdW  Elec       q    Type
REMARK                         _______ _______ _______ _____ _____    ______ ____
ROOT
ATOM      1  N   UNL     1       8.038  -2.417  24.330  0.00  0.00    -0.292 NA
ATOM      2  C   UNL     1       8.423  -1.381  23.327  0.00  0.00    +0.113 C 
ATOM      3  C   UNL     1       9.639  -0.538  23.778  0.00  0.00    +0.165 C 
ATOM      4  C   UNL     1       9.433   0.051  25.178  0.00  0.00    +0.174 C 
ATOM      5  C   UNL     1       8.964  -0.999  26.189  0.00  0.00    +0.159 C 
ATOM      6  C   UNL     1       7.757  -1.767  25.620  0.00  0.00    +0.118 C 
ENDROOT
BRANCH   3   7
ATOM      7  O   UNL     1       9.874   0.543  22.866  0.00  0.00    -0.388 OA
ATOM      8  H   UNL     1       9.489   1.331  23.302  0.00  0.00    +0.210 HD
ENDBRANCH   3   7
BRANCH   4   9
ATOM      9  O   UNL     1      10.695   0.643  25.555  0.00  0.00    -0.387 OA
ATOM     10  H   UNL     1      11.327   0.460  24.832  0.00  0.00    +0.210 HD
ENDBRANCH   4   9
BRANCH   5  11
ATOM     11  O   UNL     1       8.633  -0.364  27.425  0.00  0.00    -0.388 OA
ATOM     12  H   UNL     1       9.072   0.505  27.446  0.00  0.00    +0.210 HD
ENDBRANCH   5  11
BRANCH   1  13
ATOM     13  C   UNL     1       9.010  -3.524  24.428  0.00  0.00    +0.085 C 
BRANCH  13  14
ATOM     14  C   UNL     1       8.395  -4.933  24.316  0.00  0.00    +0.015 C 
BRANCH  14  16
ATOM     15  C   UNL     1       7.263  -5.757  22.222  0.00  0.00    +0.004 C 
ATOM     16  C   UNL     1       7.106  -4.943  23.494  0.00  0.00    -0.002 C 
ENDBRANCH  14  16
ENDBRANCH  13  14
ENDBRANCH   1  13
BRANCH   2  17
ATOM     17  C   UNL     1       8.642  -1.909  21.884  0.00  0.00    +0.177 C 
BRANCH  17  18
ATOM     18  O   UNL     1       9.995  -1.759  21.456  0.00  0.00    -0.393 OA
ATOM     19  H   UNL     1      10.065  -0.886  21.033  0.00  0.00    +0.209 HD
ENDBRANCH  17  18
ENDBRANCH   2  17
TORSDOF 8
ENDMDL
MODEL 4
REMARK VINA RESULT:      -4.6      5.332      7.002
REMARK  Name = 
REMARK  9 active torsions:
REMARK  status: ('A' for Active; 'I' for Inactive)
REMARK    1  A    between atoms: C_1  and  C_2
REMARK    2  A    between atoms: C_2  and  C_3
REMARK    3  A    between atoms: C_3  and  C_4
REMARK    4  A    between atoms: C_4  and  N_5
REMARK    5  A    between atoms: C_7  and  O_9
REMARK    6  A    between atoms: C_10  and  O_12
REMARK    7  A    between atoms: C_13  and  O_15
REMARK    8  A    between atoms: C_16  and  C_18
REMARK    9  A    between atoms: C_18  and  O_19
REMARK                            x       y       z     vdW  Elec       q    Type
REMARK                         _______ _______ _______ _____ _____    ______ ____
ROOT
ATOM      1  N   UNL     1       9.479   0.978  24.964  0.00  0.00    -0.292 NA
ATOM      2  C   UNL     1       9.911   1.878  23.854  0.00  0.00    +0.113 C 
ATOM      3  C   UNL     1       9.546   1.320  22.459  0.00  0.00    +0.165 C 
ATOM      4  C   UNL     1      10.044  -0.118  22.274  0.00  0.00    +0.174 C 
ATOM      5  C   UNL     1       9.665  -1.022  23.451  0.00  0.00    +0.159 C 
ATOM      6  C   UNL     1      10.077  -0.353  24.775  0.00  0.00    +0.118 C 
ENDROOT
BRANCH   3   7
ATOM      7  O   UNL     1      10.117   2.129  21.422  0.00  0.00    -0.388 OA
ATOM      8  H   UNL     1      11.073   1.918  21.434  0.00  0.00    +0.210 HD
ENDBRANCH   3   7
BRANCH   4   9
ATOM      9  O   UNL     1       9.480  -0.583  21.028  0.00  0.00    -0.387 OA
ATOM     10  H   UNL     1       9.903  -0.069  20.312  0.00  0.00    +0.210 HD
ENDBRANCH   4   9
BRANCH   5  11
ATOM     11  O   UNL     1      10.292  -2.296  23.302  0.00  0.00    -0.388 OA
ATOM     12  H   UNL     1       9.714  -2.968  23.706  0.00  0.00    +0.210 HD
ENDBRANCH   5  11
BRANCH   1  13
ATOM     13  C   UNL     1       8.014   0.944  25.151  0.00  0.00    +0.085 C 
BRANCH  13  14
ATOM     14  C   UNL     1       7.536   0.081  26.335  0.00  0.00    +0.015 C 
BRANCH  14  16
ATOM     15  C   UNL     1       6.059  -0.760  24.477  0.00  0.00    +0.004 C 
ATOM     16  C   UNL     1       6.494  -0.957  25.919  0.00  0.00    -0.002 C 
ENDBRANCH  14  16
ENDBRANCH  13  14
ENDBRANCH   1  13
BRANCH   2  17
ATOM     17  C   UNL     1       9.444   3.353  23.981  0.00  0.00    +0.177 C 
BRANCH  17  18
ATOM     18  O   UNL     1      10.308   4.252  23.286  0.00  0.00    -0.393 OA
ATOM     19  H   UNL     1      10.438   5.024  23.862  0.00  0.00    +0.209 HD
ENDBRANCH  17  18
ENDBRANCH   2  17
TORSDOF 8
ENDMDL
MODEL 5
REMARK VINA RESULT:      -4.6      2.505      3.107
REMARK  Name = 
REMARK  9 active torsions:
REMARK  status: ('A' for Active; 'I' for Inactive)
REMARK    1  A    between atoms: C_1  and  C_2
REMARK    2  A    between atoms: C_2  and  C_3
REMARK    3  A    between atoms: C_3  and  C_4
REMARK    4  A    between atoms: C_4  and  N_5
REMARK    5  A    between atoms: C_7  and  O_9
REMARK    6  A    between atoms: C_10  and  O_12
REMARK    7  A    between atoms: C_13  and  O_15
REMARK    8  A    between atoms: C_16  and  C_18
REMARK    9  A    between atoms: C_18  and  O_19
REMARK                            x       y       z     vdW  Elec       q    Type
REMARK                         _______ _______ _______ _____ _____    ______ ____
ROOT
ATOM      1  N   UNL     1       8.228  -2.447  24.875  0.00  0.00    -0.292 NA
ATOM      2  C   UNL     1       6.879  -2.992  25.209  0.00  0.00    +0.113 C 
ATOM      3  C   UNL     1       6.917  -3.994  26.387  0.00  0.00    +0.165 C 
ATOM      4  C   UNL     1       7.954  -5.099  26.160  0.00  0.00    +0.174 C 
ATOM      5  C   UNL     1       9.318  -4.541  25.742  0.00  0.00    +0.159 C 
ATOM      6  C   UNL     1       9.142  -3.559  24.569  0.00  0.00    +0.118 C 
ENDROOT
BRANCH   3   7
ATOM      7  O   UNL     1       5.636  -4.611  26.570  0.00  0.00    -0.388 OA
ATOM      8  H   UNL     1       5.030  -4.117  25.980  0.00  0.00    +0.210 HD
ENDBRANCH   3   7
BRANCH   4   9
ATOM      9  O   UNL     1       8.026  -5.843  27.395  0.00  0.00    -0.387 OA
ATOM     10  H   UNL     1       8.971  -5.899  27.643  0.00  0.00    +0.210 HD
ENDBRANCH   4   9
BRANCH   5  11
ATOM     11  O   UNL     1      10.190  -5.615  25.387  0.00  0.00    -0.388 OA
ATOM     12  H   UNL     1      10.072  -6.329  26.038  0.00  0.00    +0.210 HD
ENDBRANCH   5  11
BRANCH   1  13
ATOM     13  C   UNL     1       8.752  -1.518  25.897  0.00  0.00    +0.085 C 
BRANCH  13  14
ATOM     14  C   UNL     1       8.992  -0.080  25.397  0.00  0.00    +0.015 C 
BRANCH  14  16
ATOM     15  C   UNL     1      10.473   0.226  23.382  0.00  0.00    +0.004 C 
ATOM     16  C   UNL     1      10.421   0.134  24.897  0.00  0.00    -0.002 C 
ENDBRANCH  14  16
ENDBRANCH  13  14
ENDBRANCH   1  13
BRANCH   2  17
ATOM     17  C   UNL     1       5.778  -1.925  25.447  0.00  0.00    +0.177 C 
BRANCH  17  18
ATOM     18  O   UNL     1       4.497  -2.364  24.997  0.00  0.00    -0.393 OA
ATOM     19  H   UNL     1       3.895  -2.317  25.759  0.00  0.00    +0.209 HD
ENDBRANCH  17  18
ENDBRANCH   2  17
TORSDOF 8
ENDMDL
MODEL 6
REMARK VINA RESULT:      -4.6      2.694      4.572
REMARK  Name = 
REMARK  9 active torsions:
REMARK  status: ('A' for Active; 'I' for Inactive)
REMARK    1  A    between atoms: C_1  and  C_2
REMARK    2  A    between atoms: C_2  and  C_3
REMARK    3  A    between atoms: C_3  and  C_4
REMARK    4  A    between atoms: C_4  and  N_5
REMARK    5  A    between atoms: C_7  and  O_9
REMARK    6  A    between atoms: C_10  and  O_12
REMARK    7  A    between atoms: C_13  and  O_15
REMARK    8  A    between atoms: C_16  and  C_18
REMARK    9  A    between atoms: C_18  and  O_19
REMARK                            x       y       z     vdW  Elec       q    Type
REMARK                         _______ _______ _______ _____ _____    ______ ____
ROOT
ATOM      1  N   UNL     1       8.248  -1.187  23.244  0.00  0.00    -0.292 NA
ATOM      2  C   UNL     1       8.444  -1.569  24.674  0.00  0.00    +0.113 C 
ATOM      3  C   UNL     1       8.941  -3.023  24.839  0.00  0.00    +0.165 C 
ATOM      4  C   UNL     1       8.051  -4.018  24.086  0.00  0.00    +0.174 C 
ATOM      5  C   UNL     1       7.788  -3.585  22.640  0.00  0.00    +0.159 C 
ATOM      6  C   UNL     1       7.304  -2.123  22.614  0.00  0.00    +0.118 C 
ENDROOT
BRANCH   3   7
ATOM      7  O   UNL     1       8.963  -3.399  26.223  0.00  0.00    -0.388 OA
ATOM      8  H   UNL     1       9.895  -3.287  26.501  0.00  0.00    +0.210 HD
ENDBRANCH   3   7
BRANCH   4   9
ATOM      9  O   UNL     1       8.721  -5.294  24.158  0.00  0.00    -0.387 OA
ATOM     10  H   UNL     1       9.369  -5.239  24.889  0.00  0.00    +0.210 HD
ENDBRANCH   4   9
BRANCH   5  11
ATOM     11  O   UNL     1       6.826  -4.455  22.044  0.00  0.00    -0.388 OA
ATOM     12  H   UNL     1       5.992  -4.370  22.539  0.00  0.00    +0.210 HD
ENDBRANCH   5  11
BRANCH   1  13
ATOM     13  C   UNL     1       9.516  -1.040  22.500  0.00  0.00    +0.085 C 
BRANCH  13  14
ATOM     14  C   UNL     1       9.486   0.019  21.381  0.00  0.00    +0.015 C 
BRANCH  14  16
ATOM     15  C   UNL     1       8.367   2.220  21.879  0.00  0.00    +0.004 C 
ATOM     16  C   UNL     1       9.669   1.440  21.917  0.00  0.00    -0.002 C 
ENDBRANCH  14  16
ENDBRANCH  13  14
ENDBRANCH   1  13
BRANCH   2  17
ATOM     17  C   UNL     1       9.334  -0.600  25.498  0.00  0.00    +0.177 C 
BRANCH  17  18
ATOM     18  O   UNL     1       8.942  -0.545  26.869  0.00  0.00    -0.393 OA
ATOM     19  H   UNL     1       9.756  -0.578  27.400  0.00  0.00    +0.209 HD
ENDBRANCH  17  18
ENDBRANCH   2  17
TORSDOF 8
ENDMDL
MODEL 7
REMARK VINA RESULT:      -4.6      2.326      2.801
REMARK  Name = 
REMARK  9 active torsions:
REMARK  status: ('A' for Active; 'I' for Inactive)
REMARK    1  A    between atoms: C_1  and  C_2
REMARK    2  A    between atoms: C_2  and  C_3
REMARK    3  A    between atoms: C_3  and  C_4
REMARK    4  A    between atoms: C_4  and  N_5
REMARK    5  A    between atoms: C_7  and  O_9
REMARK    6  A    between atoms: C_10  and  O_12
REMARK    7  A    between atoms: C_13  and  O_15
REMARK    8  A    between atoms: C_16  and  C_18
REMARK    9  A    between atoms: C_18  and  O_19
REMARK                            x       y       z     vdW  Elec       q    Type
REMARK                         _______ _______ _______ _____ _____    ______ ____
ROOT
ATOM      1  N   UNL     1       9.248  -2.674  24.503  0.00  0.00    -0.292 NA
ATOM      2  C   UNL     1       8.759  -3.072  23.150  0.00  0.00    +0.113 C 
ATOM      3  C   UNL     1       7.425  -3.853  23.205  0.00  0.00    +0.165 C 
ATOM      4  C   UNL     1       7.502  -5.040  24.172  0.00  0.00    +0.174 C 
ATOM      5  C   UNL     1       8.076  -4.644  25.536  0.00  0.00    +0.159 C 
ATOM      6  C   UNL     1       9.395  -3.873  25.342  0.00  0.00    +0.118 C 
ENDROOT
BRANCH   3   7
ATOM      7  O   UNL     1       7.075  -4.353  21.908  0.00  0.00    -0.388 OA
ATOM      8  H   UNL     1       6.511  -3.657  21.512  0.00  0.00    +0.210 HD
ENDBRANCH   3   7
BRANCH   4   9
ATOM      9  O   UNL     1       6.159  -5.561  24.278  0.00  0.00    -0.387 OA
ATOM     10  H   UNL     1       6.071  -6.268  23.608  0.00  0.00    +0.210 HD
ENDBRANCH   4   9
BRANCH   5  11
ATOM     11  O   UNL     1       8.276  -5.813  26.332  0.00  0.00    -0.388 OA
ATOM     12  H   UNL     1       8.878  -6.408  25.850  0.00  0.00    +0.210 HD
ENDBRANCH   5  11
BRANCH   1  13
ATOM     13  C   UNL     1       8.433  -1.613  25.130  0.00  0.00    +0.085 C 
BRANCH  13  14
ATOM     14  C   UNL     1       9.245  -0.468  25.765  0.00  0.00    +0.015 C 
BRANCH  14  16
ATOM     15  C   UNL     1      10.097   1.382  24.282  0.00  0.00    +0.004 C 
ATOM     16  C   UNL     1      10.385   0.009  24.865  0.00  0.00    -0.002 C 
ENDBRANCH  14  16
ENDBRANCH  13  14
ENDBRANCH   1  13
BRANCH   2  17
ATOM     17  C   UNL     1       8.662  -1.916  22.118  0.00  0.00    +0.177 C 
BRANCH  17  18
ATOM     18  O   UNL     1       9.922  -1.629  21.512  0.00  0.00    -0.393 OA
ATOM     19  H   UNL     1       9.782  -1.631  20.550  0.00  0.00    +0.209 HD
ENDBRANCH  17  18
ENDBRANCH   2  17
TORSDOF 8
ENDMDL
MODEL 8
REMARK VINA RESULT:      -4.6      4.424      5.716
REMARK  Name = 
REMARK  9 active torsions:
REMARK  status: ('A' for Active; 'I' for Inactive)
REMARK    1  A    between atoms: C_1  and  C_2
REMARK    2  A    between atoms: C_2  and  C_3
REMARK    3  A    between atoms: C_3  and  C_4
REMARK    4  A    between atoms: C_4  and  N_5
REMARK    5  A    between atoms: C_7  and  O_9
REMARK    6  A    between atoms: C_10  and  O_12
REMARK    7  A    between atoms: C_13  and  O_15
REMARK    8  A    between atoms: C_16  and  C_18
REMARK    9  A    between atoms: C_18  and  O_19
REMARK                            x       y       z     vdW  Elec       q    Type
REMARK                         _______ _______ _______ _____ _____    ______ ____
ROOT
ATOM      1  N   UNL     1       8.525   0.691  23.931  0.00  0.00    -0.292 NA
ATOM      2  C   UNL     1       9.560   0.193  22.977  0.00  0.00    +0.113 C 
ATOM      3  C   UNL     1       9.517  -1.342  22.799  0.00  0.00    +0.165 C 
ATOM      4  C   UNL     1       9.564  -2.072  24.147  0.00  0.00    +0.174 C 
ATOM      5  C   UNL     1       8.554  -1.508  25.150  0.00  0.00    +0.159 C 
ATOM      6  C   UNL     1       8.697   0.023  25.230  0.00  0.00    +0.118 C 
ENDROOT
BRANCH   3   7
ATOM      7  O   UNL     1      10.622  -1.794  22.005  0.00  0.00    -0.388 OA
ATOM      8  H   UNL     1      10.807  -1.057  21.387  0.00  0.00    +0.210 HD
ENDBRANCH   3   7
BRANCH   4   9
ATOM      9  O   UNL     1       9.325  -3.466  23.859  0.00  0.00    -0.387 OA
ATOM     10  H   UNL     1      10.028  -3.758  23.244  0.00  0.00    +0.210 HD
ENDBRANCH   4   9
BRANCH   5  11
ATOM     11  O   UNL     1       8.757  -2.111  26.429  0.00  0.00    -0.388 OA
ATOM     12  H   UNL     1       8.879  -1.400  27.083  0.00  0.00    +0.210 HD
ENDBRANCH   5  11
BRANCH   1  13
ATOM     13  C   UNL     1       7.150   0.600  23.400  0.00  0.00    +0.085 C 
BRANCH  13  14
ATOM     14  C   UNL     1       6.348   1.915  23.461  0.00  0.00    +0.015 C 
BRANCH  14  16
ATOM     15  C   UNL     1       7.258   4.018  22.416  0.00  0.00    +0.004 C 
ATOM     16  C   UNL     1       6.478   2.738  22.179  0.00  0.00    -0.002 C 
ENDBRANCH  14  16
ENDBRANCH  13  14
ENDBRANCH   1  13
BRANCH   2  17
ATOM     17  C   UNL     1       9.570   0.893  21.592  0.00  0.00    +0.177 C 
BRANCH  17  18
ATOM     18  O   UNL     1      10.180   2.183  21.645  0.00  0.00    -0.393 OA
ATOM     19  H   UNL     1      10.027   2.534  22.539  0.00  0.00    +0.209 HD
ENDBRANCH  17  18
ENDBRANCH   2  17
TORSDOF 8
ENDMDL
MODEL 9
REMARK VINA RESULT:      -4.5      4.711      6.455
REMARK  Name = 
REMARK  9 active torsions:
REMARK  status: ('A' for Active; 'I' for Inactive)
REMARK    1  A    between atoms: C_1  and  C_2
REMARK    2  A    between atoms: C_2  and  C_3
REMARK    3  A    between atoms: C_3  and  C_4
REMARK    4  A    between atoms: C_4  and  N_5
REMARK    5  A    between atoms: C_7  and  O_9
REMARK    6  A    between atoms: C_10  and  O_12
REMARK    7  A    between atoms: C_13  and  O_15
REMARK    8  A    between atoms: C_16  and  C_18
REMARK    9  A    between atoms: C_18  and  O_19
REMARK                            x       y       z     vdW  Elec       q    Type
REMARK                         _______ _______ _______ _____ _____    ______ ____
ROOT
ATOM      1  N   UNL     1       8.079  -0.293  24.343  0.00  0.00    -0.292 NA
ATOM      2  C   UNL     1       8.468  -0.909  23.040  0.00  0.00    +0.113 C 
ATOM      3  C   UNL     1       9.482  -0.048  22.253  0.00  0.00    +0.165 C 
ATOM      4  C   UNL     1       8.999   1.398  22.095  0.00  0.00    +0.174 C 
ATOM      5  C   UNL     1       8.529   2.003  23.421  0.00  0.00    +0.159 C 
ATOM      6  C   UNL     1       7.530   1.051  24.103  0.00  0.00    +0.118 C 
ENDROOT
BRANCH   3   7
ATOM      7  O   UNL     1       9.705  -0.593  20.945  0.00  0.00    -0.388 OA
ATOM      8  H   UNL     1       9.924  -1.535  21.097  0.00  0.00    +0.210 HD
ENDBRANCH   3   7
BRANCH   4   9
ATOM      9  O   UNL     1      10.103   2.132  21.522  0.00  0.00    -0.387 OA
ATOM     10  H   UNL     1       9.779   2.539  20.694  0.00  0.00    +0.210 HD
ENDBRANCH   4   9
BRANCH   5  11
ATOM     11  O   UNL     1       7.939   3.282  23.184  0.00  0.00    -0.388 OA
ATOM     12  H   UNL     1       8.154   3.859  23.940  0.00  0.00    +0.210 HD
ENDBRANCH   5  11
BRANCH   1  13
ATOM     13  C   UNL     1       9.164  -0.314  25.345  0.00  0.00    +0.085 C 
BRANCH  13  14
ATOM     14  C   UNL     1       8.774  -0.928  26.704  0.00  0.00    +0.015 C 
BRANCH  14  16
ATOM     15  C   UNL     1       8.140  -3.359  26.515  0.00  0.00    +0.004 C 
ATOM     16  C   UNL     1       7.626  -1.931  26.583  0.00  0.00    -0.002 C 
ENDBRANCH  14  16
ENDBRANCH  13  14
ENDBRANCH   1  13
BRANCH   2  17
ATOM     17  C   UNL     1       8.963  -2.378  23.128  0.00  0.00    +0.177 C 
BRANCH  17  18
ATOM     18  O   UNL     1      10.376  -2.479  22.956  0.00  0.00    -0.393 OA
ATOM     19  H   UNL     1      10.530  -3.092  22.217  0.00  0.00    +0.209 HD
ENDBRANCH  17  18
ENDBRANCH   2  17
TORSDOF 8
ENDMDL
