MODEL 1
REMARK VINA RESULT:      -4.1      0.000      0.000
REMARK  Name = 
REMARK  9 active torsions:
REMARK  status: ('A' for Active; 'I' for Inactive)
REMARK    1  A    between atoms: C_2  and  S_3
REMARK    2  A    between atoms: C_2  and  C_4
REMARK    3  A    between atoms: C_2  and  C_7
REMARK    4  A    between atoms: C_4  and  C_5
REMARK    5  A    between atoms: C_5  and  S_6
REMARK    6  A    between atoms: C_7  and  C_8
REMARK    7  A    between atoms: C_8  and  C_9
REMARK    8  A    between atoms: C_9  and  C_10
REMARK    9  A    between atoms: C_10  and  C_11
REMARK                            x       y       z     vdW  Elec       q    Type
REMARK                         _______ _______ _______ _____ _____    ______ ____
ROOT
ATOM      1  C   UNL     1      10.159  -1.344  22.749  0.00  0.00    +0.014 C 
ENDROOT
BRANCH   1   2
ATOM      2  C   UNL     1       9.734   0.089  23.112  0.00  0.00    +0.044 C 
BRANCH   2   3
ATOM      3  S   UNL     1      10.844   0.805  24.387  0.00  0.00    -0.175 S 
ATOM      4  H   UNL     1      11.377  -0.355  24.800  0.00  0.00    +0.102 HD
ENDBRANCH   2   3
BRANCH   2   5
ATOM      5  C   UNL     1       9.771   1.029  21.890  0.00  0.00    +0.024 C 
BRANCH   5   6
ATOM      6  C   UNL     1       8.406   1.635  21.558  0.00  0.00    +0.066 C 
BRANCH   6   7
ATOM      7  S   UNL     1       7.149   1.058  22.737  0.00  0.00    -0.178 S 
ATOM      8  H   UNL     1       6.209   0.754  21.830  0.00  0.00    +0.102 HD
ENDBRANCH   6   7
ENDBRANCH   5   6
ENDBRANCH   2   5
ENDBRANCH   1   2
BRANCH   1   9
ATOM      9  C   UNL     1       9.104  -2.432  22.996  0.00  0.00    +0.002 C 
BRANCH   9  10
ATOM     10  C   UNL     1       9.370  -3.225  24.283  0.00  0.00    +0.009 C 
BRANCH  10  11
ATOM     11  C   UNL     1       8.372  -4.362  24.494  0.00  0.00    +0.095 C 
BRANCH  11  12
ATOM     12  C   UNL     1       8.767  -5.291  25.620  0.00  0.00    +0.210 C 
ATOM     13  O   UNL     1       7.991  -5.778  26.430  0.00  0.00    -0.276 OA
ATOM     14  N   UNL     1      10.102  -5.567  25.658  0.00  0.00    -0.329 N 
ATOM     15  H   UNL     1      10.433  -6.202  26.372  0.00  0.00    +0.145 HD
ATOM     16  H   UNL     1      10.764  -5.197  24.989  0.00  0.00    +0.145 HD
ENDBRANCH  11  12
ENDBRANCH  10  11
ENDBRANCH   9  10
ENDBRANCH   1   9
TORSDOF 9
ENDMDL
MODEL 2
REMARK VINA RESULT:      -4.0      4.306      5.494
REMARK  Name = 
REMARK  9 active torsions:
REMARK  status: ('A' for Active; 'I' for Inactive)
REMARK    1  A    between atoms: C_2  and  S_3
REMARK    2  A    between atoms: C_2  and  C_4
REMARK    3  A    between atoms: C_2  and  C_7
REMARK    4  A    between atoms: C_4  and  C_5
REMARK    5  A    between atoms: C_5  and  S_6
REMARK    6  A    between atoms: C_7  and  C_8
REMARK    7  A    between atoms: C_8  and  C_9
REMARK    8  A    between atoms: C_9  and  C_10
REMARK    9  A    between atoms: C_10  and  C_11
REMARK                            x       y       z     vdW  Elec       q    Type
REMARK                         _______ _______ _______ _____ _____    ______ ____
ROOT
ATOM      1  C   UNL     1       9.371  -0.993  24.706  0.00  0.00    +0.014 C 
ENDROOT
BRANCH   1   2
ATOM      2  C   UNL     1       9.568  -2.235  23.820  0.00  0.00    +0.044 C 
BRANCH   2   3
ATOM      3  S   UNL     1       9.220  -3.776  24.755  0.00  0.00    -0.175 S 
ATOM      4  H   UNL     1       7.906  -3.828  24.487  0.00  0.00    +0.102 HD
ENDBRANCH   2   3
BRANCH   2   5
ATOM      5  C   UNL     1       8.636  -2.222  22.592  0.00  0.00    +0.024 C 
BRANCH   5   6
ATOM      6  C   UNL     1       7.208  -1.790  22.926  0.00  0.00    +0.066 C 
BRANCH   6   7
ATOM      7  S   UNL     1       6.014  -3.030  22.342  0.00  0.00    -0.178 S 
ATOM      8  H   UNL     1       6.854  -4.075  22.350  0.00  0.00    +0.102 HD
ENDBRANCH   6   7
ENDBRANCH   5   6
ENDBRANCH   2   5
ENDBRANCH   1   2
BRANCH   1   9
ATOM      9  C   UNL     1      10.489   0.058  24.635  0.00  0.00    +0.002 C 
BRANCH   9  10
ATOM     10  C   UNL     1       9.945   1.479  24.435  0.00  0.00    +0.009 C 
BRANCH  10  11
ATOM     11  C   UNL     1       8.817   1.542  23.407  0.00  0.00    +0.095 C 
BRANCH  11  12
ATOM     12  C   UNL     1       9.319   1.550  21.980  0.00  0.00    +0.210 C 
ATOM     13  O   UNL     1       8.861   0.871  21.073  0.00  0.00    -0.276 OA
ATOM     14  N   UNL     1      10.352   2.416  21.770  0.00  0.00    -0.329 N 
ATOM     15  H   UNL     1      10.722   2.491  20.832  0.00  0.00    +0.145 HD
ATOM     16  H   UNL     1      10.737   3.006  22.495  0.00  0.00    +0.145 HD
ENDBRANCH  11  12
ENDBRANCH  10  11
ENDBRANCH   9  10
ENDBRANCH   1   9
TORSDOF 9
ENDMDL
MODEL 3
REMARK VINA RESULT:      -4.0      4.330      5.876
REMARK  Name = 
REMARK  9 active torsions:
REMARK  status: ('A' for Active; 'I' for Inactive)
REMARK    1  A    between atoms: C_2  and  S_3
REMARK    2  A    between atoms: C_2  and  C_4
REMARK    3  A    between atoms: C_2  and  C_7
REMARK    4  A    between atoms: C_4  and  C_5
REMARK    5  A    between atoms: C_5  and  S_6
REMARK    6  A    between atoms: C_7  and  C_8
REMARK    7  A    between atoms: C_8  and  C_9
REMARK    8  A    between atoms: C_9  and  C_10
REMARK    9  A    between atoms: C_10  and  C_11
REMARK                            x       y       z     vdW  Elec       q    Type
REMARK                         _______ _______ _______ _____ _____    ______ ____
ROOT
ATOM      1  C   UNL     1       9.092  -1.943  24.333  0.00  0.00    +0.014 C 
ENDROOT
BRANCH   1   2
ATOM      2  C   UNL     1       7.725  -2.586  24.045  0.00  0.00    +0.044 C 
BRANCH   2   3
ATOM      3  S   UNL     1       6.424  -1.309  23.830  0.00  0.00    -0.175 S 
ATOM      4  H   UNL     1       6.673  -0.639  24.966  0.00  0.00    +0.102 HD
ENDBRANCH   2   3
BRANCH   2   5
ATOM      5  C   UNL     1       7.748  -3.440  22.761  0.00  0.00    +0.024 C 
BRANCH   5   6
ATOM      6  C   UNL     1       7.340  -4.895  23.000  0.00  0.00    +0.066 C 
BRANCH   6   7
ATOM      7  S   UNL     1       6.570  -5.594  21.509  0.00  0.00    -0.178 S 
ATOM      8  H   UNL     1       7.690  -5.680  20.778  0.00  0.00    +0.102 HD
ENDBRANCH   6   7
ENDBRANCH   5   6
ENDBRANCH   2   5
ENDBRANCH   1   2
BRANCH   1   9
ATOM      9  C   UNL     1      10.088  -1.950  23.164  0.00  0.00    +0.002 C 
BRANCH   9  10
ATOM     10  C   UNL     1      10.349  -0.543  22.608  0.00  0.00    +0.009 C 
BRANCH  10  11
ATOM     11  C   UNL     1       9.369  -0.153  21.503  0.00  0.00    +0.095 C 
BRANCH  11  12
ATOM     12  C   UNL     1       9.007   1.315  21.528  0.00  0.00    +0.210 C 
ATOM     13  O   UNL     1       7.872   1.758  21.425  0.00  0.00    -0.276 OA
ATOM     14  N   UNL     1      10.081   2.140  21.695  0.00  0.00    -0.329 N 
ATOM     15  H   UNL     1       9.908   3.135  21.746  0.00  0.00    +0.145 HD
ATOM     16  H   UNL     1      11.027   1.802  21.806  0.00  0.00    +0.145 HD
ENDBRANCH  11  12
ENDBRANCH  10  11
ENDBRANCH   9  10
ENDBRANCH   1   9
TORSDOF 9
ENDMDL
MODEL 4
REMARK VINA RESULT:      -4.0      3.889      5.078
REMARK  Name = 
REMARK  9 active torsions:
REMARK  status: ('A' for Active; 'I' for Inactive)
REMARK    1  A    between atoms: C_2  and  S_3
REMARK    2  A    between atoms: C_2  and  C_4
REMARK    3  A    between atoms: C_2  and  C_7
REMARK    4  A    between atoms: C_4  and  C_5
REMARK    5  A    between atoms: C_5  and  S_6
REMARK    6  A    between atoms: C_7  and  C_8
REMARK    7  A    between atoms: C_8  and  C_9
REMARK    8  A    between atoms: C_9  and  C_10
REMARK    9  A    between atoms: C_10  and  C_11
REMARK                            x       y       z     vdW  Elec       q    Type
REMARK                         _______ _______ _______ _____ _____    ______ ____
ROOT
ATOM      1  C   UNL     1       9.597  -0.732  21.488  0.00  0.00    +0.014 C 
ENDROOT
BRANCH   1   2
ATOM      2  C   UNL     1       8.806  -1.750  22.327  0.00  0.00    +0.044 C 
BRANCH   2   3
ATOM      3  S   UNL     1       9.814  -2.381  23.725  0.00  0.00    -0.175 S 
ATOM      4  H   UNL     1      10.377  -3.404  23.064  0.00  0.00    +0.102 HD
ENDBRANCH   2   3
BRANCH   2   5
ATOM      5  C   UNL     1       7.525  -1.133  22.926  0.00  0.00    +0.024 C 
BRANCH   5   6
ATOM      6  C   UNL     1       6.353  -2.115  22.975  0.00  0.00    +0.066 C 
BRANCH   6   7
ATOM      7  S   UNL     1       5.909  -2.491  24.697  0.00  0.00    -0.178 S 
ATOM      8  H   UNL     1       5.241  -3.626  24.444  0.00  0.00    +0.102 HD
ENDBRANCH   6   7
ENDBRANCH   5   6
ENDBRANCH   2   5
ENDBRANCH   1   2
BRANCH   1   9
ATOM      9  C   UNL     1       9.067   0.708  21.518  0.00  0.00    +0.002 C 
BRANCH   9  10
ATOM     10  C   UNL     1      10.155   1.725  21.890  0.00  0.00    +0.009 C 
BRANCH  10  11
ATOM     11  C   UNL     1       9.964   2.312  23.288  0.00  0.00    +0.095 C 
BRANCH  11  12
ATOM     12  C   UNL     1      10.254   1.318  24.390  0.00  0.00    +0.210 C 
ATOM     13  O   UNL     1      11.319   0.740  24.548  0.00  0.00    -0.276 OA
ATOM     14  N   UNL     1       9.202   1.118  25.235  0.00  0.00    -0.329 N 
ATOM     15  H   UNL     1       9.334   0.483  26.011  0.00  0.00    +0.145 HD
ATOM     16  H   UNL     1       8.317   1.598  25.143  0.00  0.00    +0.145 HD
ENDBRANCH  11  12
ENDBRANCH  10  11
ENDBRANCH   9  10
ENDBRANCH   1   9
TORSDOF 9
ENDMDL
MODEL 5
REMARK VINA RESULT:      -4.0      4.375      5.999
REMARK  Name = 
REMARK  9 active torsions:
REMARK  status: ('A' for Active; 'I' for Inactive)
REMARK    1  A    between atoms: C_2  and  S_3
REMARK    2  A    between atoms: C_2  and  C_4
REMARK    3  A    between atoms: C_2  and  C_7
REMARK    4  A    between atoms: C_4  and  C_5
REMARK    5  A    between atoms: C_5  and  S_6
REMARK    6  A    between atoms: C_7  and  C_8
REMARK    7  A    between atoms: C_8  and  C_9
REMARK    8  A    between atoms: C_9  and  C_10
REMARK    9  A    between atoms: C_10  and  C_11
REMARK                            x       y       z     vdW  Elec       q    Type
REMARK                         _______ _______ _______ _____ _____    ______ ____
ROOT
ATOM      1  C   UNL     1       9.446  -2.994  24.135  0.00  0.00    +0.014 C 
ENDROOT
BRANCH   1   2
ATOM      2  C   UNL     1       8.627  -4.245  24.497  0.00  0.00    +0.044 C 
BRANCH   2   3
ATOM      3  S   UNL     1       8.580  -4.501  26.314  0.00  0.00    -0.175 S 
ATOM      4  H   UNL     1       9.648  -5.310  26.386  0.00  0.00    +0.102 HD
ENDBRANCH   2   3
BRANCH   2   5
ATOM      5  C   UNL     1       7.168  -4.141  24.009  0.00  0.00    +0.024 C 
BRANCH   5   6
ATOM      6  C   UNL     1       6.615  -5.466  23.482  0.00  0.00    +0.066 C 
BRANCH   6   7
ATOM      7  S   UNL     1       6.528  -5.443  21.667  0.00  0.00    -0.178 S 
ATOM      8  H   UNL     1       6.503  -6.772  21.492  0.00  0.00    +0.102 HD
ENDBRANCH   6   7
ENDBRANCH   5   6
ENDBRANCH   2   5
ENDBRANCH   1   2
BRANCH   1   9
ATOM      9  C   UNL     1       8.928  -2.186  22.937  0.00  0.00    +0.002 C 
BRANCH   9  10
ATOM     10  C   UNL     1      10.051  -1.438  22.205  0.00  0.00    +0.009 C 
BRANCH  10  11
ATOM     11  C   UNL     1       9.577  -0.131  21.571  0.00  0.00    +0.095 C 
BRANCH  11  12
ATOM     12  C   UNL     1      10.035   1.093  22.332  0.00  0.00    +0.210 C 
ATOM     13  O   UNL     1      10.489   1.082  23.467  0.00  0.00    -0.276 OA
ATOM     14  N   UNL     1       9.912   2.253  21.625  0.00  0.00    -0.329 N 
ATOM     15  H   UNL     1      10.222   3.109  22.064  0.00  0.00    +0.145 HD
ATOM     16  H   UNL     1       9.561   2.290  20.677  0.00  0.00    +0.145 HD
ENDBRANCH  11  12
ENDBRANCH  10  11
ENDBRANCH   9  10
ENDBRANCH   1   9
TORSDOF 9
ENDMDL
MODEL 6
REMARK VINA RESULT:      -4.0      4.475      6.263
REMARK  Name = 
REMARK  9 active torsions:
REMARK  status: ('A' for Active; 'I' for Inactive)
REMARK    1  A    between atoms: C_2  and  S_3
REMARK    2  A    between atoms: C_2  and  C_4
REMARK    3  A    between atoms: C_2  and  C_7
REMARK    4  A    between atoms: C_4  and  C_5
REMARK    5  A    between atoms: C_5  and  S_6
REMARK    6  A    between atoms: C_7  and  C_8
REMARK    7  A    between atoms: C_8  and  C_9
REMARK    8  A    between atoms: C_9  and  C_10
REMARK    9  A    between atoms: C_10  and  C_11
REMARK                            x       y       z     vdW  Elec       q    Type
REMARK                         _______ _______ _______ _____ _____    ______ ____
ROOT
ATOM      1  C   UNL     1       9.256  -1.992  24.421  0.00  0.00    +0.014 C 
ENDROOT
BRANCH   1   2
ATOM      2  C   UNL     1       8.348  -3.229  24.521  0.00  0.00    +0.044 C 
BRANCH   2   3
ATOM      3  S   UNL     1       7.577  -3.617  22.901  0.00  0.00    -0.175 S 
ATOM      4  H   UNL     1       7.900  -4.919  22.881  0.00  0.00    +0.102 HD
ENDBRANCH   2   3
BRANCH   2   5
ATOM      5  C   UNL     1       9.126  -4.482  24.971  0.00  0.00    +0.024 C 
BRANCH   5   6
ATOM      6  C   UNL     1       8.968  -4.783  26.462  0.00  0.00    +0.066 C 
BRANCH   6   7
ATOM      7  S   UNL     1       7.209  -4.844  26.918  0.00  0.00    -0.178 S 
ATOM      8  H   UNL     1       7.263  -3.913  27.881  0.00  0.00    +0.102 HD
ENDBRANCH   6   7
ENDBRANCH   5   6
ENDBRANCH   2   5
ENDBRANCH   1   2
BRANCH   1   9
ATOM      9  C   UNL     1      10.118  -1.902  23.154  0.00  0.00    +0.002 C 
BRANCH   9  10
ATOM     10  C   UNL     1      10.325  -0.454  22.688  0.00  0.00    +0.009 C 
BRANCH  10  11
ATOM     11  C   UNL     1       9.425  -0.076  21.514  0.00  0.00    +0.095 C 
BRANCH  11  12
ATOM     12  C   UNL     1       9.017   1.380  21.528  0.00  0.00    +0.210 C 
ATOM     13  O   UNL     1       7.869   1.787  21.422  0.00  0.00    -0.276 OA
ATOM     14  N   UNL     1      10.065   2.239  21.687  0.00  0.00    -0.329 N 
ATOM     15  H   UNL     1       9.862   3.229  21.730  0.00  0.00    +0.145 HD
ATOM     16  H   UNL     1      11.022   1.932  21.799  0.00  0.00    +0.145 HD
ENDBRANCH  11  12
ENDBRANCH  10  11
ENDBRANCH   9  10
ENDBRANCH   1   9
TORSDOF 9
ENDMDL
MODEL 7
REMARK VINA RESULT:      -3.9      3.460      5.309
REMARK  Name = 
REMARK  9 active torsions:
REMARK  status: ('A' for Active; 'I' for Inactive)
REMARK    1  A    between atoms: C_2  and  S_3
REMARK    2  A    between atoms: C_2  and  C_4
REMARK    3  A    between atoms: C_2  and  C_7
REMARK    4  A    between atoms: C_4  and  C_5
REMARK    5  A    between atoms: C_5  and  S_6
REMARK    6  A    between atoms: C_7  and  C_8
REMARK    7  A    between atoms: C_8  and  C_9
REMARK    8  A    between atoms: C_9  and  C_10
REMARK    9  A    between atoms: C_10  and  C_11
REMARK                            x       y       z     vdW  Elec       q    Type
REMARK                         _______ _______ _______ _____ _____    ______ ____
ROOT
ATOM      1  C   UNL     1       9.384  -0.894  21.679  0.00  0.00    +0.014 C 
ENDROOT
BRANCH   1   2
ATOM      2  C   UNL     1       8.732  -1.603  22.879  0.00  0.00    +0.044 C 
BRANCH   2   3
ATOM      3  S   UNL     1       7.454  -2.798  22.326  0.00  0.00    -0.175 S 
ATOM      4  H   UNL     1       6.591  -1.892  21.841  0.00  0.00    +0.102 HD
ENDBRANCH   2   3
BRANCH   2   5
ATOM      5  C   UNL     1       9.763  -2.386  23.717  0.00  0.00    +0.024 C 
BRANCH   5   6
ATOM      6  C   UNL     1       9.121  -3.257  24.797  0.00  0.00    +0.066 C 
BRANCH   6   7
ATOM      7  S   UNL     1       8.393  -2.221  26.101  0.00  0.00    -0.178 S 
ATOM      8  H   UNL     1       9.007  -2.813  27.136  0.00  0.00    +0.102 HD
ENDBRANCH   6   7
ENDBRANCH   5   6
ENDBRANCH   2   5
ENDBRANCH   1   2
BRANCH   1   9
ATOM      9  C   UNL     1       9.048   0.596  21.525  0.00  0.00    +0.002 C 
BRANCH   9  10
ATOM     10  C   UNL     1      10.135   1.505  22.115  0.00  0.00    +0.009 C 
BRANCH  10  11
ATOM     11  C   UNL     1       9.637   2.331  23.300  0.00  0.00    +0.095 C 
BRANCH  11  12
ATOM     12  C   UNL     1       9.465   1.511  24.559  0.00  0.00    +0.210 C 
ATOM     13  O   UNL     1       8.419   1.396  25.182  0.00  0.00    -0.276 OA
ATOM     14  N   UNL     1      10.604   0.874  24.956  0.00  0.00    -0.329 N 
ATOM     15  H   UNL     1      10.555   0.288  25.778  0.00  0.00    +0.145 HD
ATOM     16  H   UNL     1      11.477   0.932  24.449  0.00  0.00    +0.145 HD
ENDBRANCH  11  12
ENDBRANCH  10  11
ENDBRANCH   9  10
ENDBRANCH   1   9
TORSDOF 9
ENDMDL
MODEL 8
REMARK VINA RESULT:      -3.9      1.778      1.968
REMARK  Name = 
REMARK  9 active torsions:
REMARK  status: ('A' for Active; 'I' for Inactive)
REMARK    1  A    between atoms: C_2  and  S_3
REMARK    2  A    between atoms: C_2  and  C_4
REMARK    3  A    between atoms: C_2  and  C_7
REMARK    4  A    between atoms: C_4  and  C_5
REMARK    5  A    between atoms: C_5  and  S_6
REMARK    6  A    between atoms: C_7  and  C_8
REMARK    7  A    between atoms: C_8  and  C_9
REMARK    8  A    between atoms: C_9  and  C_10
REMARK    9  A    between atoms: C_10  and  C_11
REMARK                            x       y       z     vdW  Elec       q    Type
REMARK                         _______ _______ _______ _____ _____    ______ ____
ROOT
ATOM      1  C   UNL     1       9.916  -2.401  23.685  0.00  0.00    +0.014 C 
ENDROOT
BRANCH   1   2
ATOM      2  C   UNL     1      10.352  -0.959  23.372  0.00  0.00    +0.044 C 
BRANCH   2   3
ATOM      3  S   UNL     1       9.560  -0.346  21.834  0.00  0.00    -0.175 S 
ATOM      4  H   UNL     1       9.283   0.888  22.282  0.00  0.00    +0.102 HD
ENDBRANCH   2   3
BRANCH   2   5
ATOM      5  C   UNL     1       9.974   0.017  24.505  0.00  0.00    +0.024 C 
BRANCH   5   6
ATOM      6  C   UNL     1      10.361   1.465  24.203  0.00  0.00    +0.066 C 
BRANCH   6   7
ATOM      7  S   UNL     1       8.951   2.575  24.498  0.00  0.00    -0.178 S 
ATOM      8  H   UNL     1       8.909   3.108  23.268  0.00  0.00    +0.102 HD
ENDBRANCH   6   7
ENDBRANCH   5   6
ENDBRANCH   2   5
ENDBRANCH   1   2
BRANCH   1   9
ATOM      9  C   UNL     1       8.459  -2.742  23.341  0.00  0.00    +0.002 C 
BRANCH   9  10
ATOM     10  C   UNL     1       7.702  -3.344  24.533  0.00  0.00    +0.009 C 
BRANCH  10  11
ATOM     11  C   UNL     1       8.602  -3.591  25.742  0.00  0.00    +0.095 C 
BRANCH  11  12
ATOM     12  C   UNL     1       8.773  -5.059  26.060  0.00  0.00    +0.210 C 
ATOM     13  O   UNL     1       7.918  -5.769  26.570  0.00  0.00    -0.276 OA
ATOM     14  N   UNL     1       9.995  -5.555  25.711  0.00  0.00    -0.329 N 
ATOM     15  H   UNL     1      10.169  -6.538  25.873  0.00  0.00    +0.145 HD
ATOM     16  H   UNL     1      10.713  -4.999  25.268  0.00  0.00    +0.145 HD
ENDBRANCH  11  12
ENDBRANCH  10  11
ENDBRANCH   9  10
ENDBRANCH   1   9
TORSDOF 9
ENDMDL
MODEL 9
REMARK VINA RESULT:      -3.9      4.478      6.180
REMARK  Name = 
REMARK  9 active torsions:
REMARK  status: ('A' for Active; 'I' for Inactive)
REMARK    1  A    between atoms: C_2  and  S_3
REMARK    2  A    between atoms: C_2  and  C_4
REMARK    3  A    between atoms: C_2  and  C_7
REMARK    4  A    between atoms: C_4  and  C_5
REMARK    5  A    between atoms: C_5  and  S_6
REMARK    6  A    between atoms: C_7  and  C_8
REMARK    7  A    between atoms: C_8  and  C_9
REMARK    8  A    between atoms: C_9  and  C_10
REMARK    9  A    between atoms: C_10  and  C_11
REMARK                            x       y       z     vdW  Elec       q    Type
REMARK                         _______ _______ _______ _____ _____    ______ ____
ROOT
ATOM      1  C   UNL     1       9.372   0.034  25.072  0.00  0.00    +0.014 C 
ENDROOT
BRANCH   1   2
ATOM      2  C   UNL     1       8.874  -1.185  24.279  0.00  0.00    +0.044 C 
BRANCH   2   3
ATOM      3  S   UNL     1      10.006  -1.578  22.889  0.00  0.00    -0.175 S 
ATOM      4  H   UNL     1      11.096  -1.812  23.636  0.00  0.00    +0.102 HD
ENDBRANCH   2   3
BRANCH   2   5
ATOM      5  C   UNL     1       8.773  -2.446  25.160  0.00  0.00    +0.024 C 
BRANCH   5   6
ATOM      6  C   UNL     1       9.451  -3.669  24.539  0.00  0.00    +0.066 C 
BRANCH   6   7
ATOM      7  S   UNL     1       9.000  -5.178  25.447  0.00  0.00    -0.178 S 
ATOM      8  H   UNL     1      10.245  -5.526  25.804  0.00  0.00    +0.102 HD
ENDBRANCH   6   7
ENDBRANCH   5   6
ENDBRANCH   2   5
ENDBRANCH   1   2
BRANCH   1   9
ATOM      9  C   UNL     1      10.760   0.560  24.679  0.00  0.00    +0.002 C 
BRANCH   9  10
ATOM     10  C   UNL     1      10.692   1.917  23.965  0.00  0.00    +0.009 C 
BRANCH  10  11
ATOM     11  C   UNL     1       9.260   2.417  23.781  0.00  0.00    +0.095 C 
BRANCH  11  12
ATOM     12  C   UNL     1       8.806   2.386  22.339  0.00  0.00    +0.210 C 
ATOM     13  O   UNL     1       7.682   2.672  21.953  0.00  0.00    -0.276 OA
ATOM     14  N   UNL     1       9.786   2.013  21.466  0.00  0.00    -0.329 N 
ATOM     15  H   UNL     1       9.558   1.993  20.480  0.00  0.00    +0.145 HD
ATOM     16  H   UNL     1      10.730   1.792  21.753  0.00  0.00    +0.145 HD
ENDBRANCH  11  12
ENDBRANCH  10  11
ENDBRANCH   9  10
ENDBRANCH   1   9
TORSDOF 9
ENDMDL
