MODEL 1
REMARK VINA RESULT:      -3.5      0.000      0.000
REMARK  Name = 
REMARK  1 active torsions:
REMARK  status: ('A' for Active; 'I' for Inactive)
REMARK    1  A    between atoms: S_1  and  C_2
REMARK                            x       y       z     vdW  Elec       q    Type
REMARK                         _______ _______ _______ _____ _____    ______ ____
ROOT
ATOM      1  C   UNL     1      10.071  -0.463  23.267  0.00  0.00    +0.094 A 
ATOM      2  N   UNL     1      10.497   0.281  24.311  0.00  0.00    -0.249 NA
ATOM      3  C   UNL     1      10.618   1.612  24.115  0.00  0.00    +0.112 A 
ATOM      4  C   UNL     1      10.332   2.243  22.917  0.00  0.00    +0.020 A 
ATOM      5  C   UNL     1       9.894   1.464  21.855  0.00  0.00    +0.004 A 
ATOM      6  C   UNL     1       9.759   0.088  22.029  0.00  0.00    +0.034 A 
ENDROOT
BRANCH   1   7
ATOM      7  S   UNL     1       9.909  -2.208  23.562  0.00  0.00    -0.123 S 
ATOM      8  H   UNL     1      10.237  -2.614  22.330  0.00  0.00    +0.109 HD
ENDBRANCH   1   7
TORSDOF 1
ENDMDL
MODEL 2
REMARK VINA RESULT:      -3.3      1.023      1.808
REMARK  Name = 
REMARK  1 active torsions:
REMARK  status: ('A' for Active; 'I' for Inactive)
REMARK    1  A    between atoms: S_1  and  C_2
REMARK                            x       y       z     vdW  Elec       q    Type
REMARK                         _______ _______ _______ _____ _____    ______ ____
ROOT
ATOM      1  C   UNL     1      10.032  -0.492  23.353  0.00  0.00    +0.094 A 
ATOM      2  N   UNL     1       9.681  -0.071  22.118  0.00  0.00    -0.249 NA
ATOM      3  C   UNL     1       9.803   1.249  21.856  0.00  0.00    +0.112 A 
ATOM      4  C   UNL     1      10.264   2.177  22.775  0.00  0.00    +0.020 A 
ATOM      5  C   UNL     1      10.621   1.725  24.039  0.00  0.00    +0.004 A 
ATOM      6  C   UNL     1      10.506   0.369  24.336  0.00  0.00    +0.034 A 
ENDROOT
BRANCH   1   7
ATOM      7  S   UNL     1       9.872  -2.236  23.660  0.00  0.00    -0.123 S 
ATOM      8  H   UNL     1       9.450  -2.579  22.438  0.00  0.00    +0.109 HD
ENDBRANCH   1   7
TORSDOF 1
ENDMDL
MODEL 3
REMARK VINA RESULT:      -3.3      2.117      2.827
REMARK  Name = 
REMARK  1 active torsions:
REMARK  status: ('A' for Active; 'I' for Inactive)
REMARK    1  A    between atoms: S_1  and  C_2
REMARK                            x       y       z     vdW  Elec       q    Type
REMARK                         _______ _______ _______ _____ _____    ______ ____
ROOT
ATOM      1  C   UNL     1      10.134   1.229  22.940  0.00  0.00    +0.094 A 
ATOM      2  N   UNL     1      10.486   0.246  23.797  0.00  0.00    -0.249 NA
ATOM      3  C   UNL     1      10.266  -1.028  23.402  0.00  0.00    +0.112 A 
ATOM      4  C   UNL     1       9.708  -1.370  22.183  0.00  0.00    +0.020 A 
ATOM      5  C   UNL     1       9.354  -0.346  21.314  0.00  0.00    +0.004 A 
ATOM      6  C   UNL     1       9.570   0.976  21.695  0.00  0.00    +0.034 A 
ENDROOT
BRANCH   1   7
ATOM      7  S   UNL     1      10.450   2.892  23.484  0.00  0.00    -0.123 S 
ATOM      8  H   UNL     1      10.328   3.481  22.289  0.00  0.00    +0.109 HD
ENDBRANCH   1   7
TORSDOF 1
ENDMDL
MODEL 4
REMARK VINA RESULT:      -3.1      2.405      3.316
REMARK  Name = 
REMARK  1 active torsions:
REMARK  status: ('A' for Active; 'I' for Inactive)
REMARK    1  A    between atoms: S_1  and  C_2
REMARK                            x       y       z     vdW  Elec       q    Type
REMARK                         _______ _______ _______ _____ _____    ______ ____
ROOT
ATOM      1  C   UNL     1      10.258   1.289  22.907  0.00  0.00    +0.094 A 
ATOM      2  N   UNL     1       9.687   1.112  21.695  0.00  0.00    -0.249 NA
ATOM      3  C   UNL     1       9.401  -0.156  21.324  0.00  0.00    +0.112 A 
ATOM      4  C   UNL     1       9.658  -1.265  22.112  0.00  0.00    +0.020 A 
ATOM      5  C   UNL     1      10.243  -1.064  23.355  0.00  0.00    +0.004 A 
ATOM      6  C   UNL     1      10.549   0.232  23.763  0.00  0.00    +0.034 A 
ENDROOT
BRANCH   1   7
ATOM      7  S   UNL     1      10.610   2.969  23.369  0.00  0.00    -0.123 S 
ATOM      8  H   UNL     1       9.347   3.339  23.614  0.00  0.00    +0.109 HD
ENDBRANCH   1   7
TORSDOF 1
ENDMDL
MODEL 5
REMARK VINA RESULT:      -3.0      1.921      2.228
REMARK  Name = 
REMARK  1 active torsions:
REMARK  status: ('A' for Active; 'I' for Inactive)
REMARK    1  A    between atoms: S_1  and  C_2
REMARK                            x       y       z     vdW  Elec       q    Type
REMARK                         _______ _______ _______ _____ _____    ______ ____
ROOT
ATOM      1  C   UNL     1       8.544  -0.504  22.401  0.00  0.00    +0.094 A 
ATOM      2  N   UNL     1       7.417   0.194  22.665  0.00  0.00    -0.249 NA
ATOM      3  C   UNL     1       7.462   1.533  22.485  0.00  0.00    +0.112 A 
ATOM      4  C   UNL     1       8.586   2.215  22.052  0.00  0.00    +0.020 A 
ATOM      5  C   UNL     1       9.735   1.480  21.785  0.00  0.00    +0.004 A 
ATOM      6  C   UNL     1       9.716   0.099  21.960  0.00  0.00    +0.034 A 
ENDROOT
BRANCH   1   7
ATOM      7  S   UNL     1       8.447  -2.264  22.634  0.00  0.00    -0.123 S 
ATOM      8  H   UNL     1       9.687  -2.435  23.107  0.00  0.00    +0.109 HD
ENDBRANCH   1   7
TORSDOF 1
ENDMDL
MODEL 6
REMARK VINA RESULT:      -3.0      3.240      3.877
REMARK  Name = 
REMARK  1 active torsions:
REMARK  status: ('A' for Active; 'I' for Inactive)
REMARK    1  A    between atoms: S_1  and  C_2
REMARK                            x       y       z     vdW  Elec       q    Type
REMARK                         _______ _______ _______ _____ _____    ______ ____
ROOT
ATOM      1  C   UNL     1       9.000   3.195  23.205  0.00  0.00    +0.094 A 
ATOM      2  N   UNL     1       7.818   2.967  22.591  0.00  0.00    -0.249 NA
ATOM      3  C   UNL     1       7.762   1.938  21.717  0.00  0.00    +0.112 A 
ATOM      4  C   UNL     1       8.838   1.119  21.422  0.00  0.00    +0.020 A 
ATOM      5  C   UNL     1      10.045   1.368  22.063  0.00  0.00    +0.004 A 
ATOM      6  C   UNL     1      10.130   2.421  22.970  0.00  0.00    +0.034 A 
ENDROOT
BRANCH   1   7
ATOM      7  S   UNL     1       9.035   4.546  24.360  0.00  0.00    -0.123 S 
ATOM      8  H   UNL     1       9.551   5.459  23.528  0.00  0.00    +0.109 HD
ENDBRANCH   1   7
TORSDOF 1
ENDMDL
MODEL 7
REMARK VINA RESULT:      -3.0      2.934      3.224
REMARK  Name = 
REMARK  1 active torsions:
REMARK  status: ('A' for Active; 'I' for Inactive)
REMARK    1  A    between atoms: S_1  and  C_2
REMARK                            x       y       z     vdW  Elec       q    Type
REMARK                         _______ _______ _______ _____ _____    ______ ____
ROOT
ATOM      1  C   UNL     1       8.386   2.502  22.471  0.00  0.00    +0.094 A 
ATOM      2  N   UNL     1       9.050   2.531  23.648  0.00  0.00    -0.249 NA
ATOM      3  C   UNL     1       9.984   1.576  23.856  0.00  0.00    +0.112 A 
ATOM      4  C   UNL     1      10.291   0.587  22.938  0.00  0.00    +0.020 A 
ATOM      5  C   UNL     1       9.599   0.574  21.733  0.00  0.00    +0.004 A 
ATOM      6  C   UNL     1       8.632   1.546  21.492  0.00  0.00    +0.034 A 
ENDROOT
BRANCH   1   7
ATOM      7  S   UNL     1       7.174   3.779  22.225  0.00  0.00    -0.123 S 
ATOM      8  H   UNL     1       7.499   4.521  23.290  0.00  0.00    +0.109 HD
ENDBRANCH   1   7
TORSDOF 1
ENDMDL
MODEL 8
REMARK VINA RESULT:      -3.0      7.007      7.521
REMARK  Name = 
REMARK  1 active torsions:
REMARK  status: ('A' for Active; 'I' for Inactive)
REMARK    1  A    between atoms: S_1  and  C_2
REMARK                            x       y       z     vdW  Elec       q    Type
REMARK                         _______ _______ _______ _____ _____    ______ ____
ROOT
ATOM      1  C   UNL     1       5.294  -4.717  23.451  0.00  0.00    +0.094 A 
ATOM      2  N   UNL     1       4.935  -5.229  22.253  0.00  0.00    -0.249 NA
ATOM      3  C   UNL     1       5.908  -5.791  21.503  0.00  0.00    +0.112 A 
ATOM      4  C   UNL     1       7.234  -5.867  21.893  0.00  0.00    +0.020 A 
ATOM      5  C   UNL     1       7.584  -5.337  23.128  0.00  0.00    +0.004 A 
ATOM      6  C   UNL     1       6.601  -4.753  23.923  0.00  0.00    +0.034 A 
ENDROOT
BRANCH   1   7
ATOM      7  S   UNL     1       3.988  -3.999  24.419  0.00  0.00    -0.123 S 
ATOM      8  H   UNL     1       4.443  -2.740  24.400  0.00  0.00    +0.109 HD
ENDBRANCH   1   7
TORSDOF 1
ENDMDL
MODEL 9
REMARK VINA RESULT:      -3.0      3.378      3.928
REMARK  Name = 
REMARK  1 active torsions:
REMARK  status: ('A' for Active; 'I' for Inactive)
REMARK    1  A    between atoms: S_1  and  C_2
REMARK                            x       y       z     vdW  Elec       q    Type
REMARK                         _______ _______ _______ _____ _____    ______ ____
ROOT
ATOM      1  C   UNL     1       8.022  -3.701  23.414  0.00  0.00    +0.094 A 
ATOM      2  N   UNL     1       9.156  -3.622  24.144  0.00  0.00    -0.249 NA
ATOM      3  C   UNL     1      10.022  -2.631  23.839  0.00  0.00    +0.112 A 
ATOM      4  C   UNL     1       9.808  -1.705  22.832  0.00  0.00    +0.020 A 
ATOM      5  C   UNL     1       8.636  -1.800  22.093  0.00  0.00    +0.004 A 
ATOM      6  C   UNL     1       7.726  -2.812  22.387  0.00  0.00    +0.034 A 
ENDROOT
BRANCH   1   7
ATOM      7  S   UNL     1       6.899  -5.008  23.850  0.00  0.00    -0.123 S 
ATOM      8  H   UNL     1       7.670  -6.027  23.450  0.00  0.00    +0.109 HD
ENDBRANCH   1   7
TORSDOF 1
ENDMDL
