MODEL 1
REMARK VINA RESULT:      -4.5      0.000      0.000
REMARK  Name = 
REMARK  0 active torsions:
REMARK  status: ('A' for Active; 'I' for Inactive)
REMARK                            x       y       z     vdW  Elec       q    Type
REMARK                         _______ _______ _______ _____ _____    ______ ____
ROOT
ATOM      1  S   UNL     1       6.767  -5.026  22.925  0.00  0.00    -0.028 S 
ATOM      2  C   UNL     1       7.746  -5.043  24.280  0.00  0.00    +0.136 A 
ATOM      3  C   UNL     1       7.171  -5.325  25.562  0.00  0.00    +0.116 A 
ATOM      4  N   UNL     1       5.897  -5.608  25.973  0.00  0.00    -0.341 N 
ATOM      5  H   UNL     1       5.078  -5.671  25.382  0.00  0.00    +0.167 HD
ATOM      6  C   UNL     1       5.944  -5.792  27.333  0.00  0.00    +0.199 A 
ATOM      7  N   UNL     1       7.166  -5.642  27.808  0.00  0.00    -0.218 NA
ATOM      8  C   UNL     1       7.907  -5.357  26.713  0.00  0.00    +0.160 A 
ATOM      9  N   UNL     1       9.217  -5.121  26.686  0.00  0.00    -0.329 N 
ATOM     10  H   UNL     1       9.789  -5.137  27.518  0.00  0.00    +0.168 HD
ATOM     11  C   UNL     1       9.729  -4.856  25.442  0.00  0.00    +0.199 A 
ATOM     12  N   UNL     1       9.109  -4.805  24.302  0.00  0.00    -0.228 NA
ENDROOT
TORSDOF 0
ENDMDL
MODEL 2
REMARK VINA RESULT:      -4.2      6.896      7.802
REMARK  Name = 
REMARK  0 active torsions:
REMARK  status: ('A' for Active; 'I' for Inactive)
REMARK                            x       y       z     vdW  Elec       q    Type
REMARK                         _______ _______ _______ _____ _____    ______ ____
ROOT
ATOM      1  S   UNL     1       7.227  -1.373  23.257  0.00  0.00    -0.028 S 
ATOM      2  C   UNL     1       8.040  -0.047  22.646  0.00  0.00    +0.136 A 
ATOM      3  C   UNL     1       7.351   1.202  22.510  0.00  0.00    +0.116 A 
ATOM      4  N   UNL     1       6.071   1.598  22.787  0.00  0.00    -0.341 N 
ATOM      5  H   UNL     1       5.334   1.018  23.170  0.00  0.00    +0.167 HD
ATOM      6  C   UNL     1       5.978   2.926  22.450  0.00  0.00    +0.199 A 
ATOM      7  N   UNL     1       7.116   3.395  21.976  0.00  0.00    -0.218 NA
ATOM      8  C   UNL     1       7.948   2.329  22.019  0.00  0.00    +0.160 A 
ATOM      9  N   UNL     1       9.224   2.308  21.640  0.00  0.00    -0.329 N 
ATOM     10  H   UNL     1       9.696   3.123  21.273  0.00  0.00    +0.168 HD
ATOM     11  C   UNL     1       9.849   1.096  21.785  0.00  0.00    +0.199 A 
ATOM     12  N   UNL     1       9.363  -0.020  22.239  0.00  0.00    -0.228 NA
ENDROOT
TORSDOF 0
ENDMDL
MODEL 3
REMARK VINA RESULT:      -4.1      5.750      7.153
REMARK  Name = 
REMARK  0 active torsions:
REMARK  status: ('A' for Active; 'I' for Inactive)
REMARK                            x       y       z     vdW  Elec       q    Type
REMARK                         _______ _______ _______ _____ _____    ______ ____
ROOT
ATOM      1  S   UNL     1       8.876  -0.869  25.809  0.00  0.00    -0.028 S 
ATOM      2  C   UNL     1       9.182  -0.795  24.168  0.00  0.00    +0.136 A 
ATOM      3  C   UNL     1       9.591   0.446  23.581  0.00  0.00    +0.116 A 
ATOM      4  N   UNL     1       9.809   1.696  24.095  0.00  0.00    -0.341 N 
ATOM      5  H   UNL     1       9.707   1.971  25.064  0.00  0.00    +0.167 HD
ATOM      6  C   UNL     1      10.191   2.501  23.050  0.00  0.00    +0.199 A 
ATOM      7  N   UNL     1      10.229   1.841  21.909  0.00  0.00    -0.218 NA
ATOM      8  C   UNL     1       9.859   0.585  22.248  0.00  0.00    +0.160 A 
ATOM      9  N   UNL     1       9.748  -0.455  21.424  0.00  0.00    -0.329 N 
ATOM     10  H   UNL     1       9.938  -0.387  20.434  0.00  0.00    +0.168 HD
ATOM     11  C   UNL     1       9.355  -1.624  22.022  0.00  0.00    +0.199 A 
ATOM     12  N   UNL     1       9.080  -1.846  23.273  0.00  0.00    -0.228 NA
ENDROOT
TORSDOF 0
ENDMDL
MODEL 4
REMARK VINA RESULT:      -4.1      1.850      3.295
REMARK  Name = 
REMARK  0 active torsions:
REMARK  status: ('A' for Active; 'I' for Inactive)
REMARK                            x       y       z     vdW  Elec       q    Type
REMARK                         _______ _______ _______ _____ _____    ______ ____
ROOT
ATOM      1  S   UNL     1       5.320  -6.213  26.190  0.00  0.00    -0.028 S 
ATOM      2  C   UNL     1       6.196  -5.356  25.054  0.00  0.00    +0.136 A 
ATOM      3  C   UNL     1       7.610  -5.199  25.225  0.00  0.00    +0.116 A 
ATOM      4  N   UNL     1       8.488  -5.624  26.185  0.00  0.00    -0.341 N 
ATOM      5  H   UNL     1       8.259  -6.170  27.006  0.00  0.00    +0.167 HD
ATOM      6  C   UNL     1       9.732  -5.172  25.820  0.00  0.00    +0.199 A 
ATOM      7  N   UNL     1       9.698  -4.488  24.693  0.00  0.00    -0.218 NA
ATOM      8  C   UNL     1       8.392  -4.513  24.340  0.00  0.00    +0.160 A 
ATOM      9  N   UNL     1       7.857  -3.950  23.258  0.00  0.00    -0.329 N 
ATOM     10  H   UNL     1       8.406  -3.436  22.584  0.00  0.00    +0.168 HD
ATOM     11  C   UNL     1       6.503  -4.122  23.130  0.00  0.00    +0.199 A 
ATOM     12  N   UNL     1       5.685  -4.754  23.917  0.00  0.00    -0.228 NA
ENDROOT
TORSDOF 0
ENDMDL
MODEL 5
REMARK VINA RESULT:      -4.1      5.164      6.338
REMARK  Name = 
REMARK  0 active torsions:
REMARK  status: ('A' for Active; 'I' for Inactive)
REMARK                            x       y       z     vdW  Elec       q    Type
REMARK                         _______ _______ _______ _____ _____    ______ ____
ROOT
ATOM      1  S   UNL     1       8.183   1.435  25.093  0.00  0.00    -0.028 S 
ATOM      2  C   UNL     1       8.753   0.768  23.670  0.00  0.00    +0.136 A 
ATOM      3  C   UNL     1       9.234  -0.581  23.666  0.00  0.00    +0.116 A 
ATOM      4  N   UNL     1       9.346  -1.537  24.640  0.00  0.00    -0.341 N 
ATOM      5  H   UNL     1       9.082  -1.434  25.612  0.00  0.00    +0.167 HD
ATOM      6  C   UNL     1       9.882  -2.654  24.048  0.00  0.00    +0.199 A 
ATOM      7  N   UNL     1      10.116  -2.467  22.764  0.00  0.00    -0.218 NA
ATOM      8  C   UNL     1       9.715  -1.194  22.543  0.00  0.00    +0.160 A 
ATOM      9  N   UNL     1       9.755  -0.545  21.382  0.00  0.00    -0.329 N 
ATOM     10  H   UNL     1      10.104  -0.967  20.534  0.00  0.00    +0.168 HD
ATOM     11  C   UNL     1       9.286   0.743  21.426  0.00  0.00    +0.199 A 
ATOM     12  N   UNL     1       8.814   1.403  22.442  0.00  0.00    -0.228 NA
ENDROOT
TORSDOF 0
ENDMDL
MODEL 6
REMARK VINA RESULT:      -4.0      2.164      3.572
REMARK  Name = 
REMARK  0 active torsions:
REMARK  status: ('A' for Active; 'I' for Inactive)
REMARK                            x       y       z     vdW  Elec       q    Type
REMARK                         _______ _______ _______ _____ _____    ______ ____
ROOT
ATOM      1  S   UNL     1       5.937  -2.024  26.759  0.00  0.00    -0.028 S 
ATOM      2  C   UNL     1       6.839  -3.430  26.740  0.00  0.00    +0.136 A 
ATOM      3  C   UNL     1       7.945  -3.547  25.836  0.00  0.00    +0.116 A 
ATOM      4  N   UNL     1       8.481  -2.703  24.901  0.00  0.00    -0.341 N 
ATOM      5  H   UNL     1       8.153  -1.772  24.677  0.00  0.00    +0.167 HD
ATOM      6  C   UNL     1       9.544  -3.358  24.330  0.00  0.00    +0.199 A 
ATOM      7  N   UNL     1       9.714  -4.562  24.842  0.00  0.00    -0.218 NA
ATOM      8  C   UNL     1       8.728  -4.664  25.762  0.00  0.00    +0.160 A 
ATOM      9  N   UNL     1       8.489  -5.712  26.549  0.00  0.00    -0.329 N 
ATOM     10  H   UNL     1       9.048  -6.552  26.520  0.00  0.00    +0.168 HD
ATOM     11  C   UNL     1       7.424  -5.561  27.400  0.00  0.00    +0.199 A 
ATOM     12  N   UNL     1       6.630  -4.543  27.536  0.00  0.00    -0.228 NA
ENDROOT
TORSDOF 0
ENDMDL
MODEL 7
REMARK VINA RESULT:      -4.0      2.559      3.796
REMARK  Name = 
REMARK  0 active torsions:
REMARK  status: ('A' for Active; 'I' for Inactive)
REMARK                            x       y       z     vdW  Elec       q    Type
REMARK                         _______ _______ _______ _____ _____    ______ ____
ROOT
ATOM      1  S   UNL     1       3.638  -4.758  24.025  0.00  0.00    -0.028 S 
ATOM      2  C   UNL     1       5.022  -5.147  23.173  0.00  0.00    +0.136 A 
ATOM      3  C   UNL     1       6.297  -5.068  23.824  0.00  0.00    +0.116 A 
ATOM      4  N   UNL     1       6.680  -4.718  25.091  0.00  0.00    -0.341 N 
ATOM      5  H   UNL     1       6.066  -4.432  25.843  0.00  0.00    +0.167 HD
ATOM      6  C   UNL     1       8.047  -4.830  25.143  0.00  0.00    +0.199 A 
ATOM      7  N   UNL     1       8.554  -5.228  23.992  0.00  0.00    -0.218 NA
ATOM      8  C   UNL     1       7.471  -5.370  23.194  0.00  0.00    +0.160 A 
ATOM      9  N   UNL     1       7.476  -5.759  21.920  0.00  0.00    -0.329 N 
ATOM     10  H   UNL     1       8.325  -5.989  21.425  0.00  0.00    +0.168 HD
ATOM     11  C   UNL     1       6.238  -5.822  21.333  0.00  0.00    +0.199 A 
ATOM     12  N   UNL     1       5.077  -5.555  21.852  0.00  0.00    -0.228 NA
ENDROOT
TORSDOF 0
ENDMDL
MODEL 8
REMARK VINA RESULT:      -4.0      2.587      3.634
REMARK  Name = 
REMARK  0 active torsions:
REMARK  status: ('A' for Active; 'I' for Inactive)
REMARK                            x       y       z     vdW  Elec       q    Type
REMARK                         _______ _______ _______ _____ _____    ______ ____
ROOT
ATOM      1  S   UNL     1       8.290  -3.673  24.091  0.00  0.00    -0.028 S 
ATOM      2  C   UNL     1       7.237  -4.663  23.253  0.00  0.00    +0.136 A 
ATOM      3  C   UNL     1       6.269  -5.435  23.974  0.00  0.00    +0.116 A 
ATOM      4  N   UNL     1       5.980  -5.564  25.306  0.00  0.00    -0.341 N 
ATOM      5  H   UNL     1       6.447  -5.088  26.068  0.00  0.00    +0.167 HD
ATOM      6  C   UNL     1       4.940  -6.454  25.408  0.00  0.00    +0.199 A 
ATOM      7  N   UNL     1       4.553  -6.898  24.227  0.00  0.00    -0.218 NA
ATOM      8  C   UNL     1       5.375  -6.266  23.359  0.00  0.00    +0.160 A 
ATOM      9  N   UNL     1       5.370  -6.392  22.033  0.00  0.00    -0.329 N 
ATOM     10  H   UNL     1       4.723  -6.997  21.547  0.00  0.00    +0.168 HD
ATOM     11  C   UNL     1       6.310  -5.638  21.380  0.00  0.00    +0.199 A 
ATOM     12  N   UNL     1       7.193  -4.827  21.879  0.00  0.00    -0.228 NA
ENDROOT
TORSDOF 0
ENDMDL
MODEL 9
REMARK VINA RESULT:      -3.9      5.424      6.262
REMARK  Name = 
REMARK  0 active torsions:
REMARK  status: ('A' for Active; 'I' for Inactive)
REMARK                            x       y       z     vdW  Elec       q    Type
REMARK                         _______ _______ _______ _____ _____    ______ ____
ROOT
ATOM      1  S   UNL     1      10.451   2.689  23.358  0.00  0.00    -0.028 S 
ATOM      2  C   UNL     1       9.977   1.115  23.059  0.00  0.00    +0.136 A 
ATOM      3  C   UNL     1       9.590   0.275  24.153  0.00  0.00    +0.116 A 
ATOM      4  N   UNL     1       9.512   0.477  25.505  0.00  0.00    -0.341 N 
ATOM      5  H   UNL     1       9.735   1.334  25.995  0.00  0.00    +0.167 HD
ATOM      6  C   UNL     1       9.074  -0.698  26.063  0.00  0.00    +0.199 A 
ATOM      7  N   UNL     1       8.871  -1.631  25.152  0.00  0.00    -0.218 NA
ATOM      8  C   UNL     1       9.191  -1.022  23.988  0.00  0.00    +0.160 A 
ATOM      9  N   UNL     1       9.144  -1.566  22.774  0.00  0.00    -0.329 N 
ATOM     10  H   UNL     1       8.854  -2.521  22.617  0.00  0.00    +0.168 HD
ATOM     11  C   UNL     1       9.521  -0.731  21.754  0.00  0.00    +0.199 A 
ATOM     12  N   UNL     1       9.913   0.506  21.817  0.00  0.00    -0.228 NA
ENDROOT
TORSDOF 0
ENDMDL
