MODEL 1
REMARK VINA RESULT:      -6.4      0.000      0.000
REMARK  Name = 
REMARK  10 active torsions:
REMARK  status: ('A' for Active; 'I' for Inactive)
REMARK    1  A    between atoms: C_1  and  C_2
REMARK    2  A    between atoms: C_2  and  N_3
REMARK    3  A    between atoms: N_3  and  C_4
REMARK    4  A    between atoms: N_3  and  C_6
REMARK    5  A    between atoms: C_4  and  C_5
REMARK    6  A    between atoms: C_6  and  C_7
REMARK    7  A    between atoms: C_7  and  O_9
REMARK    8  A    between atoms: O_9  and  C_10
REMARK    9  A    between atoms: C_13  and  N_14
REMARK   10  A    between atoms: C_15  and  C_16
REMARK                            x       y       z     vdW  Elec       q    Type
REMARK                         _______ _______ _______ _____ _____    ______ ____
ROOT
ATOM      1  C   UNL     1      10.165  -0.423  22.879  0.00  0.00    +0.132 A 
ATOM      2  C   UNL     1       9.844   0.399  21.802  0.00  0.00    +0.048 A 
ATOM      3  C   UNL     1       9.875   1.794  21.973  0.00  0.00    +0.027 A 
ATOM      4  C   UNL     1      10.231   2.354  23.214  0.00  0.00    +0.034 A 
ATOM      5  C   UNL     1      10.610   1.508  24.251  0.00  0.00    +0.027 A 
ATOM      6  C   UNL     1      10.600   0.132  24.080  0.00  0.00    +0.048 A 
ENDROOT
BRANCH   4   7
ATOM      7  N   UNL     1      10.155   3.757  23.380  0.00  0.00    -0.286 N 
ATOM      8  H   UNL     1       9.228   4.159  23.431  0.00  0.00    +0.155 HD
ATOM      9  C   UNL     1      11.235   4.620  23.493  0.00  0.00    +0.214 C 
ATOM     10  O   UNL     1      12.417   4.358  23.289  0.00  0.00    -0.276 OA
ATOM     11  C   UNL     1      10.845   6.017  23.893  0.00  0.00    +0.109 C 
ENDBRANCH   4   7
BRANCH   1  12
ATOM     12  O   UNL     1      10.132  -1.815  22.741  0.00  0.00    -0.425 OA
BRANCH  12  13
ATOM     13  C   UNL     1       8.846  -2.352  22.853  0.00  0.00    +0.327 C 
ATOM     14  O   UNL     1       7.943  -2.252  22.026  0.00  0.00    -0.249 OA
BRANCH  13  15
ATOM     15  C   UNL     1       8.676  -3.059  24.190  0.00  0.00    +0.206 C 
BRANCH  15  16
ATOM     16  N   UNL     1       8.780  -4.539  24.077  0.00  0.00    -0.293 NA
BRANCH  16  18
ATOM     17  C   UNL     1       8.770  -4.685  26.596  0.00  0.00    +0.020 C 
ATOM     18  C   UNL     1       9.389  -5.147  25.276  0.00  0.00    +0.081 C 
ENDBRANCH  16  18
BRANCH  16  19
ATOM     19  C   UNL     1       7.475  -5.124  23.725  0.00  0.00    +0.081 C 
ATOM     20  C   UNL     1       7.383  -5.789  22.353  0.00  0.00    +0.020 C 
ENDBRANCH  16  19
ENDBRANCH  15  16
ENDBRANCH  13  15
ENDBRANCH  12  13
ENDBRANCH   1  12
TORSDOF 7
ENDMDL
MODEL 2
REMARK VINA RESULT:      -6.3      1.792      2.494
REMARK  Name = 
REMARK  10 active torsions:
REMARK  status: ('A' for Active; 'I' for Inactive)
REMARK    1  A    between atoms: C_1  and  C_2
REMARK    2  A    between atoms: C_2  and  N_3
REMARK    3  A    between atoms: N_3  and  C_4
REMARK    4  A    between atoms: N_3  and  C_6
REMARK    5  A    between atoms: C_4  and  C_5
REMARK    6  A    between atoms: C_6  and  C_7
REMARK    7  A    between atoms: C_7  and  O_9
REMARK    8  A    between atoms: O_9  and  C_10
REMARK    9  A    between atoms: C_13  and  N_14
REMARK   10  A    between atoms: C_15  and  C_16
REMARK                            x       y       z     vdW  Elec       q    Type
REMARK                         _______ _______ _______ _____ _____    ______ ____
ROOT
ATOM      1  C   UNL     1      10.283  -0.394  22.734  0.00  0.00    +0.132 A 
ATOM      2  C   UNL     1      10.559   0.120  23.998  0.00  0.00    +0.048 A 
ATOM      3  C   UNL     1      10.429   1.503  24.217  0.00  0.00    +0.027 A 
ATOM      4  C   UNL     1      10.022   2.356  23.175  0.00  0.00    +0.034 A 
ATOM      5  C   UNL     1       9.690   1.803  21.943  0.00  0.00    +0.027 A 
ATOM      6  C   UNL     1       9.797   0.437  21.729  0.00  0.00    +0.048 A 
ENDROOT
BRANCH   4   7
ATOM      7  N   UNL     1       9.999   3.753  23.402  0.00  0.00    -0.286 N 
ATOM      8  H   UNL     1       9.089   4.181  23.503  0.00  0.00    +0.155 HD
ATOM      9  C   UNL     1      11.111   4.574  23.512  0.00  0.00    +0.214 C 
ATOM     10  O   UNL     1      12.275   4.283  23.256  0.00  0.00    -0.276 OA
ATOM     11  C   UNL     1      10.782   5.965  23.985  0.00  0.00    +0.109 C 
ENDBRANCH   4   7
BRANCH   1  12
ATOM     12  O   UNL     1      10.413  -1.765  22.484  0.00  0.00    -0.425 OA
BRANCH  12  13
ATOM     13  C   UNL     1       9.581  -2.554  23.284  0.00  0.00    +0.327 C 
ATOM     14  O   UNL     1       9.942  -3.309  24.184  0.00  0.00    -0.249 OA
BRANCH  13  15
ATOM     15  C   UNL     1       8.127  -2.400  22.861  0.00  0.00    +0.206 C 
BRANCH  15  16
ATOM     16  N   UNL     1       7.188  -2.402  24.015  0.00  0.00    -0.293 NA
BRANCH  16  18
ATOM     17  C   UNL     1       6.702   0.062  23.776  0.00  0.00    +0.020 C 
ATOM     18  C   UNL     1       7.130  -1.089  24.687  0.00  0.00    +0.081 C 
ENDBRANCH  16  18
BRANCH  16  19
ATOM     19  C   UNL     1       5.866  -2.908  23.606  0.00  0.00    +0.081 C 
ATOM     20  C   UNL     1       5.660  -3.119  22.108  0.00  0.00    +0.020 C 
ENDBRANCH  16  19
ENDBRANCH  15  16
ENDBRANCH  13  15
ENDBRANCH  12  13
ENDBRANCH   1  12
TORSDOF 7
ENDMDL
MODEL 3
REMARK VINA RESULT:      -6.3      1.770      2.543
REMARK  Name = 
REMARK  10 active torsions:
REMARK  status: ('A' for Active; 'I' for Inactive)
REMARK    1  A    between atoms: C_1  and  C_2
REMARK    2  A    between atoms: C_2  and  N_3
REMARK    3  A    between atoms: N_3  and  C_4
REMARK    4  A    between atoms: N_3  and  C_6
REMARK    5  A    between atoms: C_4  and  C_5
REMARK    6  A    between atoms: C_6  and  C_7
REMARK    7  A    between atoms: C_7  and  O_9
REMARK    8  A    between atoms: O_9  and  C_10
REMARK    9  A    between atoms: C_13  and  N_14
REMARK   10  A    between atoms: C_15  and  C_16
REMARK                            x       y       z     vdW  Elec       q    Type
REMARK                         _______ _______ _______ _____ _____    ______ ____
ROOT
ATOM      1  C   UNL     1      10.064  -0.523  22.531  0.00  0.00    +0.132 A 
ATOM      2  C   UNL     1      10.613  -0.073  23.729  0.00  0.00    +0.048 A 
ATOM      3  C   UNL     1      10.717   1.312  23.956  0.00  0.00    +0.027 A 
ATOM      4  C   UNL     1      10.268   2.230  22.989  0.00  0.00    +0.034 A 
ATOM      5  C   UNL     1       9.665   1.749  21.832  0.00  0.00    +0.027 A 
ATOM      6  C   UNL     1       9.543   0.385  21.613  0.00  0.00    +0.048 A 
ENDROOT
BRANCH   4   7
ATOM      7  N   UNL     1      10.480   3.612  23.207  0.00  0.00    -0.286 N 
ATOM      8  H   UNL     1      11.287   4.024  22.758  0.00  0.00    +0.155 HD
ATOM      9  C   UNL     1       9.672   4.446  23.965  0.00  0.00    +0.214 C 
ATOM     10  O   UNL     1       8.760   4.112  24.715  0.00  0.00    -0.276 OA
ATOM     11  C   UNL     1      10.017   5.904  23.822  0.00  0.00    +0.109 C 
ENDBRANCH   4   7
BRANCH   1  12
ATOM     12  O   UNL     1       9.958  -1.894  22.273  0.00  0.00    -0.425 OA
BRANCH  12  13
ATOM     13  C   UNL     1       9.463  -2.624  23.357  0.00  0.00    +0.327 C 
ATOM     14  O   UNL     1      10.125  -3.300  24.140  0.00  0.00    -0.249 OA
BRANCH  13  15
ATOM     15  C   UNL     1       7.946  -2.518  23.426  0.00  0.00    +0.206 C 
BRANCH  15  16
ATOM     16  N   UNL     1       7.261  -3.404  22.448  0.00  0.00    -0.293 NA
BRANCH  16  18
ATOM     17  C   UNL     1       7.070  -5.780  21.620  0.00  0.00    +0.020 C 
ATOM     18  C   UNL     1       7.465  -4.833  22.754  0.00  0.00    +0.081 C 
ENDBRANCH  16  18
BRANCH  16  19
ATOM     19  C   UNL     1       5.842  -3.032  22.317  0.00  0.00    +0.081 C 
ATOM     20  C   UNL     1       4.945  -3.370  23.506  0.00  0.00    +0.020 C 
ENDBRANCH  16  19
ENDBRANCH  15  16
ENDBRANCH  13  15
ENDBRANCH  12  13
ENDBRANCH   1  12
TORSDOF 7
ENDMDL
MODEL 4
REMARK VINA RESULT:      -6.1      1.259      2.003
REMARK  Name = 
REMARK  10 active torsions:
REMARK  status: ('A' for Active; 'I' for Inactive)
REMARK    1  A    between atoms: C_1  and  C_2
REMARK    2  A    between atoms: C_2  and  N_3
REMARK    3  A    between atoms: N_3  and  C_4
REMARK    4  A    between atoms: N_3  and  C_6
REMARK    5  A    between atoms: C_4  and  C_5
REMARK    6  A    between atoms: C_6  and  C_7
REMARK    7  A    between atoms: C_7  and  O_9
REMARK    8  A    between atoms: O_9  and  C_10
REMARK    9  A    between atoms: C_13  and  N_14
REMARK   10  A    between atoms: C_15  and  C_16
REMARK                            x       y       z     vdW  Elec       q    Type
REMARK                         _______ _______ _______ _____ _____    ______ ____
ROOT
ATOM      1  C   UNL     1      10.198  -0.455  22.833  0.00  0.00    +0.132 A 
ATOM      2  C   UNL     1       9.783   0.353  21.777  0.00  0.00    +0.048 A 
ATOM      3  C   UNL     1       9.795   1.750  21.940  0.00  0.00    +0.027 A 
ATOM      4  C   UNL     1      10.225   2.325  23.150  0.00  0.00    +0.034 A 
ATOM      5  C   UNL     1      10.696   1.493  24.161  0.00  0.00    +0.027 A 
ATOM      6  C   UNL     1      10.704   0.116  23.997  0.00  0.00    +0.048 A 
ENDROOT
BRANCH   4   7
ATOM      7  N   UNL     1      10.130   3.727  23.315  0.00  0.00    -0.286 N 
ATOM      8  H   UNL     1       9.199   4.122  23.314  0.00  0.00    +0.155 HD
ATOM      9  C   UNL     1      11.196   4.596  23.492  0.00  0.00    +0.214 C 
ATOM     10  O   UNL     1      12.389   4.344  23.356  0.00  0.00    -0.276 OA
ATOM     11  C   UNL     1      10.773   5.990  23.873  0.00  0.00    +0.109 C 
ENDBRANCH   4   7
BRANCH   1  12
ATOM     12  O   UNL     1      10.186  -1.848  22.703  0.00  0.00    -0.425 OA
BRANCH  12  13
ATOM     13  C   UNL     1       8.970  -2.428  23.074  0.00  0.00    +0.327 C 
ATOM     14  O   UNL     1       7.945  -2.461  22.398  0.00  0.00    -0.249 OA
BRANCH  13  15
ATOM     15  C   UNL     1       9.054  -2.992  24.486  0.00  0.00    +0.206 C 
BRANCH  15  16
ATOM     16  N   UNL     1       7.821  -2.742  25.280  0.00  0.00    -0.293 NA
BRANCH  16  18
ATOM     17  C   UNL     1       8.804  -4.724  26.493  0.00  0.00    +0.020 C 
ATOM     18  C   UNL     1       7.665  -3.709  26.384  0.00  0.00    +0.081 C 
ENDBRANCH  16  18
BRANCH  16  19
ATOM     19  C   UNL     1       7.763  -1.338  25.720  0.00  0.00    +0.081 C 
ATOM     20  C   UNL     1       8.730  -0.942  26.835  0.00  0.00    +0.020 C 
ENDBRANCH  16  19
ENDBRANCH  15  16
ENDBRANCH  13  15
ENDBRANCH  12  13
ENDBRANCH   1  12
TORSDOF 7
ENDMDL
MODEL 5
REMARK VINA RESULT:      -5.9      1.230      2.288
REMARK  Name = 
REMARK  10 active torsions:
REMARK  status: ('A' for Active; 'I' for Inactive)
REMARK    1  A    between atoms: C_1  and  C_2
REMARK    2  A    between atoms: C_2  and  N_3
REMARK    3  A    between atoms: N_3  and  C_4
REMARK    4  A    between atoms: N_3  and  C_6
REMARK    5  A    between atoms: C_4  and  C_5
REMARK    6  A    between atoms: C_6  and  C_7
REMARK    7  A    between atoms: C_7  and  O_9
REMARK    8  A    between atoms: O_9  and  C_10
REMARK    9  A    between atoms: C_13  and  N_14
REMARK   10  A    between atoms: C_15  and  C_16
REMARK                            x       y       z     vdW  Elec       q    Type
REMARK                         _______ _______ _______ _____ _____    ______ ____
ROOT
ATOM      1  C   UNL     1       9.807  -0.544  22.670  0.00  0.00    +0.132 A 
ATOM      2  C   UNL     1      10.274  -0.132  23.916  0.00  0.00    +0.048 A 
ATOM      3  C   UNL     1      10.572   1.227  24.118  0.00  0.00    +0.027 A 
ATOM      4  C   UNL     1      10.397   2.160  23.080  0.00  0.00    +0.034 A 
ATOM      5  C   UNL     1       9.866   1.727  21.869  0.00  0.00    +0.027 A 
ATOM      6  C   UNL     1       9.552   0.392  21.671  0.00  0.00    +0.048 A 
ENDROOT
BRANCH   4   7
ATOM      7  N   UNL     1      10.801   3.500  23.287  0.00  0.00    -0.286 N 
ATOM      8  H   UNL     1      11.738   3.742  22.992  0.00  0.00    +0.155 HD
ATOM      9  C   UNL     1      10.022   4.505  23.840  0.00  0.00    +0.214 C 
ATOM     10  O   UNL     1       8.940   4.378  24.406  0.00  0.00    -0.276 OA
ATOM     11  C   UNL     1      10.637   5.874  23.717  0.00  0.00    +0.109 C 
ENDBRANCH   4   7
BRANCH   1  12
ATOM     12  O   UNL     1       9.512  -1.892  22.436  0.00  0.00    -0.425 OA
BRANCH  12  13
ATOM     13  C   UNL     1       8.262  -2.278  22.927  0.00  0.00    +0.327 C 
ATOM     14  O   UNL     1       7.239  -1.596  22.927  0.00  0.00    -0.249 OA
BRANCH  13  15
ATOM     15  C   UNL     1       8.330  -3.674  23.530  0.00  0.00    +0.206 C 
BRANCH  15  16
ATOM     16  N   UNL     1       7.022  -4.134  24.067  0.00  0.00    -0.293 NA
BRANCH  16  18
ATOM     17  C   UNL     1       7.264  -5.807  22.194  0.00  0.00    +0.020 C 
ATOM     18  C   UNL     1       6.330  -5.049  23.138  0.00  0.00    +0.081 C 
ENDBRANCH  16  18
BRANCH  16  19
ATOM     19  C   UNL     1       7.186  -4.691  25.421  0.00  0.00    +0.081 C 
ATOM     20  C   UNL     1       8.573  -5.231  25.765  0.00  0.00    +0.020 C 
ENDBRANCH  16  19
ENDBRANCH  15  16
ENDBRANCH  13  15
ENDBRANCH  12  13
ENDBRANCH   1  12
TORSDOF 7
ENDMDL
MODEL 6
REMARK VINA RESULT:      -5.5      2.105      3.045
REMARK  Name = 
REMARK  10 active torsions:
REMARK  status: ('A' for Active; 'I' for Inactive)
REMARK    1  A    between atoms: C_1  and  C_2
REMARK    2  A    between atoms: C_2  and  N_3
REMARK    3  A    between atoms: N_3  and  C_4
REMARK    4  A    between atoms: N_3  and  C_6
REMARK    5  A    between atoms: C_4  and  C_5
REMARK    6  A    between atoms: C_6  and  C_7
REMARK    7  A    between atoms: C_7  and  O_9
REMARK    8  A    between atoms: O_9  and  C_10
REMARK    9  A    between atoms: C_13  and  N_14
REMARK   10  A    between atoms: C_15  and  C_16
REMARK                            x       y       z     vdW  Elec       q    Type
REMARK                         _______ _______ _______ _____ _____    ______ ____
ROOT
ATOM      1  C   UNL     1      10.112  -0.489  22.902  0.00  0.00    +0.132 A 
ATOM      2  C   UNL     1       9.708   0.293  21.823  0.00  0.00    +0.048 A 
ATOM      3  C   UNL     1       9.817   1.692  21.914  0.00  0.00    +0.027 A 
ATOM      4  C   UNL     1      10.332   2.295  23.076  0.00  0.00    +0.034 A 
ATOM      5  C   UNL     1      10.788   1.483  24.110  0.00  0.00    +0.027 A 
ATOM      6  C   UNL     1      10.701   0.103  24.016  0.00  0.00    +0.048 A 
ENDROOT
BRANCH   4   7
ATOM      7  N   UNL     1      10.334   3.706  23.173  0.00  0.00    -0.286 N 
ATOM      8  H   UNL     1      11.056   4.195  22.661  0.00  0.00    +0.155 HD
ATOM      9  C   UNL     1       9.428   4.471  23.892  0.00  0.00    +0.214 C 
ATOM     10  O   UNL     1       8.598   4.069  24.702  0.00  0.00    -0.276 OA
ATOM     11  C   UNL     1       9.541   5.946  23.618  0.00  0.00    +0.109 C 
ENDBRANCH   4   7
BRANCH   1  12
ATOM     12  O   UNL     1      10.005  -1.883  22.844  0.00  0.00    -0.425 OA
BRANCH  12  13
ATOM     13  C   UNL     1       8.683  -2.337  22.845  0.00  0.00    +0.327 C 
ATOM     14  O   UNL     1       7.961  -2.473  21.860  0.00  0.00    -0.249 OA
BRANCH  13  15
ATOM     15  C   UNL     1       8.211  -2.608  24.266  0.00  0.00    +0.206 C 
BRANCH  15  16
ATOM     16  N   UNL     1       7.847  -1.365  24.998  0.00  0.00    -0.293 NA
BRANCH  16  18
ATOM     17  C   UNL     1       6.590   0.527  23.899  0.00  0.00    +0.020 C 
ATOM     18  C   UNL     1       6.531  -0.840  24.582  0.00  0.00    +0.081 C 
ENDBRANCH  16  18
BRANCH  16  19
ATOM     19  C   UNL     1       7.961  -1.569  26.453  0.00  0.00    +0.081 C 
ATOM     20  C   UNL     1       7.943  -0.306  27.313  0.00  0.00    +0.020 C 
ENDBRANCH  16  19
ENDBRANCH  15  16
ENDBRANCH  13  15
ENDBRANCH  12  13
ENDBRANCH   1  12
TORSDOF 7
ENDMDL
MODEL 7
REMARK VINA RESULT:      -5.4      2.146      2.830
REMARK  Name = 
REMARK  10 active torsions:
REMARK  status: ('A' for Active; 'I' for Inactive)
REMARK    1  A    between atoms: C_1  and  C_2
REMARK    2  A    between atoms: C_2  and  N_3
REMARK    3  A    between atoms: N_3  and  C_4
REMARK    4  A    between atoms: N_3  and  C_6
REMARK    5  A    between atoms: C_4  and  C_5
REMARK    6  A    between atoms: C_6  and  C_7
REMARK    7  A    between atoms: C_7  and  O_9
REMARK    8  A    between atoms: O_9  and  C_10
REMARK    9  A    between atoms: C_13  and  N_14
REMARK   10  A    between atoms: C_15  and  C_16
REMARK                            x       y       z     vdW  Elec       q    Type
REMARK                         _______ _______ _______ _____ _____    ______ ____
ROOT
ATOM      1  C   UNL     1       9.823   0.046  24.435  0.00  0.00    +0.132 A 
ATOM      2  C   UNL     1      10.750   0.968  23.955  0.00  0.00    +0.048 A 
ATOM      3  C   UNL     1      10.380   2.321  23.856  0.00  0.00    +0.027 A 
ATOM      4  C   UNL     1       9.093   2.740  24.241  0.00  0.00    +0.034 A 
ATOM      5  C   UNL     1       8.214   1.806  24.779  0.00  0.00    +0.027 A 
ATOM      6  C   UNL     1       8.581   0.474  24.896  0.00  0.00    +0.048 A 
ENDROOT
BRANCH   4   7
ATOM      7  N   UNL     1       8.721   4.089  24.034  0.00  0.00    -0.286 N 
ATOM      8  H   UNL     1       9.014   4.753  24.739  0.00  0.00    +0.155 HD
ATOM      9  C   UNL     1       8.009   4.577  22.949  0.00  0.00    +0.214 C 
ATOM     10  O   UNL     1       7.427   3.921  22.090  0.00  0.00    -0.276 OA
ATOM     11  C   UNL     1       7.968   6.080  22.888  0.00  0.00    +0.109 C 
ENDBRANCH   4   7
BRANCH   1  12
ATOM     12  O   UNL     1      10.160  -1.309  24.535  0.00  0.00    -0.425 OA
BRANCH  12  13
ATOM     13  C   UNL     1       9.750  -2.063  23.432  0.00  0.00    +0.327 C 
ATOM     14  O   UNL     1      10.101  -1.895  22.266  0.00  0.00    -0.249 OA
BRANCH  13  15
ATOM     15  C   UNL     1       8.744  -3.125  23.853  0.00  0.00    +0.206 C 
BRANCH  15  16
ATOM     16  N   UNL     1       7.823  -3.514  22.751  0.00  0.00    -0.293 NA
BRANCH  16  18
ATOM     17  C   UNL     1       6.940  -5.553  21.556  0.00  0.00    +0.020 C 
ATOM     18  C   UNL     1       7.365  -4.912  22.878  0.00  0.00    +0.081 C 
ENDBRANCH  16  18
BRANCH  16  19
ATOM     19  C   UNL     1       6.718  -2.547  22.633  0.00  0.00    +0.081 C 
ATOM     20  C   UNL     1       5.753  -2.479  23.815  0.00  0.00    +0.020 C 
ENDBRANCH  16  19
ENDBRANCH  15  16
ENDBRANCH  13  15
ENDBRANCH  12  13
ENDBRANCH   1  12
TORSDOF 7
ENDMDL
MODEL 8
REMARK VINA RESULT:      -5.4      1.945      7.882
REMARK  Name = 
REMARK  10 active torsions:
REMARK  status: ('A' for Active; 'I' for Inactive)
REMARK    1  A    between atoms: C_1  and  C_2
REMARK    2  A    between atoms: C_2  and  N_3
REMARK    3  A    between atoms: N_3  and  C_4
REMARK    4  A    between atoms: N_3  and  C_6
REMARK    5  A    between atoms: C_4  and  C_5
REMARK    6  A    between atoms: C_6  and  C_7
REMARK    7  A    between atoms: C_7  and  O_9
REMARK    8  A    between atoms: O_9  and  C_10
REMARK    9  A    between atoms: C_13  and  N_14
REMARK   10  A    between atoms: C_15  and  C_16
REMARK                            x       y       z     vdW  Elec       q    Type
REMARK                         _______ _______ _______ _____ _____    ______ ____
ROOT
ATOM      1  C   UNL     1      10.022   1.269  23.026  0.00  0.00    +0.132 A 
ATOM      2  C   UNL     1      10.195   0.851  24.343  0.00  0.00    +0.048 A 
ATOM      3  C   UNL     1      10.165  -0.525  24.634  0.00  0.00    +0.027 A 
ATOM      4  C   UNL     1       9.968  -1.468  23.608  0.00  0.00    +0.034 A 
ATOM      5  C   UNL     1       9.865  -1.022  22.295  0.00  0.00    +0.027 A 
ATOM      6  C   UNL     1       9.914   0.332  22.001  0.00  0.00    +0.048 A 
ENDROOT
BRANCH   4   7
ATOM      7  N   UNL     1       9.843  -2.835  23.950  0.00  0.00    -0.286 N 
ATOM      8  H   UNL     1      10.702  -3.365  24.019  0.00  0.00    +0.155 HD
ATOM      9  C   UNL     1       8.655  -3.500  24.210  0.00  0.00    +0.214 C 
ATOM     10  O   UNL     1       7.516  -3.086  24.016  0.00  0.00    -0.276 OA
ATOM     11  C   UNL     1       8.854  -4.882  24.772  0.00  0.00    +0.109 C 
ENDBRANCH   4   7
BRANCH   1  12
ATOM     12  O   UNL     1      10.037   2.631  22.708  0.00  0.00    -0.425 OA
BRANCH  12  13
ATOM     13  C   UNL     1       8.956   3.336  23.245  0.00  0.00    +0.327 C 
ATOM     14  O   UNL     1       7.771   3.173  22.964  0.00  0.00    -0.249 OA
BRANCH  13  15
ATOM     15  C   UNL     1       9.441   4.401  24.219  0.00  0.00    +0.206 C 
BRANCH  15  16
ATOM     16  N   UNL     1       9.964   5.613  23.533  0.00  0.00    -0.293 NA
BRANCH  16  18
ATOM     17  C   UNL     1       8.134   6.723  24.870  0.00  0.00    +0.020 C 
ATOM     18  C   UNL     1       9.032   6.754  23.632  0.00  0.00    +0.081 C 
ENDBRANCH  16  18
BRANCH  16  19
ATOM     19  C   UNL     1      11.324   5.928  24.003  0.00  0.00    +0.081 C 
ATOM     20  C   UNL     1      12.469   5.256  23.248  0.00  0.00    +0.020 C 
ENDBRANCH  16  19
ENDBRANCH  15  16
ENDBRANCH  13  15
ENDBRANCH  12  13
ENDBRANCH   1  12
TORSDOF 7
ENDMDL
MODEL 9
REMARK VINA RESULT:      -5.4      2.182      7.493
REMARK  Name = 
REMARK  10 active torsions:
REMARK  status: ('A' for Active; 'I' for Inactive)
REMARK    1  A    between atoms: C_1  and  C_2
REMARK    2  A    between atoms: C_2  and  N_3
REMARK    3  A    between atoms: N_3  and  C_4
REMARK    4  A    between atoms: N_3  and  C_6
REMARK    5  A    between atoms: C_4  and  C_5
REMARK    6  A    between atoms: C_6  and  C_7
REMARK    7  A    between atoms: C_7  and  O_9
REMARK    8  A    between atoms: O_9  and  C_10
REMARK    9  A    between atoms: C_13  and  N_14
REMARK   10  A    between atoms: C_15  and  C_16
REMARK                            x       y       z     vdW  Elec       q    Type
REMARK                         _______ _______ _______ _____ _____    ______ ____
ROOT
ATOM      1  C   UNL     1       9.257  -2.449  23.662  0.00  0.00    +0.132 A 
ATOM      2  C   UNL     1       9.043  -3.599  24.418  0.00  0.00    +0.048 A 
ATOM      3  C   UNL     1       7.934  -4.414  24.125  0.00  0.00    +0.027 A 
ATOM      4  C   UNL     1       7.056  -4.076  23.079  0.00  0.00    +0.034 A 
ATOM      5  C   UNL     1       7.335  -2.957  22.301  0.00  0.00    +0.027 A 
ATOM      6  C   UNL     1       8.437  -2.163  22.574  0.00  0.00    +0.048 A 
ENDROOT
BRANCH   4   7
ATOM      7  N   UNL     1       5.897  -4.862  22.877  0.00  0.00    -0.286 N 
ATOM      8  H   UNL     1       6.005  -5.692  22.309  0.00  0.00    +0.155 HD
ATOM      9  C   UNL     1       4.639  -4.601  23.400  0.00  0.00    +0.214 C 
ATOM     10  O   UNL     1       4.269  -3.575  23.962  0.00  0.00    -0.276 OA
ATOM     11  C   UNL     1       3.666  -5.733  23.208  0.00  0.00    +0.109 C 
ENDBRANCH   4   7
BRANCH   1  12
ATOM     12  O   UNL     1      10.345  -1.615  23.937  0.00  0.00    -0.425 OA
BRANCH  12  13
ATOM     13  C   UNL     1       9.989  -0.449  24.621  0.00  0.00    +0.327 C 
ATOM     14  O   UNL     1       9.075  -0.334  25.435  0.00  0.00    -0.249 OA
BRANCH  13  15
ATOM     15  C   UNL     1      10.867   0.717  24.187  0.00  0.00    +0.206 C 
BRANCH  15  16
ATOM     16  N   UNL     1      10.120   1.744  23.415  0.00  0.00    -0.293 NA
BRANCH  16  18
ATOM     17  C   UNL     1       9.770   4.213  23.804  0.00  0.00    +0.020 C 
ATOM     18  C   UNL     1      10.750   3.076  23.507  0.00  0.00    +0.081 C 
ENDBRANCH  16  18
BRANCH  16  19
ATOM     19  C   UNL     1       9.905   1.295  22.028  0.00  0.00    +0.081 C 
ATOM     20  C   UNL     1       8.483   1.434  21.488  0.00  0.00    +0.020 C 
ENDBRANCH  16  19
ENDBRANCH  15  16
ENDBRANCH  13  15
ENDBRANCH  12  13
ENDBRANCH   1  12
TORSDOF 7
ENDMDL
