MODEL 1
REMARK VINA RESULT:      -7.6      0.000      0.000
REMARK  Name = 
REMARK  10 active torsions:
REMARK  status: ('A' for Active; 'I' for Inactive)
REMARK    1  A    between atoms: C_1  and  C_2
REMARK    2  A    between atoms: C_3  and  C_29
REMARK    3  A    between atoms: N_4  and  C_5
REMARK    4  A    between atoms: C_5  and  C_6
REMARK    5  A    between atoms: C_9  and  O_10
REMARK    6  A    between atoms: O_10  and  C_11
REMARK    7  A    between atoms: C_11  and  C_12
REMARK    8  A    between atoms: C_12  and  N_13
REMARK    9  A    between atoms: C_25  and  O_26
REMARK   10  A    between atoms: C_32  and  O_33
REMARK                            x       y       z     vdW  Elec       q    Type
REMARK                         _______ _______ _______ _____ _____    ______ ____
ROOT
ATOM      1  C   UNL     1       6.356  -5.392  21.986  0.00  0.00    +0.046 C 
ATOM      2  C   UNL     1       6.299  -5.033  23.437  0.00  0.00    -0.017 A 
ATOM      3  C   UNL     1       5.467  -5.748  24.353  0.00  0.00    +0.007 A 
ATOM      4  C   UNL     1       4.639  -6.889  24.223  0.00  0.00    +0.055 A 
ATOM      5  C   UNL     1       3.857  -7.283  25.307  0.00  0.00    +0.118 A 
ATOM      6  C   UNL     1       3.842  -6.561  26.486  0.00  0.00    +0.047 A 
ATOM      7  C   UNL     1       4.672  -5.447  26.642  0.00  0.00    +0.030 A 
ATOM      8  C   UNL     1       5.509  -5.082  25.571  0.00  0.00    +0.050 A 
ATOM      9  N   UNL     1       6.508  -4.125  25.464  0.00  0.00    -0.335 N 
ATOM     10  C   UNL     1       6.915  -3.985  24.130  0.00  0.00    +0.053 A 
ENDROOT
BRANCH  10  11
ATOM     11  C   UNL     1       7.846  -2.939  23.610  0.00  0.00    -0.001 A 
ATOM     12  C   UNL     1       7.351  -1.790  22.974  0.00  0.00    +0.013 A 
ATOM     13  C   UNL     1       8.194  -0.742  22.582  0.00  0.00    +0.046 A 
ATOM     14  C   UNL     1       9.563  -0.859  22.755  0.00  0.00    +0.117 A 
ATOM     15  C   UNL     1      10.095  -2.004  23.332  0.00  0.00    +0.046 A 
ATOM     16  C   UNL     1       9.237  -3.019  23.788  0.00  0.00    +0.013 A 
BRANCH  14  17
ATOM     17  O   UNL     1      10.349   0.174  22.348  0.00  0.00    -0.507 OA
ATOM     18  H   UNL     1      11.099  -0.180  21.841  0.00  0.00    +0.292 HD
ENDBRANCH  14  17
ENDBRANCH  10  11
BRANCH   5  19
ATOM     19  O   UNL     1       3.069  -8.396  25.234  0.00  0.00    -0.507 OA
ATOM     20  H   UNL     1       3.484  -9.022  24.619  0.00  0.00    +0.292 HD
ENDBRANCH   5  19
BRANCH   9  21
ATOM     21  C   UNL     1       7.058  -3.474  26.656  0.00  0.00    +0.157 C 
BRANCH  21  22
ATOM     22  C   UNL     1       7.010  -1.972  26.570  0.00  0.00    -0.028 A 
ATOM     23  C   UNL     1       8.150  -1.167  26.711  0.00  0.00    +0.009 A 
ATOM     24  C   UNL     1       8.083   0.212  26.451  0.00  0.00    +0.046 A 
ATOM     25  C   UNL     1       6.884   0.788  26.053  0.00  0.00    +0.121 A 
ATOM     26  C   UNL     1       5.725   0.001  26.048  0.00  0.00    +0.046 A 
ATOM     27  C   UNL     1       5.785  -1.361  26.308  0.00  0.00    +0.009 A 
BRANCH  25  28
ATOM     28  O   UNL     1       6.925   2.109  25.644  0.00  0.00    -0.491 OA
BRANCH  28  29
ATOM     29  C   UNL     1       8.225   2.478  25.168  0.00  0.00    +0.244 C 
BRANCH  29  30
ATOM     30  C   UNL     1       8.321   2.721  23.658  0.00  0.00    +0.125 C 
BRANCH  30  31
ATOM     31  N   UNL     1       9.264   3.837  23.350  0.00  0.00    -0.299 NA
ATOM     32  C   UNL     1      10.634   3.465  23.736  0.00  0.00    +0.084 C 
ATOM     33  C   UNL     1      11.693   4.345  23.065  0.00  0.00    +0.015 C 
ATOM     34  C   UNL     1      12.070   5.608  23.833  0.00  0.00    +0.001 C 
ATOM     35  C   UNL     1      10.929   6.358  24.500  0.00  0.00    +0.001 C 
ATOM     36  C   UNL     1       9.645   6.358  23.690  0.00  0.00    +0.015 C 
ATOM     37  C   UNL     1       8.795   5.108  23.925  0.00  0.00    +0.084 C 
ENDBRANCH  30  31
ENDBRANCH  29  30
ENDBRANCH  28  29
ENDBRANCH  25  28
ENDBRANCH  21  22
ENDBRANCH   9  21
TORSDOF 9
ENDMDL
MODEL 2
REMARK VINA RESULT:      -7.5      2.551      9.013
REMARK  Name = 
REMARK  10 active torsions:
REMARK  status: ('A' for Active; 'I' for Inactive)
REMARK    1  A    between atoms: C_1  and  C_2
REMARK    2  A    between atoms: C_3  and  C_29
REMARK    3  A    between atoms: N_4  and  C_5
REMARK    4  A    between atoms: C_5  and  C_6
REMARK    5  A    between atoms: C_9  and  O_10
REMARK    6  A    between atoms: O_10  and  C_11
REMARK    7  A    between atoms: C_11  and  C_12
REMARK    8  A    between atoms: C_12  and  N_13
REMARK    9  A    between atoms: C_25  and  O_26
REMARK   10  A    between atoms: C_32  and  O_33
REMARK                            x       y       z     vdW  Elec       q    Type
REMARK                         _______ _______ _______ _____ _____    ______ ____
ROOT
ATOM      1  C   UNL     1       8.758  -0.040  26.978  0.00  0.00    +0.046 C 
ATOM      2  C   UNL     1       8.898  -0.552  25.580  0.00  0.00    -0.017 A 
ATOM      3  C   UNL     1       9.386   0.279  24.524  0.00  0.00    +0.007 A 
ATOM      4  C   UNL     1       9.891   1.601  24.484  0.00  0.00    +0.055 A 
ATOM      5  C   UNL     1      10.191   2.172  23.250  0.00  0.00    +0.118 A 
ATOM      6  C   UNL     1       9.967   1.493  22.067  0.00  0.00    +0.047 A 
ATOM      7  C   UNL     1       9.494   0.178  22.086  0.00  0.00    +0.030 A 
ATOM      8  C   UNL     1       9.247  -0.425  23.334  0.00  0.00    +0.050 A 
ATOM      9  N   UNL     1       8.898  -1.723  23.681  0.00  0.00    -0.335 N 
ATOM     10  C   UNL     1       8.550  -1.794  25.036  0.00  0.00    +0.053 A 
ENDROOT
BRANCH  10  11
ATOM     11  C   UNL     1       7.964  -2.984  25.723  0.00  0.00    -0.001 A 
ATOM     12  C   UNL     1       6.579  -3.085  25.926  0.00  0.00    +0.013 A 
ATOM     13  C   UNL     1       5.994  -4.240  26.461  0.00  0.00    +0.046 A 
ATOM     14  C   UNL     1       6.797  -5.292  26.872  0.00  0.00    +0.117 A 
ATOM     15  C   UNL     1       8.177  -5.206  26.735  0.00  0.00    +0.046 A 
ATOM     16  C   UNL     1       8.749  -4.074  26.132  0.00  0.00    +0.013 A 
BRANCH  14  17
ATOM     17  O   UNL     1       6.192  -6.390  27.399  0.00  0.00    -0.507 OA
ATOM     18  H   UNL     1       5.230  -6.258  27.384  0.00  0.00    +0.292 HD
ENDBRANCH  14  17
ENDBRANCH  10  11
BRANCH   5  19
ATOM     19  O   UNL     1      10.711   3.433  23.169  0.00  0.00    -0.507 OA
ATOM     20  H   UNL     1      11.550   3.384  22.683  0.00  0.00    +0.292 HD
ENDBRANCH   5  19
BRANCH   9  21
ATOM     21  C   UNL     1       9.003  -2.815  22.710  0.00  0.00    +0.157 C 
BRANCH  21  22
ATOM     22  C   UNL     1       7.709  -3.562  22.537  0.00  0.00    -0.028 A 
ATOM     23  C   UNL     1       7.607  -4.952  22.702  0.00  0.00    +0.009 A 
ATOM     24  C   UNL     1       6.349  -5.578  22.701  0.00  0.00    +0.046 A 
ATOM     25  C   UNL     1       5.196  -4.822  22.534  0.00  0.00    +0.121 A 
ATOM     26  C   UNL     1       5.319  -3.459  22.234  0.00  0.00    +0.046 A 
ATOM     27  C   UNL     1       6.559  -2.837  22.230  0.00  0.00    +0.009 A 
BRANCH  25  28
ATOM     28  O   UNL     1       3.987  -5.469  22.718  0.00  0.00    -0.491 OA
BRANCH  28  29
ATOM     29  C   UNL     1       3.985  -6.263  23.912  0.00  0.00    +0.244 C 
BRANCH  29  30
ATOM     30  C   UNL     1       2.606  -6.754  24.364  0.00  0.00    +0.125 C 
BRANCH  30  31
ATOM     31  N   UNL     1       2.183  -6.085  25.630  0.00  0.00    -0.299 NA
ATOM     32  C   UNL     1       2.472  -4.644  25.564  0.00  0.00    +0.084 C 
ATOM     33  C   UNL     1       1.688  -3.839  26.604  0.00  0.00    +0.015 C 
ATOM     34  C   UNL     1       2.378  -3.677  27.955  0.00  0.00    +0.001 C 
ATOM     35  C   UNL     1       3.105  -4.898  28.492  0.00  0.00    +0.001 C 
ATOM     36  C   UNL     1       2.399  -6.209  28.190  0.00  0.00    +0.015 C 
ATOM     37  C   UNL     1       2.746  -6.765  26.808  0.00  0.00    +0.084 C 
ENDBRANCH  30  31
ENDBRANCH  29  30
ENDBRANCH  28  29
ENDBRANCH  25  28
ENDBRANCH  21  22
ENDBRANCH   9  21
TORSDOF 9
ENDMDL
MODEL 3
REMARK VINA RESULT:      -7.4      1.463      1.984
REMARK  Name = 
REMARK  10 active torsions:
REMARK  status: ('A' for Active; 'I' for Inactive)
REMARK    1  A    between atoms: C_1  and  C_2
REMARK    2  A    between atoms: C_3  and  C_29
REMARK    3  A    between atoms: N_4  and  C_5
REMARK    4  A    between atoms: C_5  and  C_6
REMARK    5  A    between atoms: C_9  and  O_10
REMARK    6  A    between atoms: O_10  and  C_11
REMARK    7  A    between atoms: C_11  and  C_12
REMARK    8  A    between atoms: C_12  and  N_13
REMARK    9  A    between atoms: C_25  and  O_26
REMARK   10  A    between atoms: C_32  and  O_33
REMARK                            x       y       z     vdW  Elec       q    Type
REMARK                         _______ _______ _______ _____ _____    ______ ____
ROOT
ATOM      1  C   UNL     1       5.997  -3.766  21.140  0.00  0.00    +0.046 C 
ATOM      2  C   UNL     1       6.384  -3.856  22.581  0.00  0.00    -0.017 A 
ATOM      3  C   UNL     1       5.871  -4.884  23.432  0.00  0.00    +0.007 A 
ATOM      4  C   UNL     1       5.043  -6.009  23.202  0.00  0.00    +0.055 A 
ATOM      5  C   UNL     1       4.629  -6.775  24.289  0.00  0.00    +0.118 A 
ATOM      6  C   UNL     1       4.973  -6.436  25.584  0.00  0.00    +0.047 A 
ATOM      7  C   UNL     1       5.812  -5.345  25.829  0.00  0.00    +0.030 A 
ATOM      8  C   UNL     1       6.282  -4.604  24.729  0.00  0.00    +0.050 A 
ATOM      9  N   UNL     1       7.201  -3.568  24.637  0.00  0.00    -0.335 N 
ATOM     10  C   UNL     1       7.182  -3.005  23.354  0.00  0.00    +0.053 A 
ENDROOT
BRANCH  10  11
ATOM     11  C   UNL     1       7.910  -1.769  22.935  0.00  0.00    -0.001 A 
ATOM     12  C   UNL     1       9.157  -1.853  22.296  0.00  0.00    +0.013 A 
ATOM     13  C   UNL     1       9.804  -0.719  21.790  0.00  0.00    +0.046 A 
ATOM     14  C   UNL     1       9.246   0.535  21.979  0.00  0.00    +0.117 A 
ATOM     15  C   UNL     1       8.038   0.663  22.653  0.00  0.00    +0.046 A 
ATOM     16  C   UNL     1       7.361  -0.487  23.094  0.00  0.00    +0.013 A 
BRANCH  14  17
ATOM     17  O   UNL     1       9.912   1.613  21.485  0.00  0.00    -0.507 OA
ATOM     18  H   UNL     1      10.800   1.334  21.205  0.00  0.00    +0.292 HD
ENDBRANCH  14  17
ENDBRANCH  10  11
BRANCH   5  19
ATOM     19  O   UNL     1       3.856  -7.887  24.109  0.00  0.00    -0.507 OA
ATOM     20  H   UNL     1       3.949  -8.451  24.894  0.00  0.00    +0.292 HD
ENDBRANCH   5  19
BRANCH   9  21
ATOM     21  C   UNL     1       8.088  -3.246  25.759  0.00  0.00    +0.157 C 
BRANCH  21  22
ATOM     22  C   UNL     1       7.728  -1.947  26.427  0.00  0.00    -0.028 A 
ATOM     23  C   UNL     1       8.678  -0.957  26.723  0.00  0.00    +0.009 A 
ATOM     24  C   UNL     1       8.270   0.303  27.187  0.00  0.00    +0.046 A 
ATOM     25  C   UNL     1       6.919   0.579  27.358  0.00  0.00    +0.121 A 
ATOM     26  C   UNL     1       5.992  -0.458  27.190  0.00  0.00    +0.046 A 
ATOM     27  C   UNL     1       6.390  -1.707  26.736  0.00  0.00    +0.009 A 
BRANCH  25  28
ATOM     28  O   UNL     1       6.575   1.887  27.646  0.00  0.00    -0.491 OA
BRANCH  28  29
ATOM     29  C   UNL     1       7.193   2.812  26.743  0.00  0.00    +0.244 C 
BRANCH  29  30
ATOM     30  C   UNL     1       6.479   2.986  25.399  0.00  0.00    +0.125 C 
BRANCH  30  31
ATOM     31  N   UNL     1       7.352   3.684  24.410  0.00  0.00    -0.299 NA
ATOM     32  C   UNL     1       8.257   4.617  25.100  0.00  0.00    +0.084 C 
ATOM     33  C   UNL     1       9.451   5.027  24.234  0.00  0.00    +0.015 C 
ATOM     34  C   UNL     1       9.227   6.258  23.360  0.00  0.00    +0.001 C 
ATOM     35  C   UNL     1       7.869   6.372  22.690  0.00  0.00    +0.001 C 
ATOM     36  C   UNL     1       7.306   5.040  22.225  0.00  0.00    +0.015 C 
ATOM     37  C   UNL     1       6.558   4.294  23.330  0.00  0.00    +0.084 C 
ENDBRANCH  30  31
ENDBRANCH  29  30
ENDBRANCH  28  29
ENDBRANCH  25  28
ENDBRANCH  21  22
ENDBRANCH   9  21
TORSDOF 9
ENDMDL
MODEL 4
REMARK VINA RESULT:      -7.2      2.309      9.104
REMARK  Name = 
REMARK  10 active torsions:
REMARK  status: ('A' for Active; 'I' for Inactive)
REMARK    1  A    between atoms: C_1  and  C_2
REMARK    2  A    between atoms: C_3  and  C_29
REMARK    3  A    between atoms: N_4  and  C_5
REMARK    4  A    between atoms: C_5  and  C_6
REMARK    5  A    between atoms: C_9  and  O_10
REMARK    6  A    between atoms: O_10  and  C_11
REMARK    7  A    between atoms: C_11  and  C_12
REMARK    8  A    between atoms: C_12  and  N_13
REMARK    9  A    between atoms: C_25  and  O_26
REMARK   10  A    between atoms: C_32  and  O_33
REMARK                            x       y       z     vdW  Elec       q    Type
REMARK                         _______ _______ _______ _____ _____    ______ ____
ROOT
ATOM      1  C   UNL     1       9.715  -1.167  21.255  0.00  0.00    +0.046 C 
ATOM      2  C   UNL     1       8.833  -0.622  22.333  0.00  0.00    -0.017 A 
ATOM      3  C   UNL     1       9.046   0.677  22.890  0.00  0.00    +0.007 A 
ATOM      4  C   UNL     1       9.950   1.724  22.590  0.00  0.00    +0.055 A 
ATOM      5  C   UNL     1       9.974   2.852  23.408  0.00  0.00    +0.118 A 
ATOM      6  C   UNL     1       9.165   2.949  24.525  0.00  0.00    +0.047 A 
ATOM      7  C   UNL     1       8.247   1.938  24.822  0.00  0.00    +0.030 A 
ATOM      8  C   UNL     1       8.178   0.825  23.964  0.00  0.00    +0.050 A 
ATOM      9  N   UNL     1       7.310  -0.258  23.922  0.00  0.00    -0.335 N 
ATOM     10  C   UNL     1       7.770  -1.223  23.017  0.00  0.00    +0.053 A 
ENDROOT
BRANCH  10  11
ATOM     11  C   UNL     1       7.191  -2.587  22.830  0.00  0.00    -0.001 A 
ATOM     12  C   UNL     1       7.862  -3.723  23.309  0.00  0.00    +0.013 A 
ATOM     13  C   UNL     1       7.286  -4.999  23.251  0.00  0.00    +0.046 A 
ATOM     14  C   UNL     1       6.053  -5.172  22.643  0.00  0.00    +0.117 A 
ATOM     15  C   UNL     1       5.383  -4.078  22.110  0.00  0.00    +0.046 A 
ATOM     16  C   UNL     1       5.935  -2.793  22.237  0.00  0.00    +0.013 A 
BRANCH  14  17
ATOM     17  O   UNL     1       5.535  -6.428  22.594  0.00  0.00    -0.507 OA
ATOM     18  H   UNL     1       6.259  -7.072  22.670  0.00  0.00    +0.292 HD
ENDBRANCH  14  17
ENDBRANCH  10  11
BRANCH   5  19
ATOM     19  O   UNL     1      10.808   3.898  23.135  0.00  0.00    -0.507 OA
ATOM     20  H   UNL     1      10.493   4.334  22.327  0.00  0.00    +0.292 HD
ENDBRANCH   5  19
BRANCH   9  21
ATOM     21  C   UNL     1       6.061  -0.251  24.689  0.00  0.00    +0.157 C 
BRANCH  21  22
ATOM     22  C   UNL     1       5.874  -1.505  25.500  0.00  0.00    -0.028 A 
ATOM     23  C   UNL     1       4.672  -2.230  25.510  0.00  0.00    +0.009 A 
ATOM     24  C   UNL     1       4.603  -3.482  26.142  0.00  0.00    +0.046 A 
ATOM     25  C   UNL     1       5.726  -4.012  26.764  0.00  0.00    +0.121 A 
ATOM     26  C   UNL     1       6.878  -3.221  26.865  0.00  0.00    +0.046 A 
ATOM     27  C   UNL     1       6.951  -1.982  26.246  0.00  0.00    +0.009 A 
BRANCH  25  28
ATOM     28  O   UNL     1       5.641  -5.317  27.212  0.00  0.00    -0.491 OA
BRANCH  28  29
ATOM     29  C   UNL     1       5.383  -6.232  26.139  0.00  0.00    +0.244 C 
BRANCH  29  30
ATOM     30  C   UNL     1       4.041  -6.967  26.219  0.00  0.00    +0.125 C 
BRANCH  30  31
ATOM     31  N   UNL     1       3.329  -6.936  24.907  0.00  0.00    -0.299 NA
ATOM     32  C   UNL     1       2.616  -5.660  24.746  0.00  0.00    +0.084 C 
ATOM     33  C   UNL     1       2.243  -5.374  23.289  0.00  0.00    +0.015 C 
ATOM     34  C   UNL     1       0.888  -5.918  22.847  0.00  0.00    +0.001 C 
ATOM     35  C   UNL     1       0.518  -7.302  23.353  0.00  0.00    +0.001 C 
ATOM     36  C   UNL     1       1.696  -8.258  23.424  0.00  0.00    +0.015 C 
ATOM     37  C   UNL     1       2.487  -8.130  24.727  0.00  0.00    +0.084 C 
ENDBRANCH  30  31
ENDBRANCH  29  30
ENDBRANCH  28  29
ENDBRANCH  25  28
ENDBRANCH  21  22
ENDBRANCH   9  21
TORSDOF 9
ENDMDL
MODEL 5
REMARK VINA RESULT:      -7.1      2.284      5.789
REMARK  Name = 
REMARK  10 active torsions:
REMARK  status: ('A' for Active; 'I' for Inactive)
REMARK    1  A    between atoms: C_1  and  C_2
REMARK    2  A    between atoms: C_3  and  C_29
REMARK    3  A    between atoms: N_4  and  C_5
REMARK    4  A    between atoms: C_5  and  C_6
REMARK    5  A    between atoms: C_9  and  O_10
REMARK    6  A    between atoms: O_10  and  C_11
REMARK    7  A    between atoms: C_11  and  C_12
REMARK    8  A    between atoms: C_12  and  N_13
REMARK    9  A    between atoms: C_25  and  O_26
REMARK   10  A    between atoms: C_32  and  O_33
REMARK                            x       y       z     vdW  Elec       q    Type
REMARK                         _______ _______ _______ _____ _____    ______ ____
ROOT
ATOM      1  C   UNL     1       7.802  -2.654  22.204  0.00  0.00    +0.046 C 
ATOM      2  C   UNL     1       8.150  -1.870  23.430  0.00  0.00    -0.017 A 
ATOM      3  C   UNL     1       8.798  -0.599  23.347  0.00  0.00    +0.007 A 
ATOM      4  C   UNL     1       9.175   0.228  22.262  0.00  0.00    +0.055 A 
ATOM      5  C   UNL     1       9.904   1.387  22.518  0.00  0.00    +0.118 A 
ATOM      6  C   UNL     1      10.301   1.722  23.800  0.00  0.00    +0.047 A 
ATOM      7  C   UNL     1       9.915   0.932  24.887  0.00  0.00    +0.030 A 
ATOM      8  C   UNL     1       9.127  -0.208  24.639  0.00  0.00    +0.050 A 
ATOM      9  N   UNL     1       8.500  -1.102  25.495  0.00  0.00    -0.335 N 
ATOM     10  C   UNL     1       8.007  -2.203  24.782  0.00  0.00    +0.053 A 
ENDROOT
BRANCH  10  11
ATOM     11  C   UNL     1       7.424  -3.439  25.384  0.00  0.00    -0.001 A 
ATOM     12  C   UNL     1       8.185  -4.246  26.245  0.00  0.00    +0.013 A 
ATOM     13  C   UNL     1       7.627  -5.343  26.913  0.00  0.00    +0.046 A 
ATOM     14  C   UNL     1       6.309  -5.698  26.674  0.00  0.00    +0.117 A 
ATOM     15  C   UNL     1       5.540  -4.955  25.788  0.00  0.00    +0.046 A 
ATOM     16  C   UNL     1       6.086  -3.814  25.178  0.00  0.00    +0.013 A 
BRANCH  14  17
ATOM     17  O   UNL     1       5.809  -6.779  27.331  0.00  0.00    -0.507 OA
ATOM     18  H   UNL     1       6.525  -7.418  27.479  0.00  0.00    +0.292 HD
ENDBRANCH  14  17
ENDBRANCH  10  11
BRANCH   5  19
ATOM     19  O   UNL     1      10.260   2.230  21.504  0.00  0.00    -0.507 OA
ATOM     20  H   UNL     1      11.173   2.523  21.660  0.00  0.00    +0.292 HD
ENDBRANCH   5  19
BRANCH   9  21
ATOM     21  C   UNL     1       8.346  -0.798  26.920  0.00  0.00    +0.157 C 
BRANCH  21  22
ATOM     22  C   UNL     1       7.100  -0.007  27.212  0.00  0.00    -0.028 A 
ATOM     23  C   UNL     1       7.132   1.298  27.729  0.00  0.00    +0.009 A 
ATOM     24  C   UNL     1       5.953   2.055  27.821  0.00  0.00    +0.046 A 
ATOM     25  C   UNL     1       4.744   1.515  27.401  0.00  0.00    +0.121 A 
ATOM     26  C   UNL     1       4.703   0.169  27.017  0.00  0.00    +0.046 A 
ATOM     27  C   UNL     1       5.864  -0.585  26.928  0.00  0.00    +0.009 A 
BRANCH  25  28
ATOM     28  O   UNL     1       3.657   2.368  27.354  0.00  0.00    -0.491 OA
BRANCH  28  29
ATOM     29  C   UNL     1       3.874   3.457  26.447  0.00  0.00    +0.244 C 
BRANCH  29  30
ATOM     30  C   UNL     1       3.862   3.079  24.962  0.00  0.00    +0.125 C 
BRANCH  30  31
ATOM     31  N   UNL     1       5.243   3.074  24.396  0.00  0.00    -0.299 NA
ATOM     32  C   UNL     1       6.011   4.214  24.919  0.00  0.00    +0.084 C 
ATOM     33  C   UNL     1       7.522   4.035  24.745  0.00  0.00    +0.015 C 
ATOM     34  C   UNL     1       8.090   4.558  23.429  0.00  0.00    +0.001 C 
ATOM     35  C   UNL     1       7.257   4.301  22.184  0.00  0.00    +0.001 C 
ATOM     36  C   UNL     1       6.558   2.953  22.188  0.00  0.00    +0.015 C 
ATOM     37  C   UNL     1       5.219   2.981  22.926  0.00  0.00    +0.084 C 
ENDBRANCH  30  31
ENDBRANCH  29  30
ENDBRANCH  28  29
ENDBRANCH  25  28
ENDBRANCH  21  22
ENDBRANCH   9  21
TORSDOF 9
ENDMDL
MODEL 6
REMARK VINA RESULT:      -7.0      1.375      2.229
REMARK  Name = 
REMARK  10 active torsions:
REMARK  status: ('A' for Active; 'I' for Inactive)
REMARK    1  A    between atoms: C_1  and  C_2
REMARK    2  A    between atoms: C_3  and  C_29
REMARK    3  A    between atoms: N_4  and  C_5
REMARK    4  A    between atoms: C_5  and  C_6
REMARK    5  A    between atoms: C_9  and  O_10
REMARK    6  A    between atoms: O_10  and  C_11
REMARK    7  A    between atoms: C_11  and  C_12
REMARK    8  A    between atoms: C_12  and  N_13
REMARK    9  A    between atoms: C_25  and  O_26
REMARK   10  A    between atoms: C_32  and  O_33
REMARK                            x       y       z     vdW  Elec       q    Type
REMARK                         _______ _______ _______ _____ _____    ______ ____
ROOT
ATOM      1  C   UNL     1       6.350  -5.942  22.179  0.00  0.00    +0.046 C 
ATOM      2  C   UNL     1       6.168  -5.473  23.586  0.00  0.00    -0.017 A 
ATOM      3  C   UNL     1       5.222  -6.086  24.464  0.00  0.00    +0.007 A 
ATOM      4  C   UNL     1       4.362  -7.203  24.335  0.00  0.00    +0.055 A 
ATOM      5  C   UNL     1       3.463  -7.486  25.361  0.00  0.00    +0.118 A 
ATOM      6  C   UNL     1       3.366  -6.678  26.478  0.00  0.00    +0.047 A 
ATOM      7  C   UNL     1       4.224  -5.586  26.636  0.00  0.00    +0.030 A 
ATOM      8  C   UNL     1       5.175  -5.332  25.630  0.00  0.00    +0.050 A 
ATOM      9  N   UNL     1       6.221  -4.422  25.554  0.00  0.00    -0.335 N 
ATOM     10  C   UNL     1       6.760  -4.398  24.261  0.00  0.00    +0.053 A 
ENDROOT
BRANCH  10  11
ATOM     11  C   UNL     1       7.781  -3.429  23.762  0.00  0.00    -0.001 A 
ATOM     12  C   UNL     1       9.082  -3.422  24.289  0.00  0.00    +0.013 A 
ATOM     13  C   UNL     1      10.089  -2.605  23.759  0.00  0.00    +0.046 A 
ATOM     14  C   UNL     1       9.790  -1.722  22.734  0.00  0.00    +0.117 A 
ATOM     15  C   UNL     1       8.500  -1.662  22.222  0.00  0.00    +0.046 A 
ATOM     16  C   UNL     1       7.515  -2.536  22.711  0.00  0.00    +0.013 A 
BRANCH  14  17
ATOM     17  O   UNL     1      10.792  -0.935  22.256  0.00  0.00    -0.507 OA
ATOM     18  H   UNL     1      10.679  -0.035  22.603  0.00  0.00    +0.292 HD
ENDBRANCH  14  17
ENDBRANCH  10  11
BRANCH   5  19
ATOM     19  O   UNL     1       2.639  -8.573  25.290  0.00  0.00    -0.507 OA
ATOM     20  H   UNL     1       1.894  -8.351  24.709  0.00  0.00    +0.292 HD
ENDBRANCH   5  19
BRANCH   9  21
ATOM     21  C   UNL     1       6.680  -3.703  26.746  0.00  0.00    +0.157 C 
BRANCH  21  22
ATOM     22  C   UNL     1       6.355  -2.235  26.697  0.00  0.00    -0.028 A 
ATOM     23  C   UNL     1       5.038  -1.750  26.667  0.00  0.00    +0.009 A 
ATOM     24  C   UNL     1       4.785  -0.375  26.796  0.00  0.00    +0.046 A 
ATOM     25  C   UNL     1       5.838   0.516  26.952  0.00  0.00    +0.121 A 
ATOM     26  C   UNL     1       7.150   0.036  26.843  0.00  0.00    +0.046 A 
ATOM     27  C   UNL     1       7.406  -1.320  26.712  0.00  0.00    +0.009 A 
BRANCH  25  28
ATOM     28  O   UNL     1       5.515   1.828  27.249  0.00  0.00    -0.491 OA
BRANCH  28  29
ATOM     29  C   UNL     1       6.277   2.754  26.464  0.00  0.00    +0.244 C 
BRANCH  29  30
ATOM     30  C   UNL     1       5.781   2.951  25.028  0.00  0.00    +0.125 C 
BRANCH  30  31
ATOM     31  N   UNL     1       6.924   3.126  24.082  0.00  0.00    -0.299 NA
ATOM     32  C   UNL     1       6.994   1.988  23.153  0.00  0.00    +0.084 C 
ATOM     33  C   UNL     1       7.830   2.296  21.908  0.00  0.00    +0.015 C 
ATOM     34  C   UNL     1       9.318   1.983  22.032  0.00  0.00    +0.001 C 
ATOM     35  C   UNL     1       9.973   2.332  23.358  0.00  0.00    +0.001 C 
ATOM     36  C   UNL     1       9.447   3.616  23.977  0.00  0.00    +0.015 C 
ATOM     37  C   UNL     1       8.178   3.399  24.803  0.00  0.00    +0.084 C 
ENDBRANCH  30  31
ENDBRANCH  29  30
ENDBRANCH  28  29
ENDBRANCH  25  28
ENDBRANCH  21  22
ENDBRANCH   9  21
TORSDOF 9
ENDMDL
MODEL 7
REMARK VINA RESULT:      -6.9      2.275      9.461
REMARK  Name = 
REMARK  10 active torsions:
REMARK  status: ('A' for Active; 'I' for Inactive)
REMARK    1  A    between atoms: C_1  and  C_2
REMARK    2  A    between atoms: C_3  and  C_29
REMARK    3  A    between atoms: N_4  and  C_5
REMARK    4  A    between atoms: C_5  and  C_6
REMARK    5  A    between atoms: C_9  and  O_10
REMARK    6  A    between atoms: O_10  and  C_11
REMARK    7  A    between atoms: C_11  and  C_12
REMARK    8  A    between atoms: C_12  and  N_13
REMARK    9  A    between atoms: C_25  and  O_26
REMARK   10  A    between atoms: C_32  and  O_33
REMARK                            x       y       z     vdW  Elec       q    Type
REMARK                         _______ _______ _______ _____ _____    ______ ____
ROOT
ATOM      1  C   UNL     1       6.294   3.298  25.350  0.00  0.00    +0.046 C 
ATOM      2  C   UNL     1       7.561   2.560  25.055  0.00  0.00    -0.017 A 
ATOM      3  C   UNL     1       8.727   3.235  24.577  0.00  0.00    +0.007 A 
ATOM      4  C   UNL     1       9.034   4.598  24.353  0.00  0.00    +0.055 A 
ATOM      5  C   UNL     1      10.254   4.928  23.767  0.00  0.00    +0.118 A 
ATOM      6  C   UNL     1      11.148   3.953  23.364  0.00  0.00    +0.047 A 
ATOM      7  C   UNL     1      10.874   2.603  23.601  0.00  0.00    +0.030 A 
ATOM      8  C   UNL     1       9.669   2.269  24.248  0.00  0.00    +0.050 A 
ATOM      9  N   UNL     1       9.178   1.060  24.721  0.00  0.00    -0.335 N 
ATOM     10  C   UNL     1       7.835   1.188  25.099  0.00  0.00    +0.053 A 
ENDROOT
BRANCH  10  11
ATOM     11  C   UNL     1       6.932   0.066  25.495  0.00  0.00    -0.001 A 
ATOM     12  C   UNL     1       6.063  -0.519  24.561  0.00  0.00    +0.013 A 
ATOM     13  C   UNL     1       5.292  -1.646  24.875  0.00  0.00    +0.046 A 
ATOM     14  C   UNL     1       5.324  -2.166  26.159  0.00  0.00    +0.117 A 
ATOM     15  C   UNL     1       6.132  -1.581  27.126  0.00  0.00    +0.046 A 
ATOM     16  C   UNL     1       6.955  -0.496  26.782  0.00  0.00    +0.013 A 
BRANCH  14  17
ATOM     17  O   UNL     1       4.550  -3.251  26.429  0.00  0.00    -0.507 OA
ATOM     18  H   UNL     1       5.099  -3.934  26.848  0.00  0.00    +0.292 HD
ENDBRANCH  14  17
ENDBRANCH  10  11
BRANCH   5  19
ATOM     19  O   UNL     1      10.604   6.232  23.563  0.00  0.00    -0.507 OA
ATOM     20  H   UNL     1      10.170   6.539  22.751  0.00  0.00    +0.292 HD
ENDBRANCH   5  19
BRANCH   9  21
ATOM     21  C   UNL     1      10.054  -0.108  24.853  0.00  0.00    +0.157 C 
BRANCH  21  22
ATOM     22  C   UNL     1       9.521  -1.315  24.130  0.00  0.00    -0.028 A 
ATOM     23  C   UNL     1       9.350  -2.560  24.755  0.00  0.00    +0.009 A 
ATOM     24  C   UNL     1       8.691  -3.605  24.087  0.00  0.00    +0.046 A 
ATOM     25  C   UNL     1       8.204  -3.413  22.801  0.00  0.00    +0.121 A 
ATOM     26  C   UNL     1       8.500  -2.214  22.139  0.00  0.00    +0.046 A 
ATOM     27  C   UNL     1       9.155  -1.180  22.792  0.00  0.00    +0.009 A 
BRANCH  25  28
ATOM     28  O   UNL     1       7.414  -4.416  22.270  0.00  0.00    -0.491 OA
BRANCH  28  29
ATOM     29  C   UNL     1       6.104  -4.426  22.851  0.00  0.00    +0.244 C 
BRANCH  29  30
ATOM     30  C   UNL     1       5.933  -5.357  24.056  0.00  0.00    +0.125 C 
BRANCH  30  31
ATOM     31  N   UNL     1       4.494  -5.687  24.282  0.00  0.00    -0.299 NA
ATOM     32  C   UNL     1       4.313  -7.145  24.357  0.00  0.00    +0.084 C 
ATOM     33  C   UNL     1       2.986  -7.540  25.013  0.00  0.00    +0.015 C 
ATOM     34  C   UNL     1       1.805  -7.677  24.057  0.00  0.00    +0.001 C 
ATOM     35  C   UNL     1       1.701  -6.634  22.958  0.00  0.00    +0.001 C 
ATOM     36  C   UNL     1       2.120  -5.242  23.399  0.00  0.00    +0.015 C 
ATOM     37  C   UNL     1       3.629  -5.016  23.297  0.00  0.00    +0.084 C 
ENDBRANCH  30  31
ENDBRANCH  29  30
ENDBRANCH  28  29
ENDBRANCH  25  28
ENDBRANCH  21  22
ENDBRANCH   9  21
TORSDOF 9
ENDMDL
MODEL 8
REMARK VINA RESULT:      -6.9      1.809      5.145
REMARK  Name = 
REMARK  10 active torsions:
REMARK  status: ('A' for Active; 'I' for Inactive)
REMARK    1  A    between atoms: C_1  and  C_2
REMARK    2  A    between atoms: C_3  and  C_29
REMARK    3  A    between atoms: N_4  and  C_5
REMARK    4  A    between atoms: C_5  and  C_6
REMARK    5  A    between atoms: C_9  and  O_10
REMARK    6  A    between atoms: O_10  and  C_11
REMARK    7  A    between atoms: C_11  and  C_12
REMARK    8  A    between atoms: C_12  and  N_13
REMARK    9  A    between atoms: C_25  and  O_26
REMARK   10  A    between atoms: C_32  and  O_33
REMARK                            x       y       z     vdW  Elec       q    Type
REMARK                         _______ _______ _______ _____ _____    ______ ____
ROOT
ATOM      1  C   UNL     1       5.786  -4.619  22.214  0.00  0.00    +0.046 C 
ATOM      2  C   UNL     1       6.348  -3.907  23.403  0.00  0.00    -0.017 A 
ATOM      3  C   UNL     1       7.513  -3.086  23.302  0.00  0.00    +0.007 A 
ATOM      4  C   UNL     1       8.320  -2.677  22.213  0.00  0.00    +0.055 A 
ATOM      5  C   UNL     1       9.476  -1.942  22.467  0.00  0.00    +0.118 A 
ATOM      6  C   UNL     1       9.870  -1.641  23.758  0.00  0.00    +0.047 A 
ATOM      7  C   UNL     1       9.073  -2.013  24.844  0.00  0.00    +0.030 A 
ATOM      8  C   UNL     1       7.873  -2.703  24.588  0.00  0.00    +0.050 A 
ATOM      9  N   UNL     1       6.834  -3.091  25.422  0.00  0.00    -0.335 N 
ATOM     10  C   UNL     1       5.953  -3.945  24.745  0.00  0.00    +0.053 A 
ENDROOT
BRANCH  10  11
ATOM     11  C   UNL     1       4.817  -4.691  25.364  0.00  0.00    -0.001 A 
ATOM     12  C   UNL     1       3.556  -4.090  25.507  0.00  0.00    +0.013 A 
ATOM     13  C   UNL     1       2.446  -4.806  25.975  0.00  0.00    +0.046 A 
ATOM     14  C   UNL     1       2.597  -6.122  26.381  0.00  0.00    +0.117 A 
ATOM     15  C   UNL     1       3.841  -6.735  26.304  0.00  0.00    +0.046 A 
ATOM     16  C   UNL     1       4.932  -6.032  25.766  0.00  0.00    +0.013 A 
BRANCH  14  17
ATOM     17  O   UNL     1       1.498  -6.778  26.844  0.00  0.00    -0.507 OA
ATOM     18  H   UNL     1       0.823  -6.125  27.092  0.00  0.00    +0.292 HD
ENDBRANCH  14  17
ENDBRANCH  10  11
BRANCH   5  19
ATOM     19  O   UNL     1      10.266  -1.500  21.444  0.00  0.00    -0.507 OA
ATOM     20  H   UNL     1      10.280  -0.530  21.470  0.00  0.00    +0.292 HD
ENDBRANCH   5  19
BRANCH   9  21
ATOM     21  C   UNL     1       6.716  -2.551  26.779  0.00  0.00    +0.157 C 
BRANCH  21  22
ATOM     22  C   UNL     1       6.333  -1.096  26.791  0.00  0.00    -0.028 A 
ATOM     23  C   UNL     1       7.128  -0.107  27.392  0.00  0.00    +0.009 A 
ATOM     24  C   UNL     1       6.816   1.252  27.228  0.00  0.00    +0.046 A 
ATOM     25  C   UNL     1       5.714   1.627  26.469  0.00  0.00    +0.121 A 
ATOM     26  C   UNL     1       4.854   0.631  25.990  0.00  0.00    +0.046 A 
ATOM     27  C   UNL     1       5.155  -0.713  26.153  0.00  0.00    +0.009 A 
BRANCH  25  28
ATOM     28  O   UNL     1       5.564   2.975  26.200  0.00  0.00    -0.491 OA
BRANCH  28  29
ATOM     29  C   UNL     1       5.140   3.205  24.851  0.00  0.00    +0.244 C 
BRANCH  29  30
ATOM     30  C   UNL     1       6.218   3.761  23.915  0.00  0.00    +0.125 C 
BRANCH  30  31
ATOM     31  N   UNL     1       7.287   2.750  23.662  0.00  0.00    -0.299 NA
ATOM     32  C   UNL     1       8.499   3.089  24.422  0.00  0.00    +0.084 C 
ATOM     33  C   UNL     1       9.455   1.902  24.566  0.00  0.00    +0.015 C 
ATOM     34  C   UNL     1      10.482   1.757  23.447  0.00  0.00    +0.001 C 
ATOM     35  C   UNL     1       9.986   2.025  22.036  0.00  0.00    +0.001 C 
ATOM     36  C   UNL     1       8.568   1.540  21.788  0.00  0.00    +0.015 C 
ATOM     37  C   UNL     1       7.509   2.556  22.219  0.00  0.00    +0.084 C 
ENDBRANCH  30  31
ENDBRANCH  29  30
ENDBRANCH  28  29
ENDBRANCH  25  28
ENDBRANCH  21  22
ENDBRANCH   9  21
TORSDOF 9
ENDMDL
MODEL 9
REMARK VINA RESULT:      -6.8      2.341      8.998
REMARK  Name = 
REMARK  10 active torsions:
REMARK  status: ('A' for Active; 'I' for Inactive)
REMARK    1  A    between atoms: C_1  and  C_2
REMARK    2  A    between atoms: C_3  and  C_29
REMARK    3  A    between atoms: N_4  and  C_5
REMARK    4  A    between atoms: C_5  and  C_6
REMARK    5  A    between atoms: C_9  and  O_10
REMARK    6  A    between atoms: O_10  and  C_11
REMARK    7  A    between atoms: C_11  and  C_12
REMARK    8  A    between atoms: C_12  and  N_13
REMARK    9  A    between atoms: C_25  and  O_26
REMARK   10  A    between atoms: C_32  and  O_33
REMARK                            x       y       z     vdW  Elec       q    Type
REMARK                         _______ _______ _______ _____ _____    ______ ____
ROOT
ATOM      1  C   UNL     1      11.370   0.064  24.082  0.00  0.00    +0.046 C 
ATOM      2  C   UNL     1       9.953   0.427  24.395  0.00  0.00    -0.017 A 
ATOM      3  C   UNL     1       9.474   1.766  24.253  0.00  0.00    +0.007 A 
ATOM      4  C   UNL     1      10.061   2.960  23.768  0.00  0.00    +0.055 A 
ATOM      5  C   UNL     1       9.346   4.151  23.863  0.00  0.00    +0.118 A 
ATOM      6  C   UNL     1       8.099   4.199  24.457  0.00  0.00    +0.047 A 
ATOM      7  C   UNL     1       7.491   3.027  24.917  0.00  0.00    +0.030 A 
ATOM      8  C   UNL     1       8.185   1.811  24.768  0.00  0.00    +0.050 A 
ATOM      9  N   UNL     1       7.809   0.497  25.008  0.00  0.00    -0.335 N 
ATOM     10  C   UNL     1       8.916  -0.357  24.914  0.00  0.00    +0.053 A 
ENDROOT
BRANCH  10  11
ATOM     11  C   UNL     1       8.929  -1.807  25.270  0.00  0.00    -0.001 A 
ATOM     12  C   UNL     1       8.523  -2.237  26.544  0.00  0.00    +0.013 A 
ATOM     13  C   UNL     1       8.414  -3.596  26.864  0.00  0.00    +0.046 A 
ATOM     14  C   UNL     1       8.783  -4.555  25.934  0.00  0.00    +0.117 A 
ATOM     15  C   UNL     1       9.241  -4.166  24.681  0.00  0.00    +0.046 A 
ATOM     16  C   UNL     1       9.278  -2.803  24.344  0.00  0.00    +0.013 A 
BRANCH  14  17
ATOM     17  O   UNL     1       8.677  -5.864  26.288  0.00  0.00    -0.507 OA
ATOM     18  H   UNL     1       9.568  -6.226  26.426  0.00  0.00    +0.292 HD
ENDBRANCH  14  17
ENDBRANCH  10  11
BRANCH   5  19
ATOM     19  O   UNL     1       9.862   5.319  23.378  0.00  0.00    -0.507 OA
ATOM     20  H   UNL     1       9.140   5.963  23.308  0.00  0.00    +0.292 HD
ENDBRANCH   5  19
BRANCH   9  21
ATOM     21  C   UNL     1       6.404   0.144  25.228  0.00  0.00    +0.157 C 
BRANCH  21  22
ATOM     22  C   UNL     1       5.970  -1.043  24.412  0.00  0.00    -0.028 A 
ATOM     23  C   UNL     1       6.340  -1.216  23.069  0.00  0.00    +0.009 A 
ATOM     24  C   UNL     1       6.057  -2.420  22.404  0.00  0.00    +0.046 A 
ATOM     25  C   UNL     1       5.405  -3.449  23.072  0.00  0.00    +0.121 A 
ATOM     26  C   UNL     1       4.921  -3.213  24.366  0.00  0.00    +0.046 A 
ATOM     27  C   UNL     1       5.195  -2.025  25.026  0.00  0.00    +0.009 A 
BRANCH  25  28
ATOM     28  O   UNL     1       5.313  -4.665  22.420  0.00  0.00    -0.491 OA
BRANCH  28  29
ATOM     29  C   UNL     1       4.288  -5.494  22.983  0.00  0.00    +0.244 C 
BRANCH  29  30
ATOM     30  C   UNL     1       4.786  -6.775  23.660  0.00  0.00    +0.125 C 
BRANCH  30  31
ATOM     31  N   UNL     1       4.228  -6.909  25.038  0.00  0.00    -0.299 NA
ATOM     32  C   UNL     1       2.942  -6.201  25.137  0.00  0.00    +0.084 C 
ATOM     33  C   UNL     1       2.115  -6.649  26.345  0.00  0.00    +0.015 C 
ATOM     34  C   UNL     1       2.373  -5.873  27.633  0.00  0.00    +0.001 C 
ATOM     35  C   UNL     1       3.821  -5.523  27.931  0.00  0.00    +0.001 C 
ATOM     36  C   UNL     1       4.805  -6.607  27.527  0.00  0.00    +0.015 C 
ATOM     37  C   UNL     1       5.217  -6.517  26.057  0.00  0.00    +0.084 C 
ENDBRANCH  30  31
ENDBRANCH  29  30
ENDBRANCH  28  29
ENDBRANCH  25  28
ENDBRANCH  21  22
ENDBRANCH   9  21
TORSDOF 9
ENDMDL
