MODEL 1
REMARK VINA RESULT:      -6.4      0.000      0.000
REMARK  Name = 
REMARK  21 active torsions:
REMARK  status: ('A' for Active; 'I' for Inactive)
REMARK    1  A    between atoms: C_1  and  C_2
REMARK    2  A    between atoms: C_2  and  O_3
REMARK    3  A    between atoms: O_3  and  C_4
REMARK    4  A    between atoms: C_4  and  C_6
REMARK    5  A    between atoms: C_7  and  C_8
REMARK    6  A    between atoms: C_8  and  C_10
REMARK    7  A    between atoms: C_8  and  N_18
REMARK    8  A    between atoms: C_10  and  C_11
REMARK    9  A    between atoms: C_19  and  C_21
REMARK   10  A    between atoms: C_21  and  N_23
REMARK   11  A    between atoms: C_21  and  C_39
REMARK   12  A    between atoms: C_24  and  C_26
REMARK   13  A    between atoms: C_26  and  C_28
REMARK   14  A    between atoms: C_26  and  N_31
REMARK   15  A    between atoms: C_28  and  C_29
REMARK   16  A    between atoms: C_28  and  C_30
REMARK   17  A    between atoms: C_32  and  O_34
REMARK   18  A    between atoms: O_34  and  C_35
REMARK   19  A    between atoms: C_35  and  C_36
REMARK   20  A    between atoms: C_35  and  C_37
REMARK   21  A    between atoms: C_35  and  C_38
REMARK                            x       y       z     vdW  Elec       q    Type
REMARK                         _______ _______ _______ _____ _____    ______ ____
ROOT
ATOM      1  C   UNL     1       9.361  -1.164  24.967  0.00  0.00    +0.190 C 
ENDROOT
BRANCH   1   2
ATOM      2  C   UNL     1       9.509  -0.156  23.838  0.00  0.00    -0.018 A 
ATOM      3  C   UNL     1       8.808  -0.305  22.628  0.00  0.00    +0.006 A 
ATOM      4  C   UNL     1       8.944   0.635  21.603  0.00  0.00    +0.000 A 
ATOM      5  C   UNL     1       9.770   1.742  21.778  0.00  0.00    +0.000 A 
ATOM      6  C   UNL     1      10.487   1.891  22.963  0.00  0.00    +0.000 A 
ATOM      7  C   UNL     1      10.368   0.944  23.983  0.00  0.00    +0.006 A 
ENDBRANCH   1   2
BRANCH   1  10
ATOM      8  N   UNL     1       7.915   0.547  26.106  0.00  0.00    -0.307 N 
ATOM      9  H   UNL     1       7.701   0.848  25.162  0.00  0.00    +0.149 HD
ATOM     10  C   UNL     1       8.791  -0.519  26.273  0.00  0.00    +0.238 C 
ATOM     11  O   UNL     1       9.096  -0.950  27.390  0.00  0.00    -0.273 OA
BRANCH   8  12
ATOM     12  C   UNL     1       7.242   1.204  27.217  0.00  0.00    +0.097 C 
BRANCH  12  14
ATOM     13  C   UNL     1       7.657   3.386  25.965  0.00  0.00    +0.089 C 
ATOM     14  C   UNL     1       7.022   2.665  26.905  0.00  0.00    +0.002 C 
BRANCH  13  15
ATOM     15  C   UNL     1       7.331   4.825  25.795  0.00  0.00    +0.332 C 
ATOM     16  O   UNL     1       6.223   5.312  25.949  0.00  0.00    -0.246 OA
BRANCH  15  17
ATOM     17  O   UNL     1       8.450   5.460  25.371  0.00  0.00    -0.462 OA
BRANCH  17  19
ATOM     18  C   UNL     1      10.358   5.574  23.861  0.00  0.00    +0.048 C 
ATOM     19  C   UNL     1       8.946   5.071  24.079  0.00  0.00    +0.229 C 
ENDBRANCH  17  19
ENDBRANCH  15  17
ENDBRANCH  13  15
ENDBRANCH  12  14
BRANCH  12  20
ATOM     20  C   UNL     1       5.919   0.526  27.653  0.00  0.00    +0.039 C 
BRANCH  20  21
ATOM     21  C   UNL     1       4.883   0.221  26.557  0.00  0.00    +0.078 C 
ATOM     22  C   UNL     1       5.038  -1.157  25.964  0.00  0.00    +0.216 C 
ATOM     23  O   UNL     1       5.682  -1.433  24.966  0.00  0.00    -0.276 OA
ATOM     24  N   UNL     1       4.298  -2.029  26.738  0.00  0.00    -0.315 N 
ATOM     25  H   UNL     1       4.223  -3.005  26.483  0.00  0.00    +0.149 HD
ATOM     26  C   UNL     1       3.473  -1.353  27.692  0.00  0.00    +0.105 C 
ATOM     27  C   UNL     1       3.469   0.068  27.153  0.00  0.00    +0.031 C 
ENDBRANCH  20  21
ENDBRANCH  12  20
ENDBRANCH   8  12
ENDBRANCH   1  10
BRANCH   1  28
ATOM     28  N   UNL     1       8.443  -2.215  24.539  0.00  0.00    -0.299 N 
ATOM     29  H   UNL     1       7.496  -1.929  24.324  0.00  0.00    +0.150 HD
ATOM     30  C   UNL     1       8.828  -3.512  24.295  0.00  0.00    +0.235 C 
ATOM     31  O   UNL     1       9.989  -3.894  24.419  0.00  0.00    -0.274 OA
BRANCH  30  32
ATOM     32  C   UNL     1       7.685  -4.469  23.843  0.00  0.00    +0.165 C 
BRANCH  32  33
ATOM     33  N   UNL     1       6.535  -4.420  24.748  0.00  0.00    -0.270 N 
ATOM     34  H   UNL     1       5.783  -3.767  24.629  0.00  0.00    +0.153 HD
ATOM     35  C   UNL     1       6.589  -5.137  25.916  0.00  0.00    +0.401 C 
ATOM     36  O   UNL     1       7.523  -5.859  26.216  0.00  0.00    -0.226 OA
BRANCH  35  37
ATOM     37  O   UNL     1       5.501  -4.888  26.679  0.00  0.00    -0.445 OA
BRANCH  37  38
ATOM     38  C   UNL     1       4.589  -5.990  26.955  0.00  0.00    +0.107 C 
ATOM     39  C   UNL     1       4.398  -6.880  25.723  0.00  0.00    +0.055 C 
ATOM     40  C   UNL     1       3.231  -5.349  27.284  0.00  0.00    +0.055 C 
ATOM     41  C   UNL     1       5.046  -6.795  28.181  0.00  0.00    +0.055 C 
ENDBRANCH  37  38
ENDBRANCH  35  37
ENDBRANCH  32  33
BRANCH  32  42
ATOM     42  C   UNL     1       7.314  -4.284  22.352  0.00  0.00    +0.012 C 
ATOM     43  C   UNL     1       6.092  -3.394  22.123  0.00  0.00    +0.009 C 
ATOM     44  C   UNL     1       7.111  -5.636  21.655  0.00  0.00    +0.009 C 
ENDBRANCH  32  42
ENDBRANCH  30  32
ENDBRANCH   1  28
TORSDOF 15
ENDMDL
MODEL 2
REMARK VINA RESULT:      -5.6      2.660      5.549
REMARK  Name = 
REMARK  21 active torsions:
REMARK  status: ('A' for Active; 'I' for Inactive)
REMARK    1  A    between atoms: C_1  and  C_2
REMARK    2  A    between atoms: C_2  and  O_3
REMARK    3  A    between atoms: O_3  and  C_4
REMARK    4  A    between atoms: C_4  and  C_6
REMARK    5  A    between atoms: C_7  and  C_8
REMARK    6  A    between atoms: C_8  and  C_10
REMARK    7  A    between atoms: C_8  and  N_18
REMARK    8  A    between atoms: C_10  and  C_11
REMARK    9  A    between atoms: C_19  and  C_21
REMARK   10  A    between atoms: C_21  and  N_23
REMARK   11  A    between atoms: C_21  and  C_39
REMARK   12  A    between atoms: C_24  and  C_26
REMARK   13  A    between atoms: C_26  and  C_28
REMARK   14  A    between atoms: C_26  and  N_31
REMARK   15  A    between atoms: C_28  and  C_29
REMARK   16  A    between atoms: C_28  and  C_30
REMARK   17  A    between atoms: C_32  and  O_34
REMARK   18  A    between atoms: O_34  and  C_35
REMARK   19  A    between atoms: C_35  and  C_36
REMARK   20  A    between atoms: C_35  and  C_37
REMARK   21  A    between atoms: C_35  and  C_38
REMARK                            x       y       z     vdW  Elec       q    Type
REMARK                         _______ _______ _______ _____ _____    ______ ____
ROOT
ATOM      1  C   UNL     1       6.827  -5.358  25.787  0.00  0.00    +0.190 C 
ENDROOT
BRANCH   1   2
ATOM      2  C   UNL     1       6.541  -5.313  24.295  0.00  0.00    -0.018 A 
ATOM      3  C   UNL     1       5.255  -5.020  23.806  0.00  0.00    +0.006 A 
ATOM      4  C   UNL     1       5.007  -4.970  22.431  0.00  0.00    +0.000 A 
ATOM      5  C   UNL     1       6.042  -5.198  21.529  0.00  0.00    +0.000 A 
ATOM      6  C   UNL     1       7.316  -5.512  21.998  0.00  0.00    +0.000 A 
ATOM      7  C   UNL     1       7.563  -5.581  23.372  0.00  0.00    +0.006 A 
ENDBRANCH   1   2
BRANCH   1  10
ATOM      8  N   UNL     1       7.483  -2.933  25.792  0.00  0.00    -0.307 N 
ATOM      9  H   UNL     1       6.674  -2.816  25.193  0.00  0.00    +0.149 HD
ATOM     10  C   UNL     1       7.786  -4.210  26.246  0.00  0.00    +0.238 C 
ATOM     11  O   UNL     1       8.749  -4.434  26.986  0.00  0.00    -0.273 OA
BRANCH   8  12
ATOM     12  C   UNL     1       8.232  -1.749  26.191  0.00  0.00    +0.097 C 
BRANCH  12  14
ATOM     13  C   UNL     1       8.988  -1.533  23.766  0.00  0.00    +0.089 C 
ATOM     14  C   UNL     1       9.162  -1.320  25.081  0.00  0.00    +0.002 C 
BRANCH  13  15
ATOM     15  C   UNL     1      10.012  -1.057  22.801  0.00  0.00    +0.332 C 
ATOM     16  O   UNL     1      10.861  -1.761  22.280  0.00  0.00    -0.246 OA
BRANCH  15  17
ATOM     17  O   UNL     1       9.877   0.286  22.677  0.00  0.00    -0.462 OA
BRANCH  17  19
ATOM     18  C   UNL     1       8.155   1.737  21.750  0.00  0.00    +0.048 C 
ATOM     19  C   UNL     1       9.267   0.750  21.461  0.00  0.00    +0.229 C 
ENDBRANCH  17  19
ENDBRANCH  15  17
ENDBRANCH  13  15
ENDBRANCH  12  14
BRANCH  12  20
ATOM     20  C   UNL     1       7.351  -0.565  26.664  0.00  0.00    +0.039 C 
BRANCH  20  21
ATOM     21  C   UNL     1       5.838  -0.657  26.397  0.00  0.00    +0.078 C 
ATOM     22  C   UNL     1       5.077  -1.304  27.525  0.00  0.00    +0.216 C 
ATOM     23  O   UNL     1       4.796  -2.488  27.605  0.00  0.00    -0.276 OA
ATOM     24  N   UNL     1       4.737  -0.312  28.423  0.00  0.00    -0.315 N 
ATOM     25  H   UNL     1       4.174  -0.525  29.235  0.00  0.00    +0.149 HD
ATOM     26  C   UNL     1       5.010   1.000  27.921  0.00  0.00    +0.105 C 
ATOM     27  C   UNL     1       5.181   0.738  26.434  0.00  0.00    +0.031 C 
ENDBRANCH  20  21
ENDBRANCH  12  20
ENDBRANCH   8  12
ENDBRANCH   1  10
BRANCH   1  28
ATOM     28  N   UNL     1       5.567  -5.217  26.511  0.00  0.00    -0.299 N 
ATOM     29  H   UNL     1       4.973  -4.444  26.239  0.00  0.00    +0.150 HD
ATOM     30  C   UNL     1       5.105  -6.134  27.425  0.00  0.00    +0.235 C 
ATOM     31  O   UNL     1       5.723  -7.158  27.708  0.00  0.00    -0.274 OA
BRANCH  30  32
ATOM     32  C   UNL     1       3.734  -5.788  28.076  0.00  0.00    +0.165 C 
BRANCH  32  33
ATOM     33  N   UNL     1       2.607  -6.325  27.310  0.00  0.00    -0.270 N 
ATOM     34  H   UNL     1       2.290  -7.271  27.410  0.00  0.00    +0.153 HD
ATOM     35  C   UNL     1       2.110  -5.584  26.267  0.00  0.00    +0.401 C 
ATOM     36  O   UNL     1       2.520  -4.473  25.980  0.00  0.00    -0.226 OA
BRANCH  35  37
ATOM     37  O   UNL     1       1.158  -6.275  25.603  0.00  0.00    -0.445 OA
BRANCH  37  38
ATOM     38  C   UNL     1       1.518  -6.894  24.334  0.00  0.00    +0.107 C 
ATOM     39  C   UNL     1       1.477  -5.882  23.186  0.00  0.00    +0.055 C 
ATOM     40  C   UNL     1       0.443  -7.959  24.057  0.00  0.00    +0.055 C 
ATOM     41  C   UNL     1       2.877  -7.604  24.428  0.00  0.00    +0.055 C 
ENDBRANCH  37  38
ENDBRANCH  35  37
ENDBRANCH  32  33
BRANCH  32  42
ATOM     42  C   UNL     1       3.688  -6.140  29.582  0.00  0.00    +0.012 C 
ATOM     43  C   UNL     1       2.855  -7.382  29.903  0.00  0.00    +0.009 C 
ATOM     44  C   UNL     1       3.195  -4.952  30.419  0.00  0.00    +0.009 C 
ENDBRANCH  32  42
ENDBRANCH  30  32
ENDBRANCH   1  28
TORSDOF 15
ENDMDL
MODEL 3
REMARK VINA RESULT:      -5.6      2.485      5.591
REMARK  Name = 
REMARK  21 active torsions:
REMARK  status: ('A' for Active; 'I' for Inactive)
REMARK    1  A    between atoms: C_1  and  C_2
REMARK    2  A    between atoms: C_2  and  O_3
REMARK    3  A    between atoms: O_3  and  C_4
REMARK    4  A    between atoms: C_4  and  C_6
REMARK    5  A    between atoms: C_7  and  C_8
REMARK    6  A    between atoms: C_8  and  C_10
REMARK    7  A    between atoms: C_8  and  N_18
REMARK    8  A    between atoms: C_10  and  C_11
REMARK    9  A    between atoms: C_19  and  C_21
REMARK   10  A    between atoms: C_21  and  N_23
REMARK   11  A    between atoms: C_21  and  C_39
REMARK   12  A    between atoms: C_24  and  C_26
REMARK   13  A    between atoms: C_26  and  C_28
REMARK   14  A    between atoms: C_26  and  N_31
REMARK   15  A    between atoms: C_28  and  C_29
REMARK   16  A    between atoms: C_28  and  C_30
REMARK   17  A    between atoms: C_32  and  O_34
REMARK   18  A    between atoms: O_34  and  C_35
REMARK   19  A    between atoms: C_35  and  C_36
REMARK   20  A    between atoms: C_35  and  C_37
REMARK   21  A    between atoms: C_35  and  C_38
REMARK                            x       y       z     vdW  Elec       q    Type
REMARK                         _______ _______ _______ _____ _____    ______ ____
ROOT
ATOM      1  C   UNL     1       7.274  -5.353  25.962  0.00  0.00    +0.190 C 
ENDROOT
BRANCH   1   2
ATOM      2  C   UNL     1       6.805  -5.365  24.517  0.00  0.00    -0.018 A 
ATOM      3  C   UNL     1       7.708  -5.190  23.453  0.00  0.00    +0.006 A 
ATOM      4  C   UNL     1       7.265  -5.216  22.127  0.00  0.00    +0.000 A 
ATOM      5  C   UNL     1       5.919  -5.430  21.847  0.00  0.00    +0.000 A 
ATOM      6  C   UNL     1       5.009  -5.583  22.891  0.00  0.00    +0.000 A 
ATOM      7  C   UNL     1       5.445  -5.540  24.218  0.00  0.00    +0.006 A 
ENDBRANCH   1   2
BRANCH   1  10
ATOM      8  N   UNL     1       7.721  -2.885  26.106  0.00  0.00    -0.307 N 
ATOM      9  H   UNL     1       6.759  -2.794  25.801  0.00  0.00    +0.149 HD
ATOM     10  C   UNL     1       8.243  -4.163  26.267  0.00  0.00    +0.238 C 
ATOM     11  O   UNL     1       9.403  -4.357  26.644  0.00  0.00    -0.273 OA
BRANCH   8  12
ATOM     12  C   UNL     1       8.470  -1.676  26.422  0.00  0.00    +0.097 C 
BRANCH  12  14
ATOM     13  C   UNL     1       9.192  -1.740  23.978  0.00  0.00    +0.089 C 
ATOM     14  C   UNL     1       9.167  -1.155  25.187  0.00  0.00    +0.002 C 
BRANCH  13  15
ATOM     15  C   UNL     1       9.941  -1.101  22.866  0.00  0.00    +0.332 C 
ATOM     16  O   UNL     1      10.402  -1.692  21.904  0.00  0.00    -0.246 OA
BRANCH  15  17
ATOM     17  O   UNL     1      10.080   0.215  23.158  0.00  0.00    -0.462 OA
BRANCH  17  19
ATOM     18  C   UNL     1       8.533   1.347  21.656  0.00  0.00    +0.048 C 
ATOM     19  C   UNL     1       9.979   1.122  22.048  0.00  0.00    +0.229 C 
ENDBRANCH  17  19
ENDBRANCH  15  17
ENDBRANCH  13  15
ENDBRANCH  12  14
BRANCH  12  20
ATOM     20  C   UNL     1       7.628  -0.562  27.094  0.00  0.00    +0.039 C 
BRANCH  20  21
ATOM     21  C   UNL     1       6.656   0.229  26.202  0.00  0.00    +0.078 C 
ATOM     22  C   UNL     1       5.232  -0.255  26.306  0.00  0.00    +0.216 C 
ATOM     23  O   UNL     1       4.706  -1.078  25.577  0.00  0.00    -0.276 OA
ATOM     24  N   UNL     1       4.636   0.423  27.351  0.00  0.00    -0.315 N 
ATOM     25  H   UNL     1       3.657   0.284  27.562  0.00  0.00    +0.149 HD
ATOM     26  C   UNL     1       5.452   1.487  27.851  0.00  0.00    +0.105 C 
ATOM     27  C   UNL     1       6.459   1.665  26.728  0.00  0.00    +0.031 C 
ENDBRANCH  20  21
ENDBRANCH  12  20
ENDBRANCH   8  12
ENDBRANCH   1  10
BRANCH   1  28
ATOM     28  N   UNL     1       6.109  -5.227  26.833  0.00  0.00    -0.299 N 
ATOM     29  H   UNL     1       5.278  -4.821  26.422  0.00  0.00    +0.150 HD
ATOM     30  C   UNL     1       6.049  -5.741  28.107  0.00  0.00    +0.235 C 
ATOM     31  O   UNL     1       6.983  -6.354  28.620  0.00  0.00    -0.274 OA
BRANCH  30  32
ATOM     32  C   UNL     1       4.707  -5.496  28.858  0.00  0.00    +0.165 C 
BRANCH  32  33
ATOM     33  N   UNL     1       4.041  -4.271  28.410  0.00  0.00    -0.270 N 
ATOM     34  H   UNL     1       3.828  -4.095  27.446  0.00  0.00    +0.153 HD
ATOM     35  C   UNL     1       3.900  -3.238  29.301  0.00  0.00    +0.401 C 
ATOM     36  O   UNL     1       4.251  -3.305  30.466  0.00  0.00    -0.226 OA
BRANCH  35  37
ATOM     37  O   UNL     1       3.372  -2.152  28.693  0.00  0.00    -0.445 OA
BRANCH  37  38
ATOM     38  C   UNL     1       1.985  -1.810  28.982  0.00  0.00    +0.107 C 
ATOM     39  C   UNL     1       1.168  -3.050  29.353  0.00  0.00    +0.055 C 
ATOM     40  C   UNL     1       1.405  -1.239  27.677  0.00  0.00    +0.055 C 
ATOM     41  C   UNL     1       1.896  -0.718  30.059  0.00  0.00    +0.055 C 
ENDBRANCH  37  38
ENDBRANCH  35  37
ENDBRANCH  32  33
BRANCH  32  42
ATOM     42  C   UNL     1       3.790  -6.742  28.854  0.00  0.00    +0.012 C 
ATOM     43  C   UNL     1       2.619  -6.647  27.874  0.00  0.00    +0.009 C 
ATOM     44  C   UNL     1       3.267  -7.055  30.262  0.00  0.00    +0.009 C 
ENDBRANCH  32  42
ENDBRANCH  30  32
ENDBRANCH   1  28
TORSDOF 15
ENDMDL
MODEL 4
REMARK VINA RESULT:      -5.4      2.639      8.789
REMARK  Name = 
REMARK  21 active torsions:
REMARK  status: ('A' for Active; 'I' for Inactive)
REMARK    1  A    between atoms: C_1  and  C_2
REMARK    2  A    between atoms: C_2  and  O_3
REMARK    3  A    between atoms: O_3  and  C_4
REMARK    4  A    between atoms: C_4  and  C_6
REMARK    5  A    between atoms: C_7  and  C_8
REMARK    6  A    between atoms: C_8  and  C_10
REMARK    7  A    between atoms: C_8  and  N_18
REMARK    8  A    between atoms: C_10  and  C_11
REMARK    9  A    between atoms: C_19  and  C_21
REMARK   10  A    between atoms: C_21  and  N_23
REMARK   11  A    between atoms: C_21  and  C_39
REMARK   12  A    between atoms: C_24  and  C_26
REMARK   13  A    between atoms: C_26  and  C_28
REMARK   14  A    between atoms: C_26  and  N_31
REMARK   15  A    between atoms: C_28  and  C_29
REMARK   16  A    between atoms: C_28  and  C_30
REMARK   17  A    between atoms: C_32  and  O_34
REMARK   18  A    between atoms: O_34  and  C_35
REMARK   19  A    between atoms: C_35  and  C_36
REMARK   20  A    between atoms: C_35  and  C_37
REMARK   21  A    between atoms: C_35  and  C_38
REMARK                            x       y       z     vdW  Elec       q    Type
REMARK                         _______ _______ _______ _____ _____    ______ ____
ROOT
ATOM      1  C   UNL     1       6.384   0.533  24.112  0.00  0.00    +0.190 C 
ENDROOT
BRANCH   1   2
ATOM      2  C   UNL     1       7.876   0.408  23.846  0.00  0.00    -0.018 A 
ATOM      3  C   UNL     1       8.785   0.144  24.887  0.00  0.00    +0.006 A 
ATOM      4  C   UNL     1      10.152   0.018  24.627  0.00  0.00    +0.000 A 
ATOM      5  C   UNL     1      10.627   0.141  23.325  0.00  0.00    +0.000 A 
ATOM      6  C   UNL     1       9.742   0.424  22.287  0.00  0.00    +0.000 A 
ATOM      7  C   UNL     1       8.376   0.569  22.545  0.00  0.00    +0.006 A 
ENDBRANCH   1   2
BRANCH   1  10
ATOM      8  N   UNL     1       5.597  -1.829  24.447  0.00  0.00    -0.307 N 
ATOM      9  H   UNL     1       5.769  -1.922  23.453  0.00  0.00    +0.149 HD
ATOM     10  C   UNL     1       5.846  -0.601  25.046  0.00  0.00    +0.238 C 
ATOM     11  O   UNL     1       5.670  -0.411  26.254  0.00  0.00    -0.273 OA
BRANCH   8  12
ATOM     12  C   UNL     1       5.167  -3.005  25.193  0.00  0.00    +0.097 C 
BRANCH  12  14
ATOM     13  C   UNL     1       3.737  -4.757  24.015  0.00  0.00    +0.089 C 
ATOM     14  C   UNL     1       3.891  -3.559  24.604  0.00  0.00    +0.002 C 
BRANCH  13  15
ATOM     15  C   UNL     1       2.411  -5.144  23.472  0.00  0.00    +0.332 C 
ATOM     16  O   UNL     1       1.345  -4.667  23.826  0.00  0.00    -0.246 OA
BRANCH  15  17
ATOM     17  O   UNL     1       2.598  -6.157  22.591  0.00  0.00    -0.462 OA
BRANCH  17  19
ATOM     18  C   UNL     1       1.790  -8.196  23.650  0.00  0.00    +0.048 C 
ATOM     19  C   UNL     1       1.574  -7.165  22.561  0.00  0.00    +0.229 C 
ENDBRANCH  17  19
ENDBRANCH  15  17
ENDBRANCH  13  15
ENDBRANCH  12  14
BRANCH  12  20
ATOM     20  C   UNL     1       6.245  -4.110  25.318  0.00  0.00    +0.039 C 
BRANCH  20  21
ATOM     21  C   UNL     1       7.255  -3.990  26.473  0.00  0.00    +0.078 C 
ATOM     22  C   UNL     1       7.647  -5.323  27.057  0.00  0.00    +0.216 C 
ATOM     23  O   UNL     1       7.121  -5.861  28.015  0.00  0.00    -0.276 OA
ATOM     24  N   UNL     1       8.719  -5.798  26.328  0.00  0.00    -0.315 N 
ATOM     25  H   UNL     1       9.174  -6.663  26.587  0.00  0.00    +0.149 HD
ATOM     26  C   UNL     1       9.244  -4.822  25.422  0.00  0.00    +0.105 C 
ATOM     27  C   UNL     1       8.637  -3.537  25.959  0.00  0.00    +0.031 C 
ENDBRANCH  20  21
ENDBRANCH  12  20
ENDBRANCH   8  12
ENDBRANCH   1  10
BRANCH   1  28
ATOM     28  N   UNL     1       6.130   1.816  24.760  0.00  0.00    -0.299 N 
ATOM     29  H   UNL     1       6.371   1.884  25.741  0.00  0.00    +0.150 HD
ATOM     30  C   UNL     1       5.715   2.942  24.088  0.00  0.00    +0.235 C 
ATOM     31  O   UNL     1       5.524   2.956  22.874  0.00  0.00    -0.274 OA
BRANCH  30  32
ATOM     32  C   UNL     1       5.509   4.205  24.974  0.00  0.00    +0.165 C 
BRANCH  32  33
ATOM     33  N   UNL     1       6.648   5.122  24.902  0.00  0.00    -0.270 N 
ATOM     34  H   UNL     1       6.736   5.817  24.185  0.00  0.00    +0.153 HD
ATOM     35  C   UNL     1       7.735   4.883  25.706  0.00  0.00    +0.401 C 
ATOM     36  O   UNL     1       7.779   3.978  26.520  0.00  0.00    -0.226 OA
BRANCH  35  37
ATOM     37  O   UNL     1       8.732   5.752  25.428  0.00  0.00    -0.445 OA
BRANCH  37  38
ATOM     38  C   UNL     1       9.512   5.539  24.215  0.00  0.00    +0.107 C 
ATOM     39  C   UNL     1      10.915   6.139  24.339  0.00  0.00    +0.055 C 
ATOM     40  C   UNL     1       8.776   6.294  23.096  0.00  0.00    +0.055 C 
ATOM     41  C   UNL     1       9.553   4.050  23.837  0.00  0.00    +0.055 C 
ENDBRANCH  37  38
ENDBRANCH  35  37
ENDBRANCH  32  33
BRANCH  32  42
ATOM     42  C   UNL     1       4.143   4.887  24.725  0.00  0.00    +0.012 C 
ATOM     43  C   UNL     1       4.236   6.190  23.929  0.00  0.00    +0.009 C 
ATOM     44  C   UNL     1       3.392   5.132  26.040  0.00  0.00    +0.009 C 
ENDBRANCH  32  42
ENDBRANCH  30  32
ENDBRANCH   1  28
TORSDOF 15
ENDMDL
MODEL 5
REMARK VINA RESULT:      -5.4      2.074      8.564
REMARK  Name = 
REMARK  21 active torsions:
REMARK  status: ('A' for Active; 'I' for Inactive)
REMARK    1  A    between atoms: C_1  and  C_2
REMARK    2  A    between atoms: C_2  and  O_3
REMARK    3  A    between atoms: O_3  and  C_4
REMARK    4  A    between atoms: C_4  and  C_6
REMARK    5  A    between atoms: C_7  and  C_8
REMARK    6  A    between atoms: C_8  and  C_10
REMARK    7  A    between atoms: C_8  and  N_18
REMARK    8  A    between atoms: C_10  and  C_11
REMARK    9  A    between atoms: C_19  and  C_21
REMARK   10  A    between atoms: C_21  and  N_23
REMARK   11  A    between atoms: C_21  and  C_39
REMARK   12  A    between atoms: C_24  and  C_26
REMARK   13  A    between atoms: C_26  and  C_28
REMARK   14  A    between atoms: C_26  and  N_31
REMARK   15  A    between atoms: C_28  and  C_29
REMARK   16  A    between atoms: C_28  and  C_30
REMARK   17  A    between atoms: C_32  and  O_34
REMARK   18  A    between atoms: O_34  and  C_35
REMARK   19  A    between atoms: C_35  and  C_36
REMARK   20  A    between atoms: C_35  and  C_37
REMARK   21  A    between atoms: C_35  and  C_38
REMARK                            x       y       z     vdW  Elec       q    Type
REMARK                         _______ _______ _______ _____ _____    ______ ____
ROOT
ATOM      1  C   UNL     1       6.935  -1.041  27.078  0.00  0.00    +0.190 C 
ENDROOT
BRANCH   1   2
ATOM      2  C   UNL     1       5.724  -1.947  26.928  0.00  0.00    -0.018 A 
ATOM      3  C   UNL     1       5.791  -3.316  27.247  0.00  0.00    +0.006 A 
ATOM      4  C   UNL     1       4.666  -4.136  27.117  0.00  0.00    +0.000 A 
ATOM      5  C   UNL     1       3.460  -3.597  26.680  0.00  0.00    +0.000 A 
ATOM      6  C   UNL     1       3.384  -2.249  26.339  0.00  0.00    +0.000 A 
ATOM      7  C   UNL     1       4.511  -1.430  26.451  0.00  0.00    +0.006 A 
ENDBRANCH   1   2
BRANCH   1  10
ATOM      8  N   UNL     1       7.740  -2.143  24.969  0.00  0.00    -0.307 N 
ATOM      9  H   UNL     1       6.762  -2.373  24.834  0.00  0.00    +0.149 HD
ATOM     10  C   UNL     1       8.098  -1.431  26.106  0.00  0.00    +0.238 C 
ATOM     11  O   UNL     1       9.267  -1.105  26.338  0.00  0.00    -0.273 OA
BRANCH   8  12
ATOM     12  C   UNL     1       8.692  -2.513  23.930  0.00  0.00    +0.097 C 
BRANCH  12  14
ATOM     13  C   UNL     1       6.952  -4.195  23.128  0.00  0.00    +0.089 C 
ATOM     14  C   UNL     1       8.039  -3.431  22.925  0.00  0.00    +0.002 C 
BRANCH  13  15
ATOM     15  C   UNL     1       6.443  -5.057  22.032  0.00  0.00    +0.332 C 
ATOM     16  O   UNL     1       7.142  -5.722  21.285  0.00  0.00    -0.246 OA
BRANCH  15  17
ATOM     17  O   UNL     1       5.098  -4.906  21.970  0.00  0.00    -0.462 OA
BRANCH  17  19
ATOM     18  C   UNL     1       3.124  -5.175  23.371  0.00  0.00    +0.048 C 
ATOM     19  C   UNL     1       4.454  -4.476  23.181  0.00  0.00    +0.229 C 
ENDBRANCH  17  19
ENDBRANCH  15  17
ENDBRANCH  13  15
ENDBRANCH  12  14
BRANCH  12  20
ATOM     20  C   UNL     1       9.368  -1.310  23.226  0.00  0.00    +0.039 C 
BRANCH  20  21
ATOM     21  C   UNL     1       8.462  -0.355  22.428  0.00  0.00    +0.078 C 
ATOM     22  C   UNL     1       8.019   0.844  23.227  0.00  0.00    +0.216 C 
ATOM     23  O   UNL     1       6.983   0.929  23.864  0.00  0.00    -0.276 OA
ATOM     24  N   UNL     1       8.980   1.823  23.078  0.00  0.00    -0.315 N 
ATOM     25  H   UNL     1       8.853   2.736  23.494  0.00  0.00    +0.149 HD
ATOM     26  C   UNL     1       9.951   1.493  22.079  0.00  0.00    +0.105 C 
ATOM     27  C   UNL     1       9.255   0.373  21.324  0.00  0.00    +0.031 C 
ENDBRANCH  20  21
ENDBRANCH  12  20
ENDBRANCH   8  12
ENDBRANCH   1  10
BRANCH   1  28
ATOM     28  N   UNL     1       6.534   0.331  26.782  0.00  0.00    -0.299 N 
ATOM     29  H   UNL     1       6.004   0.474  25.933  0.00  0.00    +0.150 HD
ATOM     30  C   UNL     1       6.723   1.385  27.646  0.00  0.00    +0.235 C 
ATOM     31  O   UNL     1       7.251   1.253  28.747  0.00  0.00    -0.274 OA
BRANCH  30  32
ATOM     32  C   UNL     1       6.214   2.763  27.130  0.00  0.00    +0.165 C 
BRANCH  32  33
ATOM     33  N   UNL     1       6.756   3.092  25.809  0.00  0.00    -0.270 N 
ATOM     34  H   UNL     1       6.628   2.499  25.012  0.00  0.00    +0.153 HD
ATOM     35  C   UNL     1       7.649   4.128  25.707  0.00  0.00    +0.401 C 
ATOM     36  O   UNL     1       7.973   4.829  26.649  0.00  0.00    -0.226 OA
BRANCH  35  37
ATOM     37  O   UNL     1       8.131   4.218  24.447  0.00  0.00    -0.445 OA
BRANCH  37  38
ATOM     38  C   UNL     1       7.673   5.322  23.613  0.00  0.00    +0.107 C 
ATOM     39  C   UNL     1       6.422   5.984  24.198  0.00  0.00    +0.055 C 
ATOM     40  C   UNL     1       7.286   4.703  22.259  0.00  0.00    +0.055 C 
ATOM     41  C   UNL     1       8.800   6.337  23.367  0.00  0.00    +0.055 C 
ENDBRANCH  37  38
ENDBRANCH  35  37
ENDBRANCH  32  33
BRANCH  32  42
ATOM     42  C   UNL     1       4.676   2.899  27.224  0.00  0.00    +0.012 C 
ATOM     43  C   UNL     1       4.047   2.067  28.343  0.00  0.00    +0.009 C 
ATOM     44  C   UNL     1       4.002   2.567  25.886  0.00  0.00    +0.009 C 
ENDBRANCH  32  42
ENDBRANCH  30  32
ENDBRANCH   1  28
TORSDOF 15
ENDMDL
MODEL 6
REMARK VINA RESULT:      -5.3      2.055      6.364
REMARK  Name = 
REMARK  21 active torsions:
REMARK  status: ('A' for Active; 'I' for Inactive)
REMARK    1  A    between atoms: C_1  and  C_2
REMARK    2  A    between atoms: C_2  and  O_3
REMARK    3  A    between atoms: O_3  and  C_4
REMARK    4  A    between atoms: C_4  and  C_6
REMARK    5  A    between atoms: C_7  and  C_8
REMARK    6  A    between atoms: C_8  and  C_10
REMARK    7  A    between atoms: C_8  and  N_18
REMARK    8  A    between atoms: C_10  and  C_11
REMARK    9  A    between atoms: C_19  and  C_21
REMARK   10  A    between atoms: C_21  and  N_23
REMARK   11  A    between atoms: C_21  and  C_39
REMARK   12  A    between atoms: C_24  and  C_26
REMARK   13  A    between atoms: C_26  and  C_28
REMARK   14  A    between atoms: C_26  and  N_31
REMARK   15  A    between atoms: C_28  and  C_29
REMARK   16  A    between atoms: C_28  and  C_30
REMARK   17  A    between atoms: C_32  and  O_34
REMARK   18  A    between atoms: O_34  and  C_35
REMARK   19  A    between atoms: C_35  and  C_36
REMARK   20  A    between atoms: C_35  and  C_37
REMARK   21  A    between atoms: C_35  and  C_38
REMARK                            x       y       z     vdW  Elec       q    Type
REMARK                         _______ _______ _______ _____ _____    ______ ____
ROOT
ATOM      1  C   UNL     1       7.565   0.560  26.095  0.00  0.00    +0.190 C 
ENDROOT
BRANCH   1   2
ATOM      2  C   UNL     1       7.405   2.033  26.434  0.00  0.00    -0.018 A 
ATOM      3  C   UNL     1       7.792   3.038  25.529  0.00  0.00    +0.006 A 
ATOM      4  C   UNL     1       7.628   4.389  25.848  0.00  0.00    +0.000 A 
ATOM      5  C   UNL     1       7.064   4.753  27.067  0.00  0.00    +0.000 A 
ATOM      6  C   UNL     1       6.696   3.770  27.982  0.00  0.00    +0.000 A 
ATOM      7  C   UNL     1       6.875   2.418  27.675  0.00  0.00    +0.006 A 
ENDBRANCH   1   2
BRANCH   1  10
ATOM      8  N   UNL     1       6.137  -1.208  27.167  0.00  0.00    -0.307 N 
ATOM      9  H   UNL     1       6.948  -1.365  27.755  0.00  0.00    +0.149 HD
ATOM     10  C   UNL     1       6.214  -0.225  26.189  0.00  0.00    +0.238 C 
ATOM     11  O   UNL     1       5.267   0.033  25.439  0.00  0.00    -0.273 OA
BRANCH   8  12
ATOM     12  C   UNL     1       4.926  -1.973  27.431  0.00  0.00    +0.097 C 
BRANCH  12  14
ATOM     13  C   UNL     1       6.431  -4.025  27.270  0.00  0.00    +0.089 C 
ATOM     14  C   UNL     1       5.251  -3.443  27.547  0.00  0.00    +0.002 C 
BRANCH  13  15
ATOM     15  C   UNL     1       6.580  -5.494  27.423  0.00  0.00    +0.332 C 
ATOM     16  O   UNL     1       6.946  -6.056  28.442  0.00  0.00    -0.246 OA
BRANCH  15  17
ATOM     17  O   UNL     1       6.319  -6.069  26.224  0.00  0.00    -0.462 OA
BRANCH  17  19
ATOM     18  C   UNL     1       4.579  -6.693  24.638  0.00  0.00    +0.048 C 
ATOM     19  C   UNL     1       5.025  -6.680  26.086  0.00  0.00    +0.229 C 
ENDBRANCH  17  19
ENDBRANCH  15  17
ENDBRANCH  13  15
ENDBRANCH  12  14
BRANCH  12  20
ATOM     20  C   UNL     1       4.119  -1.485  28.661  0.00  0.00    +0.039 C 
BRANCH  20  21
ATOM     21  C   UNL     1       3.648  -0.021  28.666  0.00  0.00    +0.078 C 
ATOM     22  C   UNL     1       2.352   0.185  27.924  0.00  0.00    +0.216 C 
ATOM     23  O   UNL     1       2.247   0.504  26.752  0.00  0.00    -0.276 OA
ATOM     24  N   UNL     1       1.322  -0.024  28.819  0.00  0.00    -0.315 N 
ATOM     25  H   UNL     1       0.360   0.114  28.537  0.00  0.00    +0.149 HD
ATOM     26  C   UNL     1       1.783  -0.151  30.167  0.00  0.00    +0.105 C 
ATOM     27  C   UNL     1       3.190   0.413  30.073  0.00  0.00    +0.031 C 
ENDBRANCH  20  21
ENDBRANCH  12  20
ENDBRANCH   8  12
ENDBRANCH   1  10
BRANCH   1  28
ATOM     28  N   UNL     1       8.065   0.445  24.729  0.00  0.00    -0.299 N 
ATOM     29  H   UNL     1       7.398   0.610  23.986  0.00  0.00    +0.150 HD
ATOM     30  C   UNL     1       9.391   0.259  24.414  0.00  0.00    +0.235 C 
ATOM     31  O   UNL     1      10.269   0.173  25.269  0.00  0.00    -0.274 OA
BRANCH  30  32
ATOM     32  C   UNL     1       9.704   0.168  22.892  0.00  0.00    +0.165 C 
BRANCH  32  33
ATOM     33  N   UNL     1       8.803  -0.754  22.197  0.00  0.00    -0.270 N 
ATOM     34  H   UNL     1       7.939  -0.456  21.787  0.00  0.00    +0.153 HD
ATOM     35  C   UNL     1       9.039  -2.102  22.299  0.00  0.00    +0.401 C 
ATOM     36  O   UNL     1       9.993  -2.573  22.891  0.00  0.00    -0.226 OA
BRANCH  35  37
ATOM     37  O   UNL     1       8.052  -2.804  21.697  0.00  0.00    -0.445 OA
BRANCH  37  38
ATOM     38  C   UNL     1       7.092  -3.501  22.543  0.00  0.00    +0.107 C 
ATOM     39  C   UNL     1       7.278  -5.019  22.469  0.00  0.00    +0.055 C 
ATOM     40  C   UNL     1       5.702  -3.172  21.972  0.00  0.00    +0.055 C 
ATOM     41  C   UNL     1       7.147  -2.983  23.989  0.00  0.00    +0.055 C 
ENDBRANCH  37  38
ENDBRANCH  35  37
ENDBRANCH  32  33
BRANCH  32  42
ATOM     42  C   UNL     1       9.807   1.560  22.225  0.00  0.00    +0.012 C 
ATOM     43  C   UNL     1      10.487   2.617  23.096  0.00  0.00    +0.009 C 
ATOM     44  C   UNL     1       8.432   2.065  21.771  0.00  0.00    +0.009 C 
ENDBRANCH  32  42
ENDBRANCH  30  32
ENDBRANCH   1  28
TORSDOF 15
ENDMDL
MODEL 7
REMARK VINA RESULT:      -5.2      1.850      7.807
REMARK  Name = 
REMARK  21 active torsions:
REMARK  status: ('A' for Active; 'I' for Inactive)
REMARK    1  A    between atoms: C_1  and  C_2
REMARK    2  A    between atoms: C_2  and  O_3
REMARK    3  A    between atoms: O_3  and  C_4
REMARK    4  A    between atoms: C_4  and  C_6
REMARK    5  A    between atoms: C_7  and  C_8
REMARK    6  A    between atoms: C_8  and  C_10
REMARK    7  A    between atoms: C_8  and  N_18
REMARK    8  A    between atoms: C_10  and  C_11
REMARK    9  A    between atoms: C_19  and  C_21
REMARK   10  A    between atoms: C_21  and  N_23
REMARK   11  A    between atoms: C_21  and  C_39
REMARK   12  A    between atoms: C_24  and  C_26
REMARK   13  A    between atoms: C_26  and  C_28
REMARK   14  A    between atoms: C_26  and  N_31
REMARK   15  A    between atoms: C_28  and  C_29
REMARK   16  A    between atoms: C_28  and  C_30
REMARK   17  A    between atoms: C_32  and  O_34
REMARK   18  A    between atoms: O_34  and  C_35
REMARK   19  A    between atoms: C_35  and  C_36
REMARK   20  A    between atoms: C_35  and  C_37
REMARK   21  A    between atoms: C_35  and  C_38
REMARK                            x       y       z     vdW  Elec       q    Type
REMARK                         _______ _______ _______ _____ _____    ______ ____
ROOT
ATOM      1  C   UNL     1       7.427  -0.315  24.384  0.00  0.00    +0.190 C 
ENDROOT
BRANCH   1   2
ATOM      2  C   UNL     1       8.446   0.640  23.785  0.00  0.00    -0.018 A 
ATOM      3  C   UNL     1       9.069   1.629  24.567  0.00  0.00    +0.006 A 
ATOM      4  C   UNL     1      10.015   2.493  24.007  0.00  0.00    +0.000 A 
ATOM      5  C   UNL     1      10.359   2.371  22.664  0.00  0.00    +0.000 A 
ATOM      6  C   UNL     1       9.734   1.411  21.872  0.00  0.00    +0.000 A 
ATOM      7  C   UNL     1       8.775   0.558  22.424  0.00  0.00    +0.006 A 
ENDBRANCH   1   2
BRANCH   1  10
ATOM      8  N   UNL     1       7.162  -2.741  24.982  0.00  0.00    -0.307 N 
ATOM      9  H   UNL     1       6.170  -2.552  24.894  0.00  0.00    +0.149 HD
ATOM     10  C   UNL     1       8.053  -1.699  24.761  0.00  0.00    +0.238 C 
ATOM     11  O   UNL     1       9.276  -1.851  24.840  0.00  0.00    -0.273 OA
BRANCH   8  12
ATOM     12  C   UNL     1       7.589  -4.105  25.266  0.00  0.00    +0.097 C 
BRANCH  12  14
ATOM     13  C   UNL     1       7.155  -5.596  27.288  0.00  0.00    +0.089 C 
ATOM     14  C   UNL     1       6.752  -4.694  26.377  0.00  0.00    +0.002 C 
BRANCH  13  15
ATOM     15  C   UNL     1       6.197  -6.087  28.311  0.00  0.00    +0.332 C 
ATOM     16  O   UNL     1       5.536  -7.108  28.215  0.00  0.00    -0.246 OA
BRANCH  15  17
ATOM     17  O   UNL     1       6.139  -5.168  29.305  0.00  0.00    -0.462 OA
BRANCH  17  19
ATOM     18  C   UNL     1       4.161  -3.781  28.991  0.00  0.00    +0.048 C 
ATOM     19  C   UNL     1       4.827  -4.868  29.811  0.00  0.00    +0.229 C 
ENDBRANCH  17  19
ENDBRANCH  15  17
ENDBRANCH  13  15
ENDBRANCH  12  14
BRANCH  12  20
ATOM     20  C   UNL     1       7.604  -5.039  24.029  0.00  0.00    +0.039 C 
BRANCH  20  21
ATOM     21  C   UNL     1       6.246  -5.463  23.443  0.00  0.00    +0.078 C 
ATOM     22  C   UNL     1       5.565  -4.361  22.672  0.00  0.00    +0.216 C 
ATOM     23  O   UNL     1       4.749  -3.577  23.125  0.00  0.00    -0.276 OA
ATOM     24  N   UNL     1       6.013  -4.427  21.368  0.00  0.00    -0.315 N 
ATOM     25  H   UNL     1       5.640  -3.803  20.665  0.00  0.00    +0.149 HD
ATOM     26  C   UNL     1       6.785  -5.604  21.111  0.00  0.00    +0.105 C 
ATOM     27  C   UNL     1       6.427  -6.480  22.299  0.00  0.00    +0.031 C 
ENDBRANCH  20  21
ENDBRANCH  12  20
ENDBRANCH   8  12
ENDBRANCH   1  10
BRANCH   1  28
ATOM     28  N   UNL     1       6.880   0.283  25.598  0.00  0.00    -0.299 N 
ATOM     29  H   UNL     1       7.467   0.955  26.076  0.00  0.00    +0.150 HD
ATOM     30  C   UNL     1       5.592   0.083  26.035  0.00  0.00    +0.235 C 
ATOM     31  O   UNL     1       4.790  -0.626  25.431  0.00  0.00    -0.274 OA
BRANCH  30  32
ATOM     32  C   UNL     1       5.216   0.822  27.353  0.00  0.00    +0.165 C 
BRANCH  32  33
ATOM     33  N   UNL     1       5.046   2.263  27.148  0.00  0.00    -0.270 N 
ATOM     34  H   UNL     1       4.235   2.652  26.705  0.00  0.00    +0.153 HD
ATOM     35  C   UNL     1       6.121   3.087  27.367  0.00  0.00    +0.401 C 
ATOM     36  O   UNL     1       7.196   2.691  27.780  0.00  0.00    -0.226 OA
BRANCH  35  37
ATOM     37  O   UNL     1       5.822   4.360  27.021  0.00  0.00    -0.445 OA
BRANCH  37  38
ATOM     38  C   UNL     1       6.414   4.896  25.802  0.00  0.00    +0.107 C 
ATOM     39  C   UNL     1       5.719   6.189  25.366  0.00  0.00    +0.055 C 
ATOM     40  C   UNL     1       6.172   3.842  24.710  0.00  0.00    +0.055 C 
ATOM     41  C   UNL     1       7.931   5.082  25.957  0.00  0.00    +0.055 C 
ENDBRANCH  37  38
ENDBRANCH  35  37
ENDBRANCH  32  33
BRANCH  32  42
ATOM     42  C   UNL     1       4.032   0.154  28.090  0.00  0.00    +0.012 C 
ATOM     43  C   UNL     1       2.711   0.913  27.959  0.00  0.00    +0.009 C 
ATOM     44  C   UNL     1       4.354  -0.078  29.572  0.00  0.00    +0.009 C 
ENDBRANCH  32  42
ENDBRANCH  30  32
ENDBRANCH   1  28
TORSDOF 15
ENDMDL
MODEL 8
REMARK VINA RESULT:      -5.2      1.961      8.049
REMARK  Name = 
REMARK  21 active torsions:
REMARK  status: ('A' for Active; 'I' for Inactive)
REMARK    1  A    between atoms: C_1  and  C_2
REMARK    2  A    between atoms: C_2  and  O_3
REMARK    3  A    between atoms: O_3  and  C_4
REMARK    4  A    between atoms: C_4  and  C_6
REMARK    5  A    between atoms: C_7  and  C_8
REMARK    6  A    between atoms: C_8  and  C_10
REMARK    7  A    between atoms: C_8  and  N_18
REMARK    8  A    between atoms: C_10  and  C_11
REMARK    9  A    between atoms: C_19  and  C_21
REMARK   10  A    between atoms: C_21  and  N_23
REMARK   11  A    between atoms: C_21  and  C_39
REMARK   12  A    between atoms: C_24  and  C_26
REMARK   13  A    between atoms: C_26  and  C_28
REMARK   14  A    between atoms: C_26  and  N_31
REMARK   15  A    between atoms: C_28  and  C_29
REMARK   16  A    between atoms: C_28  and  C_30
REMARK   17  A    between atoms: C_32  and  O_34
REMARK   18  A    between atoms: O_34  and  C_35
REMARK   19  A    between atoms: C_35  and  C_36
REMARK   20  A    between atoms: C_35  and  C_37
REMARK   21  A    between atoms: C_35  and  C_38
REMARK                            x       y       z     vdW  Elec       q    Type
REMARK                         _______ _______ _______ _____ _____    ______ ____
ROOT
ATOM      1  C   UNL     1       7.078   1.473  26.772  0.00  0.00    +0.190 C 
ENDROOT
BRANCH   1   2
ATOM      2  C   UNL     1       5.578   1.666  26.926  0.00  0.00    -0.018 A 
ATOM      3  C   UNL     1       4.917   1.330  28.121  0.00  0.00    +0.006 A 
ATOM      4  C   UNL     1       3.539   1.524  28.254  0.00  0.00    +0.000 A 
ATOM      5  C   UNL     1       2.808   2.067  27.202  0.00  0.00    +0.000 A 
ATOM      6  C   UNL     1       3.445   2.384  26.005  0.00  0.00    +0.000 A 
ATOM      7  C   UNL     1       4.819   2.175  25.861  0.00  0.00    +0.006 A 
ENDBRANCH   1   2
BRANCH   1  10
ATOM      8  N   UNL     1       6.607  -0.829  25.883  0.00  0.00    -0.307 N 
ATOM      9  H   UNL     1       5.774  -0.400  25.495  0.00  0.00    +0.149 HD
ATOM     10  C   UNL     1       7.475  -0.033  26.619  0.00  0.00    +0.238 C 
ATOM     11  O   UNL     1       8.515  -0.477  27.116  0.00  0.00    -0.273 OA
BRANCH   8  12
ATOM     12  C   UNL     1       6.873  -2.230  25.586  0.00  0.00    +0.097 C 
BRANCH  12  14
ATOM     13  C   UNL     1       6.639  -4.326  27.018  0.00  0.00    +0.089 C 
ATOM     14  C   UNL     1       6.214  -3.117  26.616  0.00  0.00    +0.002 C 
BRANCH  13  15
ATOM     15  C   UNL     1       5.862  -5.079  28.036  0.00  0.00    +0.332 C 
ATOM     16  O   UNL     1       6.199  -5.232  29.199  0.00  0.00    -0.246 OA
BRANCH  15  17
ATOM     17  O   UNL     1       4.779  -5.615  27.424  0.00  0.00    -0.462 OA
BRANCH  17  19
ATOM     18  C   UNL     1       4.232  -6.422  25.192  0.00  0.00    +0.048 C 
ATOM     19  C   UNL     1       5.046  -6.639  26.451  0.00  0.00    +0.229 C 
ENDBRANCH  17  19
ENDBRANCH  15  17
ENDBRANCH  13  15
ENDBRANCH  12  14
BRANCH  12  20
ATOM     20  C   UNL     1       6.481  -2.663  24.151  0.00  0.00    +0.039 C 
BRANCH  20  21
ATOM     21  C   UNL     1       7.611  -3.135  23.219  0.00  0.00    +0.078 C 
ATOM     22  C   UNL     1       8.628  -4.003  23.916  0.00  0.00    +0.216 C 
ATOM     23  O   UNL     1       9.664  -3.614  24.426  0.00  0.00    -0.276 OA
ATOM     24  N   UNL     1       8.183  -5.308  23.841  0.00  0.00    -0.315 N 
ATOM     25  H   UNL     1       8.747  -6.065  24.205  0.00  0.00    +0.149 HD
ATOM     26  C   UNL     1       7.054  -5.455  22.973  0.00  0.00    +0.105 C 
ATOM     27  C   UNL     1       7.092  -4.156  22.186  0.00  0.00    +0.031 C 
ENDBRANCH  20  21
ENDBRANCH  12  20
ENDBRANCH   8  12
ENDBRANCH   1  10
BRANCH   1  28
ATOM     28  N   UNL     1       7.522   2.185  25.577  0.00  0.00    -0.299 N 
ATOM     29  H   UNL     1       7.420   1.699  24.696  0.00  0.00    +0.150 HD
ATOM     30  C   UNL     1       7.937   3.497  25.580  0.00  0.00    +0.235 C 
ATOM     31  O   UNL     1       7.968   4.180  26.601  0.00  0.00    -0.274 OA
BRANCH  30  32
ATOM     32  C   UNL     1       8.364   4.060  24.193  0.00  0.00    +0.165 C 
BRANCH  32  33
ATOM     33  N   UNL     1       8.621   2.995  23.221  0.00  0.00    -0.270 N 
ATOM     34  H   UNL     1       7.889   2.432  22.831  0.00  0.00    +0.153 HD
ATOM     35  C   UNL     1       9.919   2.608  23.001  0.00  0.00    +0.401 C 
ATOM     36  O   UNL     1      10.877   3.143  23.530  0.00  0.00    -0.226 OA
BRANCH  35  37
ATOM     37  O   UNL     1       9.964   1.544  22.167  0.00  0.00    -0.445 OA
BRANCH  37  38
ATOM     38  C   UNL     1       9.405   0.282  22.634  0.00  0.00    +0.107 C 
ATOM     39  C   UNL     1      10.000  -0.129  23.983  0.00  0.00    +0.055 C 
ATOM     40  C   UNL     1       9.816  -0.777  21.597  0.00  0.00    +0.055 C 
ATOM     41  C   UNL     1       7.870   0.337  22.674  0.00  0.00    +0.055 C 
ENDBRANCH  37  38
ENDBRANCH  35  37
ENDBRANCH  32  33
BRANCH  32  42
ATOM     42  C   UNL     1       7.401   5.155  23.677  0.00  0.00    +0.012 C 
ATOM     43  C   UNL     1       6.170   4.608  22.952  0.00  0.00    +0.009 C 
ATOM     44  C   UNL     1       8.130   6.162  22.778  0.00  0.00    +0.009 C 
ENDBRANCH  32  42
ENDBRANCH  30  32
ENDBRANCH   1  28
TORSDOF 15
ENDMDL
MODEL 9
REMARK VINA RESULT:      -5.2      1.744      3.473
REMARK  Name = 
REMARK  21 active torsions:
REMARK  status: ('A' for Active; 'I' for Inactive)
REMARK    1  A    between atoms: C_1  and  C_2
REMARK    2  A    between atoms: C_2  and  O_3
REMARK    3  A    between atoms: O_3  and  C_4
REMARK    4  A    between atoms: C_4  and  C_6
REMARK    5  A    between atoms: C_7  and  C_8
REMARK    6  A    between atoms: C_8  and  C_10
REMARK    7  A    between atoms: C_8  and  N_18
REMARK    8  A    between atoms: C_10  and  C_11
REMARK    9  A    between atoms: C_19  and  C_21
REMARK   10  A    between atoms: C_21  and  N_23
REMARK   11  A    between atoms: C_21  and  C_39
REMARK   12  A    between atoms: C_24  and  C_26
REMARK   13  A    between atoms: C_26  and  C_28
REMARK   14  A    between atoms: C_26  and  N_31
REMARK   15  A    between atoms: C_28  and  C_29
REMARK   16  A    between atoms: C_28  and  C_30
REMARK   17  A    between atoms: C_32  and  O_34
REMARK   18  A    between atoms: O_34  and  C_35
REMARK   19  A    between atoms: C_35  and  C_36
REMARK   20  A    between atoms: C_35  and  C_37
REMARK   21  A    between atoms: C_35  and  C_38
REMARK                            x       y       z     vdW  Elec       q    Type
REMARK                         _______ _______ _______ _____ _____    ______ ____
ROOT
ATOM      1  C   UNL     1       8.203  -1.092  26.546  0.00  0.00    +0.190 C 
ENDROOT
BRANCH   1   2
ATOM      2  C   UNL     1       8.620  -0.801  25.114  0.00  0.00    -0.018 A 
ATOM      3  C   UNL     1       7.736  -1.005  24.039  0.00  0.00    +0.006 A 
ATOM      4  C   UNL     1       8.127  -0.722  22.727  0.00  0.00    +0.000 A 
ATOM      5  C   UNL     1       9.400  -0.219  22.474  0.00  0.00    +0.000 A 
ATOM      6  C   UNL     1      10.295  -0.033  23.526  0.00  0.00    +0.000 A 
ATOM      7  C   UNL     1       9.913  -0.332  24.837  0.00  0.00    +0.006 A 
ENDBRANCH   1   2
BRANCH   1  10
ATOM      8  N   UNL     1       7.475   1.312  26.574  0.00  0.00    -0.307 N 
ATOM      9  H   UNL     1       7.481   1.222  25.565  0.00  0.00    +0.149 HD
ATOM     10  C   UNL     1       7.830   0.206  27.336  0.00  0.00    +0.238 C 
ATOM     11  O   UNL     1       7.838   0.233  28.571  0.00  0.00    -0.273 OA
BRANCH   8  12
ATOM     12  C   UNL     1       7.029   2.570  27.159  0.00  0.00    +0.097 C 
BRANCH  12  14
ATOM     13  C   UNL     1       8.274   3.673  25.227  0.00  0.00    +0.089 C 
ATOM     14  C   UNL     1       7.456   3.730  26.291  0.00  0.00    +0.002 C 
BRANCH  13  15
ATOM     15  C   UNL     1       8.607   4.917  24.487  0.00  0.00    +0.332 C 
ATOM     16  O   UNL     1       8.827   6.000  25.006  0.00  0.00    -0.246 OA
BRANCH  15  17
ATOM     17  O   UNL     1       8.542   4.646  23.161  0.00  0.00    -0.462 OA
BRANCH  17  19
ATOM     18  C   UNL     1       7.341   2.906  21.952  0.00  0.00    +0.048 C 
ATOM     19  C   UNL     1       7.256   4.242  22.662  0.00  0.00    +0.229 C 
ENDBRANCH  17  19
ENDBRANCH  15  17
ENDBRANCH  13  15
ENDBRANCH  12  14
BRANCH  12  20
ATOM     20  C   UNL     1       5.510   2.631  27.458  0.00  0.00    +0.039 C 
BRANCH  20  21
ATOM     21  C   UNL     1       4.550   2.157  26.354  0.00  0.00    +0.078 C 
ATOM     22  C   UNL     1       4.069   0.742  26.557  0.00  0.00    +0.216 C 
ATOM     23  O   UNL     1       4.579  -0.257  26.079  0.00  0.00    -0.276 OA
ATOM     24  N   UNL     1       2.940   0.795  27.349  0.00  0.00    -0.315 N 
ATOM     25  H   UNL     1       2.425  -0.048  27.567  0.00  0.00    +0.149 HD
ATOM     26  C   UNL     1       2.468   2.132  27.545  0.00  0.00    +0.105 C 
ATOM     27  C   UNL     1       3.194   2.885  26.443  0.00  0.00    +0.031 C 
ENDBRANCH  20  21
ENDBRANCH  12  20
ENDBRANCH   8  12
ENDBRANCH   1  10
BRANCH   1  28
ATOM     28  N   UNL     1       7.034  -1.965  26.526  0.00  0.00    -0.299 N 
ATOM     29  H   UNL     1       6.164  -1.551  26.217  0.00  0.00    +0.150 HD
ATOM     30  C   UNL     1       7.086  -3.317  26.773  0.00  0.00    +0.235 C 
ATOM     31  O   UNL     1       8.134  -3.903  27.035  0.00  0.00    -0.274 OA
BRANCH  30  32
ATOM     32  C   UNL     1       5.719  -4.058  26.695  0.00  0.00    +0.165 C 
BRANCH  32  33
ATOM     33  N   UNL     1       5.561  -4.793  25.438  0.00  0.00    -0.270 N 
ATOM     34  H   UNL     1       5.936  -5.713  25.301  0.00  0.00    +0.153 HD
ATOM     35  C   UNL     1       5.079  -4.122  24.342  0.00  0.00    +0.401 C 
ATOM     36  O   UNL     1       4.721  -2.958  24.374  0.00  0.00    -0.226 OA
BRANCH  35  37
ATOM     37  O   UNL     1       5.108  -4.916  23.248  0.00  0.00    -0.445 OA
BRANCH  37  38
ATOM     38  C   UNL     1       6.228  -4.776  22.327  0.00  0.00    +0.107 C 
ATOM     39  C   UNL     1       7.550  -4.595  23.077  0.00  0.00    +0.055 C 
ATOM     40  C   UNL     1       5.964  -3.490  21.525  0.00  0.00    +0.055 C 
ATOM     41  C   UNL     1       6.283  -5.950  21.338  0.00  0.00    +0.055 C 
ENDBRANCH  37  38
ENDBRANCH  35  37
ENDBRANCH  32  33
BRANCH  32  42
ATOM     42  C   UNL     1       5.434  -4.910  27.955  0.00  0.00    +0.012 C 
ATOM     43  C   UNL     1       5.278  -6.404  27.671  0.00  0.00    +0.009 C 
ATOM     44  C   UNL     1       4.204  -4.392  28.713  0.00  0.00    +0.009 C 
ENDBRANCH  32  42
ENDBRANCH  30  32
ENDBRANCH   1  28
TORSDOF 15
ENDMDL
