MODEL 1
REMARK VINA RESULT:      -7.9      0.000      0.000
REMARK  Name = 
REMARK  16 active torsions:
REMARK  status: ('A' for Active; 'I' for Inactive)
REMARK    1  A    between atoms: C_1  and  N_2
REMARK    2  A    between atoms: N_2  and  C_3
REMARK    3  A    between atoms: N_2  and  C_4
REMARK    4  A    between atoms: C_13  and  S_14
REMARK    5  A    between atoms: S_14  and  N_17
REMARK    6  A    between atoms: N_17  and  C_18
REMARK    7  A    between atoms: C_18  and  C_20
REMARK    8  A    between atoms: C_18  and  C_44
REMARK    9  A    between atoms: C_20  and  C_21
REMARK   10  A    between atoms: C_24  and  O_25
REMARK   11  A    between atoms: O_25  and  S_26
REMARK   12  A    between atoms: S_26  and  C_29
REMARK   13  A    between atoms: C_38  and  N_39
REMARK   14  A    between atoms: N_39  and  C_40
REMARK   15  A    between atoms: N_39  and  C_41
REMARK   16  A    between atoms: C_44  and  O_45
REMARK                            x       y       z     vdW  Elec       q    Type
REMARK                         _______ _______ _______ _____ _____    ______ ____
ROOT
ATOM      1  C   UNL     1      11.444   3.718  23.251  0.00  0.00    +0.067 C 
ENDROOT
BRANCH   1   2
ATOM      2  C   UNL     1      10.556   2.490  23.305  0.00  0.00    -0.045 A 
ATOM      3  C   UNL     1      10.297   1.811  24.490  0.00  0.00    +0.007 A 
ATOM      4  C   UNL     1       9.512   0.676  24.545  0.00  0.00    +0.049 A 
ATOM      5  C   UNL     1       8.953   0.161  23.391  0.00  0.00    +0.157 A 
ATOM      6  C   UNL     1       9.201   0.800  22.176  0.00  0.00    +0.049 A 
ATOM      7  C   UNL     1      10.013   1.947  22.131  0.00  0.00    +0.007 A 
BRANCH   5   8
ATOM      8  O   UNL     1       8.152  -0.950  23.396  0.00  0.00    -0.342 OA
BRANCH   8   9
ATOM      9  S   UNL     1       8.742  -2.391  22.881  0.00  0.00    +0.152 S 
ATOM     10  O   UNL     1      10.191  -2.339  22.787  0.00  0.00    -0.131 OA
ATOM     11  O   UNL     1       7.954  -2.812  21.735  0.00  0.00    -0.131 OA
BRANCH   9  12
ATOM     12  C   UNL     1       8.382  -3.492  24.224  0.00  0.00    +0.136 A 
ATOM     13  C   UNL     1       7.040  -3.719  24.653  0.00  0.00    +0.012 A 
ATOM     14  C   UNL     1       5.908  -3.192  23.989  0.00  0.00    +0.010 A 
ATOM     15  C   UNL     1       4.622  -3.444  24.431  0.00  0.00    +0.002 A 
ATOM     16  C   UNL     1       4.426  -4.159  25.605  0.00  0.00    +0.024 A 
ATOM     17  C   UNL     1       5.495  -4.684  26.357  0.00  0.00    +0.037 A 
ATOM     18  C   UNL     1       6.824  -4.534  25.802  0.00  0.00    +0.005 A 
ATOM     19  C   UNL     1       7.968  -5.192  26.329  0.00  0.00    +0.010 A 
ATOM     20  C   UNL     1       9.271  -4.960  25.888  0.00  0.00    +0.003 A 
ATOM     21  C   UNL     1       9.484  -4.077  24.853  0.00  0.00    +0.031 A 
BRANCH  17  22
ATOM     22  N   UNL     1       5.243  -5.321  27.586  0.00  0.00    -0.336 N 
ATOM     23  C   UNL     1       4.733  -6.692  27.666  0.00  0.00    +0.129 C 
ATOM     24  C   UNL     1       4.906  -4.513  28.765  0.00  0.00    +0.129 C 
ENDBRANCH  17  22
ENDBRANCH   9  12
ENDBRANCH   8   9
ENDBRANCH   5   8
ENDBRANCH   1   2
BRANCH   1  25
ATOM     25  C   UNL     1      10.817   5.080  23.625  0.00  0.00    +0.189 C 
BRANCH  25  26
ATOM     26  N   UNL     1       9.570   5.092  24.458  0.00  0.00    -0.176 NA
ATOM     27  H   UNL     1       9.714   5.337  25.441  0.00  0.00    +0.149 HD
BRANCH  26  28
ATOM     28  S   UNL     1       8.093   5.697  23.871  0.00  0.00    +0.060 S 
ATOM     29  O   UNL     1       7.593   6.620  24.860  0.00  0.00    -0.153 OA
ATOM     30  O   UNL     1       8.259   6.074  22.489  0.00  0.00    -0.153 OA
BRANCH  28  36
ATOM     31  C   UNL     1       6.280   1.463  26.352  0.00  0.00    +0.037 A 
ATOM     32  C   UNL     1       6.359   2.258  25.158  0.00  0.00    +0.005 A 
ATOM     33  C   UNL     1       5.876   1.806  23.906  0.00  0.00    +0.010 A 
ATOM     34  C   UNL     1       6.094   2.474  22.702  0.00  0.00    +0.003 A 
ATOM     35  C   UNL     1       6.755   3.677  22.718  0.00  0.00    +0.029 A 
ATOM     36  C   UNL     1       7.131   4.225  23.947  0.00  0.00    +0.113 A 
ATOM     37  C   UNL     1       6.914   3.557  25.192  0.00  0.00    +0.010 A 
ATOM     38  C   UNL     1       7.233   4.108  26.464  0.00  0.00    +0.010 A 
ATOM     39  C   UNL     1       7.091   3.383  27.639  0.00  0.00    +0.002 A 
ATOM     40  C   UNL     1       6.633   2.070  27.571  0.00  0.00    +0.024 A 
BRANCH  31  42
ATOM     41  C   UNL     1       6.833  -0.907  26.788  0.00  0.00    +0.129 C 
ATOM     42  N   UNL     1       5.874   0.108  26.329  0.00  0.00    -0.336 N 
ATOM     43  C   UNL     1       4.470  -0.204  26.585  0.00  0.00    +0.129 C 
ENDBRANCH  31  42
ENDBRANCH  28  36
ENDBRANCH  26  28
ENDBRANCH  25  26
BRANCH  25  44
ATOM     44  C   UNL     1      11.844   6.020  24.254  0.00  0.00    +0.324 C 
ATOM     45  O   UNL     1      11.601   6.861  25.101  0.00  0.00    -0.249 OA
BRANCH  44  46
ATOM     46  O   UNL     1      13.114   5.748  23.854  0.00  0.00    -0.479 OA
ATOM     47  H   UNL     1      13.108   5.428  22.928  0.00  0.00    +0.295 HD
ENDBRANCH  44  46
ENDBRANCH  25  44
ENDBRANCH   1  25
TORSDOF 12
ENDMDL
MODEL 2
REMARK VINA RESULT:      -7.3      1.717      2.339
REMARK  Name = 
REMARK  16 active torsions:
REMARK  status: ('A' for Active; 'I' for Inactive)
REMARK    1  A    between atoms: C_1  and  N_2
REMARK    2  A    between atoms: N_2  and  C_3
REMARK    3  A    between atoms: N_2  and  C_4
REMARK    4  A    between atoms: C_13  and  S_14
REMARK    5  A    between atoms: S_14  and  N_17
REMARK    6  A    between atoms: N_17  and  C_18
REMARK    7  A    between atoms: C_18  and  C_20
REMARK    8  A    between atoms: C_18  and  C_44
REMARK    9  A    between atoms: C_20  and  C_21
REMARK   10  A    between atoms: C_24  and  O_25
REMARK   11  A    between atoms: O_25  and  S_26
REMARK   12  A    between atoms: S_26  and  C_29
REMARK   13  A    between atoms: C_38  and  N_39
REMARK   14  A    between atoms: N_39  and  C_40
REMARK   15  A    between atoms: N_39  and  C_41
REMARK   16  A    between atoms: C_44  and  O_45
REMARK                            x       y       z     vdW  Elec       q    Type
REMARK                         _______ _______ _______ _____ _____    ______ ____
ROOT
ATOM      1  C   UNL     1      11.323   2.972  23.436  0.00  0.00    +0.067 C 
ENDROOT
BRANCH   1   2
ATOM      2  C   UNL     1      10.372   1.792  23.482  0.00  0.00    -0.045 A 
ATOM      3  C   UNL     1       9.808   1.246  22.334  0.00  0.00    +0.007 A 
ATOM      4  C   UNL     1       8.920   0.190  22.368  0.00  0.00    +0.049 A 
ATOM      5  C   UNL     1       8.548  -0.368  23.577  0.00  0.00    +0.157 A 
ATOM      6  C   UNL     1       9.077   0.159  24.755  0.00  0.00    +0.049 A 
ATOM      7  C   UNL     1       9.969   1.244  24.709  0.00  0.00    +0.007 A 
BRANCH   5   8
ATOM      8  O   UNL     1       7.687  -1.429  23.662  0.00  0.00    -0.342 OA
BRANCH   8   9
ATOM      9  S   UNL     1       8.254  -2.920  24.044  0.00  0.00    +0.152 S 
ATOM     10  O   UNL     1       8.165  -3.142  25.477  0.00  0.00    -0.131 OA
ATOM     11  O   UNL     1       9.522  -3.103  23.358  0.00  0.00    -0.131 OA
BRANCH   9  12
ATOM     12  C   UNL     1       7.071  -4.017  23.308  0.00  0.00    +0.136 A 
ATOM     13  C   UNL     1       5.720  -4.061  23.766  0.00  0.00    +0.012 A 
ATOM     14  C   UNL     1       5.196  -3.179  24.738  0.00  0.00    +0.010 A 
ATOM     15  C   UNL     1       3.877  -3.248  25.149  0.00  0.00    +0.002 A 
ATOM     16  C   UNL     1       3.059  -4.261  24.666  0.00  0.00    +0.024 A 
ATOM     17  C   UNL     1       3.508  -5.211  23.729  0.00  0.00    +0.037 A 
ATOM     18  C   UNL     1       4.845  -5.036  23.204  0.00  0.00    +0.005 A 
ATOM     19  C   UNL     1       5.356  -5.778  22.105  0.00  0.00    +0.010 A 
ATOM     20  C   UNL     1       6.679  -5.712  21.668  0.00  0.00    +0.003 A 
ATOM     21  C   UNL     1       7.552  -4.853  22.297  0.00  0.00    +0.031 A 
BRANCH  17  22
ATOM     22  N   UNL     1       2.664  -6.270  23.343  0.00  0.00    -0.336 N 
ATOM     23  C   UNL     1       1.402  -6.045  22.634  0.00  0.00    +0.129 C 
ATOM     24  C   UNL     1       2.677  -7.522  24.110  0.00  0.00    +0.129 C 
ENDBRANCH  17  22
ENDBRANCH   9  12
ENDBRANCH   8   9
ENDBRANCH   5   8
ENDBRANCH   1   2
BRANCH   1  25
ATOM     25  C   UNL     1      10.712   4.390  23.361  0.00  0.00    +0.189 C 
BRANCH  25  26
ATOM     26  N   UNL     1       9.701   4.791  24.395  0.00  0.00    -0.176 NA
ATOM     27  H   UNL     1      10.099   5.184  25.252  0.00  0.00    +0.149 HD
BRANCH  26  28
ATOM     28  S   UNL     1       8.233   5.543  23.983  0.00  0.00    +0.060 S 
ATOM     29  O   UNL     1       7.908   6.450  25.057  0.00  0.00    -0.153 OA
ATOM     30  O   UNL     1       8.300   5.979  22.610  0.00  0.00    -0.153 OA
BRANCH  28  36
ATOM     31  C   UNL     1       6.023   1.572  26.574  0.00  0.00    +0.037 A 
ATOM     32  C   UNL     1       6.202   2.304  25.352  0.00  0.00    +0.005 A 
ATOM     33  C   UNL     1       5.729   1.832  24.103  0.00  0.00    +0.010 A 
ATOM     34  C   UNL     1       6.038   2.426  22.881  0.00  0.00    +0.003 A 
ATOM     35  C   UNL     1       6.786   3.577  22.869  0.00  0.00    +0.029 A 
ATOM     36  C   UNL     1       7.161   4.151  24.087  0.00  0.00    +0.113 A 
ATOM     37  C   UNL     1       6.852   3.558  25.350  0.00  0.00    +0.010 A 
ATOM     38  C   UNL     1       7.168   4.142  26.608  0.00  0.00    +0.010 A 
ATOM     39  C   UNL     1       6.932   3.484  27.807  0.00  0.00    +0.002 A 
ATOM     40  C   UNL     1       6.379   2.207  27.779  0.00  0.00    +0.024 A 
BRANCH  31  42
ATOM     41  C   UNL     1       6.389  -0.813  27.111  0.00  0.00    +0.129 C 
ATOM     42  N   UNL     1       5.516   0.251  26.595  0.00  0.00    -0.336 N 
ATOM     43  C   UNL     1       4.089   0.055  26.834  0.00  0.00    +0.129 C 
ENDBRANCH  31  42
ENDBRANCH  28  36
ENDBRANCH  26  28
ENDBRANCH  25  26
BRANCH  25  44
ATOM     44  C   UNL     1      11.792   5.466  23.279  0.00  0.00    +0.324 C 
ATOM     45  O   UNL     1      12.117   6.208  24.189  0.00  0.00    -0.249 OA
BRANCH  44  46
ATOM     46  O   UNL     1      12.460   5.446  22.094  0.00  0.00    -0.479 OA
ATOM     47  H   UNL     1      13.356   5.823  22.213  0.00  0.00    +0.295 HD
ENDBRANCH  44  46
ENDBRANCH  25  44
ENDBRANCH   1  25
TORSDOF 12
ENDMDL
MODEL 3
REMARK VINA RESULT:      -7.2      2.379      3.716
REMARK  Name = 
REMARK  16 active torsions:
REMARK  status: ('A' for Active; 'I' for Inactive)
REMARK    1  A    between atoms: C_1  and  N_2
REMARK    2  A    between atoms: N_2  and  C_3
REMARK    3  A    between atoms: N_2  and  C_4
REMARK    4  A    between atoms: C_13  and  S_14
REMARK    5  A    between atoms: S_14  and  N_17
REMARK    6  A    between atoms: N_17  and  C_18
REMARK    7  A    between atoms: C_18  and  C_20
REMARK    8  A    between atoms: C_18  and  C_44
REMARK    9  A    between atoms: C_20  and  C_21
REMARK   10  A    between atoms: C_24  and  O_25
REMARK   11  A    between atoms: O_25  and  S_26
REMARK   12  A    between atoms: S_26  and  C_29
REMARK   13  A    between atoms: C_38  and  N_39
REMARK   14  A    between atoms: N_39  and  C_40
REMARK   15  A    between atoms: N_39  and  C_41
REMARK   16  A    between atoms: C_44  and  O_45
REMARK                            x       y       z     vdW  Elec       q    Type
REMARK                         _______ _______ _______ _____ _____    ______ ____
ROOT
ATOM      1  C   UNL     1      10.161   1.950  24.598  0.00  0.00    +0.067 C 
ENDROOT
BRANCH   1   2
ATOM      2  C   UNL     1       9.984   0.451  24.449  0.00  0.00    -0.045 A 
ATOM      3  C   UNL     1      10.327  -0.225  23.284  0.00  0.00    +0.007 A 
ATOM      4  C   UNL     1      10.144  -1.585  23.129  0.00  0.00    +0.049 A 
ATOM      5  C   UNL     1       9.592  -2.333  24.151  0.00  0.00    +0.157 A 
ATOM      6  C   UNL     1       9.217  -1.692  25.332  0.00  0.00    +0.049 A 
ATOM      7  C   UNL     1       9.395  -0.305  25.473  0.00  0.00    +0.007 A 
BRANCH   5   8
ATOM      8  O   UNL     1       9.409  -3.687  24.053  0.00  0.00    -0.342 OA
BRANCH   8   9
ATOM      9  S   UNL     1       9.360  -4.610  25.409  0.00  0.00    +0.152 S 
ATOM     10  O   UNL     1       9.555  -3.785  26.588  0.00  0.00    -0.131 OA
ATOM     11  O   UNL     1      10.203  -5.772  25.187  0.00  0.00    -0.131 OA
BRANCH   9  12
ATOM     12  C   UNL     1       7.676  -5.162  25.476  0.00  0.00    +0.136 A 
ATOM     13  C   UNL     1       6.950  -5.463  24.284  0.00  0.00    +0.012 A 
ATOM     14  C   UNL     1       7.528  -5.458  22.994  0.00  0.00    +0.010 A 
ATOM     15  C   UNL     1       6.792  -5.764  21.864  0.00  0.00    +0.002 A 
ATOM     16  C   UNL     1       5.428  -6.000  21.976  0.00  0.00    +0.024 A 
ATOM     17  C   UNL     1       4.758  -5.983  23.214  0.00  0.00    +0.037 A 
ATOM     18  C   UNL     1       5.570  -5.803  24.398  0.00  0.00    +0.005 A 
ATOM     19  C   UNL     1       5.074  -5.977  25.719  0.00  0.00    +0.010 A 
ATOM     20  C   UNL     1       5.806  -5.685  26.870  0.00  0.00    +0.003 A 
ATOM     21  C   UNL     1       7.103  -5.240  26.748  0.00  0.00    +0.031 A 
BRANCH  17  22
ATOM     22  N   UNL     1       3.359  -6.139  23.258  0.00  0.00    -0.336 N 
ATOM     23  C   UNL     1       2.450  -5.001  23.417  0.00  0.00    +0.129 C 
ATOM     24  C   UNL     1       2.786  -7.403  23.735  0.00  0.00    +0.129 C 
ENDBRANCH  17  22
ENDBRANCH   9  12
ENDBRANCH   8   9
ENDBRANCH   5   8
ENDBRANCH   1   2
BRANCH   1  25
ATOM     25  C   UNL     1       9.956   2.831  23.344  0.00  0.00    +0.189 C 
BRANCH  25  26
ATOM     26  N   UNL     1       8.583   3.363  23.057  0.00  0.00    -0.176 NA
ATOM     27  H   UNL     1       8.565   4.290  22.626  0.00  0.00    +0.149 HD
BRANCH  26  28
ATOM     28  S   UNL     1       7.332   2.374  22.469  0.00  0.00    +0.060 S 
ATOM     29  O   UNL     1       6.304   3.250  21.963  0.00  0.00    -0.153 OA
ATOM     30  O   UNL     1       7.905   1.324  21.663  0.00  0.00    -0.153 OA
BRANCH  28  36
ATOM     31  C   UNL     1       5.155  -1.441  25.311  0.00  0.00    +0.037 A 
ATOM     32  C   UNL     1       5.720  -0.123  25.237  0.00  0.00    +0.005 A 
ATOM     33  C   UNL     1       5.655   0.798  26.311  0.00  0.00    +0.010 A 
ATOM     34  C   UNL     1       6.034   2.135  26.212  0.00  0.00    +0.003 A 
ATOM     35  C   UNL     1       6.568   2.591  25.032  0.00  0.00    +0.029 A 
ATOM     36  C   UNL     1       6.774   1.684  23.989  0.00  0.00    +0.113 A 
ATOM     37  C   UNL     1       6.395   0.309  24.073  0.00  0.00    +0.010 A 
ATOM     38  C   UNL     1       6.640  -0.654  23.054  0.00  0.00    +0.010 A 
ATOM     39  C   UNL     1       6.169  -1.956  23.141  0.00  0.00    +0.002 A 
ATOM     40  C   UNL     1       5.423  -2.332  24.254  0.00  0.00    +0.024 A 
BRANCH  31  42
ATOM     41  C   UNL     1       3.124  -2.614  26.091  0.00  0.00    +0.129 C 
ATOM     42  N   UNL     1       4.344  -1.854  26.395  0.00  0.00    -0.336 N 
ATOM     43  C   UNL     1       4.990  -2.195  27.659  0.00  0.00    +0.129 C 
ENDBRANCH  31  42
ENDBRANCH  28  36
ENDBRANCH  26  28
ENDBRANCH  25  26
BRANCH  25  44
ATOM     44  C   UNL     1      10.956   3.983  23.294  0.00  0.00    +0.324 C 
ATOM     45  O   UNL     1      12.167   3.867  23.354  0.00  0.00    -0.249 OA
BRANCH  44  46
ATOM     46  O   UNL     1      10.360   5.181  23.052  0.00  0.00    -0.479 OA
ATOM     47  H   UNL     1       9.493   5.038  22.618  0.00  0.00    +0.295 HD
ENDBRANCH  44  46
ENDBRANCH  25  44
ENDBRANCH   1  25
TORSDOF 12
ENDMDL
MODEL 4
REMARK VINA RESULT:      -7.2      3.372      9.403
REMARK  Name = 
REMARK  16 active torsions:
REMARK  status: ('A' for Active; 'I' for Inactive)
REMARK    1  A    between atoms: C_1  and  N_2
REMARK    2  A    between atoms: N_2  and  C_3
REMARK    3  A    between atoms: N_2  and  C_4
REMARK    4  A    between atoms: C_13  and  S_14
REMARK    5  A    between atoms: S_14  and  N_17
REMARK    6  A    between atoms: N_17  and  C_18
REMARK    7  A    between atoms: C_18  and  C_20
REMARK    8  A    between atoms: C_18  and  C_44
REMARK    9  A    between atoms: C_20  and  C_21
REMARK   10  A    between atoms: C_24  and  O_25
REMARK   11  A    between atoms: O_25  and  S_26
REMARK   12  A    between atoms: S_26  and  C_29
REMARK   13  A    between atoms: C_38  and  N_39
REMARK   14  A    between atoms: N_39  and  C_40
REMARK   15  A    between atoms: N_39  and  C_41
REMARK   16  A    between atoms: C_44  and  O_45
REMARK                            x       y       z     vdW  Elec       q    Type
REMARK                         _______ _______ _______ _____ _____    ______ ____
ROOT
ATOM      1  C   UNL     1       5.700  -4.570  28.183  0.00  0.00    +0.067 C 
ENDROOT
BRANCH   1   2
ATOM      2  C   UNL     1       5.486  -3.287  27.403  0.00  0.00    -0.045 A 
ATOM      3  C   UNL     1       4.244  -2.925  26.895  0.00  0.00    +0.007 A 
ATOM      4  C   UNL     1       4.045  -1.773  26.160  0.00  0.00    +0.049 A 
ATOM      5  C   UNL     1       5.104  -0.927  25.892  0.00  0.00    +0.157 A 
ATOM      6  C   UNL     1       6.373  -1.261  26.368  0.00  0.00    +0.049 A 
ATOM      7  C   UNL     1       6.566  -2.443  27.103  0.00  0.00    +0.007 A 
BRANCH   5   8
ATOM      8  O   UNL     1       4.955   0.237  25.185  0.00  0.00    -0.342 OA
BRANCH   8   9
ATOM      9  S   UNL     1       4.392   1.585  25.931  0.00  0.00    +0.152 S 
ATOM     10  O   UNL     1       4.131   1.314  27.335  0.00  0.00    -0.131 OA
ATOM     11  O   UNL     1       3.349   2.154  25.095  0.00  0.00    -0.131 OA
BRANCH   9  12
ATOM     12  C   UNL     1       5.780   2.688  25.900  0.00  0.00    +0.136 A 
ATOM     13  C   UNL     1       6.591   2.822  24.732  0.00  0.00    +0.012 A 
ATOM     14  C   UNL     1       6.296   2.192  23.501  0.00  0.00    +0.010 A 
ATOM     15  C   UNL     1       7.103   2.355  22.389  0.00  0.00    +0.002 A 
ATOM     16  C   UNL     1       8.281   3.081  22.495  0.00  0.00    +0.024 A 
ATOM     17  C   UNL     1       8.677   3.707  23.692  0.00  0.00    +0.037 A 
ATOM     18  C   UNL     1       7.751   3.646  24.803  0.00  0.00    +0.005 A 
ATOM     19  C   UNL     1       7.911   4.404  25.995  0.00  0.00    +0.010 A 
ATOM     20  C   UNL     1       7.100   4.263  27.122  0.00  0.00    +0.003 A 
ATOM     21  C   UNL     1       6.050   3.373  27.087  0.00  0.00    +0.031 A 
BRANCH  17  22
ATOM     22  N   UNL     1       9.926   4.354  23.767  0.00  0.00    -0.336 N 
ATOM     23  C   UNL     1      10.066   5.803  23.608  0.00  0.00    +0.129 C 
ATOM     24  C   UNL     1      11.145   3.616  23.414  0.00  0.00    +0.129 C 
ENDBRANCH  17  22
ENDBRANCH   9  12
ENDBRANCH   8   9
ENDBRANCH   5   8
ENDBRANCH   1   2
BRANCH   1  25
ATOM     25  C   UNL     1       5.174  -5.887  27.567  0.00  0.00    +0.189 C 
BRANCH  25  26
ATOM     26  N   UNL     1       5.684  -6.303  26.219  0.00  0.00    -0.176 NA
ATOM     27  H   UNL     1       6.259  -7.149  26.221  0.00  0.00    +0.149 HD
BRANCH  26  28
ATOM     28  S   UNL     1       4.729  -6.197  24.816  0.00  0.00    +0.060 S 
ATOM     29  O   UNL     1       4.935  -7.416  24.073  0.00  0.00    -0.153 OA
ATOM     30  O   UNL     1       3.411  -5.739  25.181  0.00  0.00    -0.153 OA
BRANCH  28  36
ATOM     31  C   UNL     1       8.844  -3.040  24.133  0.00  0.00    +0.037 A 
ATOM     32  C   UNL     1       7.516  -3.438  23.761  0.00  0.00    +0.005 A 
ATOM     33  C   UNL     1       6.707  -2.675  22.882  0.00  0.00    +0.010 A 
ATOM     34  C   UNL     1       5.361  -2.939  22.641  0.00  0.00    +0.003 A 
ATOM     35  C   UNL     1       4.781  -4.037  23.225  0.00  0.00    +0.029 A 
ATOM     36  C   UNL     1       5.576  -4.893  23.992  0.00  0.00    +0.113 A 
ATOM     37  C   UNL     1       6.959  -4.641  24.249  0.00  0.00    +0.010 A 
ATOM     38  C   UNL     1       7.811  -5.517  24.977  0.00  0.00    +0.010 A 
ATOM     39  C   UNL     1       9.124  -5.185  25.282  0.00  0.00    +0.002 A 
ATOM     40  C   UNL     1       9.620  -3.951  24.874  0.00  0.00    +0.024 A 
BRANCH  31  42
ATOM     41  C   UNL     1       9.647  -0.823  24.877  0.00  0.00    +0.129 C 
ATOM     42  N   UNL     1       9.376  -1.774  23.790  0.00  0.00    -0.336 N 
ATOM     43  C   UNL     1      10.279  -1.684  22.646  0.00  0.00    +0.129 C 
ENDBRANCH  31  42
ENDBRANCH  28  36
ENDBRANCH  26  28
ENDBRANCH  25  26
BRANCH  25  44
ATOM     44  C   UNL     1       5.317  -7.059  28.535  0.00  0.00    +0.324 C 
ATOM     45  O   UNL     1       6.372  -7.496  28.961  0.00  0.00    -0.249 OA
BRANCH  44  46
ATOM     46  O   UNL     1       4.117  -7.514  28.985  0.00  0.00    -0.479 OA
ATOM     47  H   UNL     1       4.207  -7.828  29.908  0.00  0.00    +0.295 HD
ENDBRANCH  44  46
ENDBRANCH  25  44
ENDBRANCH   1  25
TORSDOF 12
ENDMDL
MODEL 5
REMARK VINA RESULT:      -7.1      1.767      2.649
REMARK  Name = 
REMARK  16 active torsions:
REMARK  status: ('A' for Active; 'I' for Inactive)
REMARK    1  A    between atoms: C_1  and  N_2
REMARK    2  A    between atoms: N_2  and  C_3
REMARK    3  A    between atoms: N_2  and  C_4
REMARK    4  A    between atoms: C_13  and  S_14
REMARK    5  A    between atoms: S_14  and  N_17
REMARK    6  A    between atoms: N_17  and  C_18
REMARK    7  A    between atoms: C_18  and  C_20
REMARK    8  A    between atoms: C_18  and  C_44
REMARK    9  A    between atoms: C_20  and  C_21
REMARK   10  A    between atoms: C_24  and  O_25
REMARK   11  A    between atoms: O_25  and  S_26
REMARK   12  A    between atoms: S_26  and  C_29
REMARK   13  A    between atoms: C_38  and  N_39
REMARK   14  A    between atoms: N_39  and  C_40
REMARK   15  A    between atoms: N_39  and  C_41
REMARK   16  A    between atoms: C_44  and  O_45
REMARK                            x       y       z     vdW  Elec       q    Type
REMARK                         _______ _______ _______ _____ _____    ______ ____
ROOT
ATOM      1  C   UNL     1      10.471   2.513  23.416  0.00  0.00    +0.067 C 
ENDROOT
BRANCH   1   2
ATOM      2  C   UNL     1      10.167   1.044  23.198  0.00  0.00    -0.045 A 
ATOM      3  C   UNL     1       9.792   0.538  21.958  0.00  0.00    +0.007 A 
ATOM      4  C   UNL     1       9.486  -0.793  21.757  0.00  0.00    +0.049 A 
ATOM      5  C   UNL     1       9.535  -1.686  22.810  0.00  0.00    +0.157 A 
ATOM      6  C   UNL     1       9.889  -1.218  24.076  0.00  0.00    +0.049 A 
ATOM      7  C   UNL     1      10.185   0.142  24.273  0.00  0.00    +0.007 A 
BRANCH   5   8
ATOM      8  O   UNL     1       9.260  -3.019  22.658  0.00  0.00    -0.342 OA
BRANCH   8   9
ATOM      9  S   UNL     1       7.712  -3.554  22.742  0.00  0.00    +0.152 S 
ATOM     10  O   UNL     1       7.513  -4.671  21.836  0.00  0.00    -0.131 OA
ATOM     11  O   UNL     1       6.836  -2.396  22.671  0.00  0.00    -0.131 OA
BRANCH   9  12
ATOM     12  C   UNL     1       7.593  -4.228  24.378  0.00  0.00    +0.136 A 
ATOM     13  C   UNL     1       6.329  -4.566  24.947  0.00  0.00    +0.012 A 
ATOM     14  C   UNL     1       5.109  -4.502  24.235  0.00  0.00    +0.010 A 
ATOM     15  C   UNL     1       3.904  -4.848  24.820  0.00  0.00    +0.002 A 
ATOM     16  C   UNL     1       3.866  -5.184  26.167  0.00  0.00    +0.024 A 
ATOM     17  C   UNL     1       5.025  -5.231  26.967  0.00  0.00    +0.037 A 
ATOM     18  C   UNL     1       6.291  -5.007  26.302  0.00  0.00    +0.005 A 
ATOM     19  C   UNL     1       7.549  -5.233  26.924  0.00  0.00    +0.010 A 
ATOM     20  C   UNL     1       8.774  -4.903  26.344  0.00  0.00    +0.003 A 
ATOM     21  C   UNL     1       8.795  -4.363  25.077  0.00  0.00    +0.031 A 
BRANCH  17  22
ATOM     22  N   UNL     1       4.915  -5.489  28.346  0.00  0.00    -0.336 N 
ATOM     23  C   UNL     1       4.490  -6.791  28.867  0.00  0.00    +0.129 C 
ATOM     24  C   UNL     1       4.639  -4.382  29.270  0.00  0.00    +0.129 C 
ENDBRANCH  17  22
ENDBRANCH   9  12
ENDBRANCH   8   9
ENDBRANCH   5   8
ENDBRANCH   1   2
BRANCH   1  25
ATOM     25  C   UNL     1       9.283   3.501  23.446  0.00  0.00    +0.189 C 
BRANCH  25  26
ATOM     26  N   UNL     1       8.034   3.100  24.176  0.00  0.00    -0.176 NA
ATOM     27  H   UNL     1       7.881   3.588  25.062  0.00  0.00    +0.149 HD
BRANCH  26  28
ATOM     28  S   UNL     1       6.570   2.795  23.367  0.00  0.00    +0.060 S 
ATOM     29  O   UNL     1       6.146   4.040  22.778  0.00  0.00    -0.153 OA
ATOM     30  O   UNL     1       6.709   1.589  22.588  0.00  0.00    -0.153 OA
BRANCH  28  36
ATOM     31  C   UNL     1       4.540  -0.412  26.968  0.00  0.00    +0.037 A 
ATOM     32  C   UNL     1       4.614   0.894  26.376  0.00  0.00    +0.005 A 
ATOM     33  C   UNL     1       3.708   1.933  26.703  0.00  0.00    +0.010 A 
ATOM     34  C   UNL     1       3.643   3.148  26.024  0.00  0.00    +0.003 A 
ATOM     35  C   UNL     1       4.546   3.401  25.021  0.00  0.00    +0.029 A 
ATOM     36  C   UNL     1       5.542   2.458  24.756  0.00  0.00    +0.113 A 
ATOM     37  C   UNL     1       5.627   1.208  25.443  0.00  0.00    +0.010 A 
ATOM     38  C   UNL     1       6.659   0.249  25.239  0.00  0.00    +0.010 A 
ATOM     39  C   UNL     1       6.646  -0.991  25.861  0.00  0.00    +0.002 A 
ATOM     40  C   UNL     1       5.586  -1.315  26.702  0.00  0.00    +0.024 A 
BRANCH  31  42
ATOM     41  C   UNL     1       2.533  -1.826  27.261  0.00  0.00    +0.129 C 
ATOM     42  N   UNL     1       3.455  -0.809  27.786  0.00  0.00    -0.336 N 
ATOM     43  C   UNL     1       3.645  -0.830  29.233  0.00  0.00    +0.129 C 
ENDBRANCH  31  42
ENDBRANCH  28  36
ENDBRANCH  26  28
ENDBRANCH  25  26
BRANCH  25  44
ATOM     44  C   UNL     1       9.712   4.887  23.922  0.00  0.00    +0.324 C 
ATOM     45  O   UNL     1       9.234   5.485  24.870  0.00  0.00    -0.249 OA
BRANCH  44  46
ATOM     46  O   UNL     1      10.790   5.362  23.242  0.00  0.00    -0.479 OA
ATOM     47  H   UNL     1      10.732   5.093  22.301  0.00  0.00    +0.295 HD
ENDBRANCH  44  46
ENDBRANCH  25  44
ENDBRANCH   1  25
TORSDOF 12
ENDMDL
MODEL 6
REMARK VINA RESULT:      -7.0      1.788      2.591
REMARK  Name = 
REMARK  16 active torsions:
REMARK  status: ('A' for Active; 'I' for Inactive)
REMARK    1  A    between atoms: C_1  and  N_2
REMARK    2  A    between atoms: N_2  and  C_3
REMARK    3  A    between atoms: N_2  and  C_4
REMARK    4  A    between atoms: C_13  and  S_14
REMARK    5  A    between atoms: S_14  and  N_17
REMARK    6  A    between atoms: N_17  and  C_18
REMARK    7  A    between atoms: C_18  and  C_20
REMARK    8  A    between atoms: C_18  and  C_44
REMARK    9  A    between atoms: C_20  and  C_21
REMARK   10  A    between atoms: C_24  and  O_25
REMARK   11  A    between atoms: O_25  and  S_26
REMARK   12  A    between atoms: S_26  and  C_29
REMARK   13  A    between atoms: C_38  and  N_39
REMARK   14  A    between atoms: N_39  and  C_40
REMARK   15  A    between atoms: N_39  and  C_41
REMARK   16  A    between atoms: C_44  and  O_45
REMARK                            x       y       z     vdW  Elec       q    Type
REMARK                         _______ _______ _______ _____ _____    ______ ____
ROOT
ATOM      1  C   UNL     1      11.446   3.656  23.229  0.00  0.00    +0.067 C 
ENDROOT
BRANCH   1   2
ATOM      2  C   UNL     1      10.557   2.430  23.299  0.00  0.00    -0.045 A 
ATOM      3  C   UNL     1      10.458   1.647  24.444  0.00  0.00    +0.007 A 
ATOM      4  C   UNL     1       9.673   0.513  24.507  0.00  0.00    +0.049 A 
ATOM      5  C   UNL     1       8.949   0.106  23.403  0.00  0.00    +0.157 A 
ATOM      6  C   UNL     1       9.032   0.852  22.227  0.00  0.00    +0.049 A 
ATOM      7  C   UNL     1       9.845   1.996  22.170  0.00  0.00    +0.007 A 
BRANCH   5   8
ATOM      8  O   UNL     1       8.140  -1.000  23.422  0.00  0.00    -0.342 OA
BRANCH   8   9
ATOM      9  S   UNL     1       8.716  -2.448  22.911  0.00  0.00    +0.152 S 
ATOM     10  O   UNL     1      10.161  -2.398  22.774  0.00  0.00    -0.131 OA
ATOM     11  O   UNL     1       7.896  -2.885  21.794  0.00  0.00    -0.131 OA
BRANCH   9  12
ATOM     12  C   UNL     1       8.396  -3.530  24.279  0.00  0.00    +0.136 A 
ATOM     13  C   UNL     1       7.063  -3.793  24.716  0.00  0.00    +0.012 A 
ATOM     14  C   UNL     1       5.913  -3.319  24.044  0.00  0.00    +0.010 A 
ATOM     15  C   UNL     1       4.636  -3.604  24.495  0.00  0.00    +0.002 A 
ATOM     16  C   UNL     1       4.467  -4.298  25.685  0.00  0.00    +0.024 A 
ATOM     17  C   UNL     1       5.554  -4.770  26.445  0.00  0.00    +0.037 A 
ATOM     18  C   UNL     1       6.876  -4.588  25.884  0.00  0.00    +0.005 A 
ATOM     19  C   UNL     1       8.043  -5.195  26.423  0.00  0.00    +0.010 A 
ATOM     20  C   UNL     1       9.337  -4.930  25.973  0.00  0.00    +0.003 A 
ATOM     21  C   UNL     1       9.517  -4.064  24.918  0.00  0.00    +0.031 A 
BRANCH  17  22
ATOM     22  N   UNL     1       5.326  -5.388  27.690  0.00  0.00    -0.336 N 
ATOM     23  C   UNL     1       4.913  -6.789  27.803  0.00  0.00    +0.129 C 
ATOM     24  C   UNL     1       4.911  -4.572  28.837  0.00  0.00    +0.129 C 
ENDBRANCH  17  22
ENDBRANCH   9  12
ENDBRANCH   8   9
ENDBRANCH   5   8
ENDBRANCH   1   2
BRANCH   1  25
ATOM     25  C   UNL     1      10.821   5.024  23.588  0.00  0.00    +0.189 C 
BRANCH  25  26
ATOM     26  N   UNL     1       9.553   5.046  24.389  0.00  0.00    -0.176 NA
ATOM     27  H   UNL     1       9.687   5.023  25.403  0.00  0.00    +0.149 HD
BRANCH  26  28
ATOM     28  S   UNL     1       8.222   6.010  23.953  0.00  0.00    +0.060 S 
ATOM     29  O   UNL     1       7.889   6.814  25.103  0.00  0.00    -0.153 OA
ATOM     30  O   UNL     1       8.472   6.594  22.659  0.00  0.00    -0.153 OA
BRANCH  28  36
ATOM     31  C   UNL     1       3.333   4.379  23.053  0.00  0.00    +0.037 A 
ATOM     32  C   UNL     1       4.696   4.076  23.390  0.00  0.00    +0.005 A 
ATOM     33  C   UNL     1       5.105   2.795  23.837  0.00  0.00    +0.010 A 
ATOM     34  C   UNL     1       6.376   2.517  24.337  0.00  0.00    +0.003 A 
ATOM     35  C   UNL     1       7.323   3.511  24.340  0.00  0.00    +0.029 A 
ATOM     36  C   UNL     1       7.002   4.752  23.784  0.00  0.00    +0.113 A 
ATOM     37  C   UNL     1       5.706   5.055  23.265  0.00  0.00    +0.010 A 
ATOM     38  C   UNL     1       5.360   6.287  22.642  0.00  0.00    +0.010 A 
ATOM     39  C   UNL     1       4.063   6.571  22.238  0.00  0.00    +0.002 A 
ATOM     40  C   UNL     1       3.065   5.627  22.459  0.00  0.00    +0.024 A 
BRANCH  31  42
ATOM     41  C   UNL     1       1.504   3.650  24.548  0.00  0.00    +0.129 C 
ATOM     42  N   UNL     1       2.274   3.476  23.308  0.00  0.00    -0.336 N 
ATOM     43  C   UNL     1       1.517   2.950  22.176  0.00  0.00    +0.129 C 
ENDBRANCH  31  42
ENDBRANCH  28  36
ENDBRANCH  26  28
ENDBRANCH  25  26
BRANCH  25  44
ATOM     44  C   UNL     1      11.839   5.954  24.244  0.00  0.00    +0.324 C 
ATOM     45  O   UNL     1      11.577   6.817  25.063  0.00  0.00    -0.249 OA
BRANCH  44  46
ATOM     46  O   UNL     1      13.120   5.648  23.907  0.00  0.00    -0.479 OA
ATOM     47  H   UNL     1      13.161   4.732  23.560  0.00  0.00    +0.295 HD
ENDBRANCH  44  46
ENDBRANCH  25  44
ENDBRANCH   1  25
TORSDOF 12
ENDMDL
MODEL 7
REMARK VINA RESULT:      -7.0      3.324      8.879
REMARK  Name = 
REMARK  16 active torsions:
REMARK  status: ('A' for Active; 'I' for Inactive)
REMARK    1  A    between atoms: C_1  and  N_2
REMARK    2  A    between atoms: N_2  and  C_3
REMARK    3  A    between atoms: N_2  and  C_4
REMARK    4  A    between atoms: C_13  and  S_14
REMARK    5  A    between atoms: S_14  and  N_17
REMARK    6  A    between atoms: N_17  and  C_18
REMARK    7  A    between atoms: C_18  and  C_20
REMARK    8  A    between atoms: C_18  and  C_44
REMARK    9  A    between atoms: C_20  and  C_21
REMARK   10  A    between atoms: C_24  and  O_25
REMARK   11  A    between atoms: O_25  and  S_26
REMARK   12  A    between atoms: S_26  and  C_29
REMARK   13  A    between atoms: C_38  and  N_39
REMARK   14  A    between atoms: N_39  and  C_40
REMARK   15  A    between atoms: N_39  and  C_41
REMARK   16  A    between atoms: C_44  and  O_45
REMARK                            x       y       z     vdW  Elec       q    Type
REMARK                         _______ _______ _______ _____ _____    ______ ____
ROOT
ATOM      1  C   UNL     1       6.600  -6.016  27.068  0.00  0.00    +0.067 C 
ENDROOT
BRANCH   1   2
ATOM      2  C   UNL     1       7.413  -4.961  26.343  0.00  0.00    -0.045 A 
ATOM      3  C   UNL     1       8.054  -5.216  25.136  0.00  0.00    +0.007 A 
ATOM      4  C   UNL     1       8.820  -4.271  24.483  0.00  0.00    +0.049 A 
ATOM      5  C   UNL     1       8.985  -3.012  25.027  0.00  0.00    +0.157 A 
ATOM      6  C   UNL     1       8.373  -2.718  26.246  0.00  0.00    +0.049 A 
ATOM      7  C   UNL     1       7.608  -3.692  26.909  0.00  0.00    +0.007 A 
BRANCH   5   8
ATOM      8  O   UNL     1       9.718  -2.034  24.409  0.00  0.00    -0.342 OA
BRANCH   8   9
ATOM      9  S   UNL     1       9.232  -1.435  22.961  0.00  0.00    +0.152 S 
ATOM     10  O   UNL     1       7.825  -1.721  22.742  0.00  0.00    -0.131 OA
ATOM     11  O   UNL     1      10.216  -1.824  21.965  0.00  0.00    -0.131 OA
BRANCH   9  12
ATOM     12  C   UNL     1       9.342   0.322  23.179  0.00  0.00    +0.136 A 
ATOM     13  C   UNL     1       8.584   0.989  24.187  0.00  0.00    +0.012 A 
ATOM     14  C   UNL     1       7.791   0.314  25.144  0.00  0.00    +0.010 A 
ATOM     15  C   UNL     1       7.077   0.999  26.111  0.00  0.00    +0.002 A 
ATOM     16  C   UNL     1       7.060   2.387  26.100  0.00  0.00    +0.024 A 
ATOM     17  C   UNL     1       7.784   3.143  25.157  0.00  0.00    +0.037 A 
ATOM     18  C   UNL     1       8.637   2.412  24.245  0.00  0.00    +0.005 A 
ATOM     19  C   UNL     1       9.583   3.040  23.389  0.00  0.00    +0.010 A 
ATOM     20  C   UNL     1      10.321   2.365  22.417  0.00  0.00    +0.003 A 
ATOM     21  C   UNL     1      10.173   1.002  22.286  0.00  0.00    +0.031 A 
BRANCH  17  22
ATOM     22  N   UNL     1       7.657   4.545  25.136  0.00  0.00    -0.336 N 
ATOM     23  C   UNL     1       8.650   5.429  25.751  0.00  0.00    +0.129 C 
ATOM     24  C   UNL     1       6.322   5.150  25.053  0.00  0.00    +0.129 C 
ENDBRANCH  17  22
ENDBRANCH   9  12
ENDBRANCH   8   9
ENDBRANCH   5   8
ENDBRANCH   1   2
BRANCH   1  25
ATOM     25  C   UNL     1       5.611  -5.544  28.158  0.00  0.00    +0.189 C 
BRANCH  25  26
ATOM     26  N   UNL     1       4.144  -5.781  27.948  0.00  0.00    -0.176 NA
ATOM     27  H   UNL     1       3.733  -6.488  28.562  0.00  0.00    +0.149 HD
BRANCH  26  28
ATOM     28  S   UNL     1       3.056  -4.513  27.635  0.00  0.00    +0.060 S 
ATOM     29  O   UNL     1       1.792  -5.116  27.293  0.00  0.00    -0.153 OA
ATOM     30  O   UNL     1       3.173  -3.527  28.681  0.00  0.00    -0.153 OA
BRANCH  28  36
ATOM     31  C   UNL     1       5.205  -5.066  22.897  0.00  0.00    +0.037 A 
ATOM     32  C   UNL     1       4.805  -4.214  23.982  0.00  0.00    +0.005 A 
ATOM     33  C   UNL     1       5.171  -2.848  24.056  0.00  0.00    +0.010 A 
ATOM     34  C   UNL     1       4.951  -2.044  25.172  0.00  0.00    +0.003 A 
ATOM     35  C   UNL     1       4.279  -2.568  26.249  0.00  0.00    +0.029 A 
ATOM     36  C   UNL     1       3.781  -3.871  26.165  0.00  0.00    +0.113 A 
ATOM     37  C   UNL     1       3.995  -4.710  25.028  0.00  0.00    +0.010 A 
ATOM     38  C   UNL     1       3.457  -6.019  24.886  0.00  0.00    +0.010 A 
ATOM     39  C   UNL     1       3.770  -6.831  23.805  0.00  0.00    +0.002 A 
ATOM     40  C   UNL     1       4.647  -6.357  22.835  0.00  0.00    +0.024 A 
BRANCH  31  42
ATOM     41  C   UNL     1       7.169  -5.608  21.497  0.00  0.00    +0.129 C 
ATOM     42  N   UNL     1       6.136  -4.650  21.916  0.00  0.00    -0.336 N 
ATOM     43  C   UNL     1       5.689  -3.724  20.879  0.00  0.00    +0.129 C 
ENDBRANCH  31  42
ENDBRANCH  28  36
ENDBRANCH  26  28
ENDBRANCH  25  26
BRANCH  25  44
ATOM     44  C   UNL     1       6.004  -6.060  29.540  0.00  0.00    +0.324 C 
ATOM     45  O   UNL     1       6.392  -7.189  29.785  0.00  0.00    -0.249 OA
BRANCH  44  46
ATOM     46  O   UNL     1       5.994  -5.083  30.485  0.00  0.00    -0.479 OA
ATOM     47  H   UNL     1       5.069  -4.842  30.701  0.00  0.00    +0.295 HD
ENDBRANCH  44  46
ENDBRANCH  25  44
ENDBRANCH   1  25
TORSDOF 12
ENDMDL
MODEL 8
REMARK VINA RESULT:      -6.9      2.179      3.362
REMARK  Name = 
REMARK  16 active torsions:
REMARK  status: ('A' for Active; 'I' for Inactive)
REMARK    1  A    between atoms: C_1  and  N_2
REMARK    2  A    between atoms: N_2  and  C_3
REMARK    3  A    between atoms: N_2  and  C_4
REMARK    4  A    between atoms: C_13  and  S_14
REMARK    5  A    between atoms: S_14  and  N_17
REMARK    6  A    between atoms: N_17  and  C_18
REMARK    7  A    between atoms: C_18  and  C_20
REMARK    8  A    between atoms: C_18  and  C_44
REMARK    9  A    between atoms: C_20  and  C_21
REMARK   10  A    between atoms: C_24  and  O_25
REMARK   11  A    between atoms: O_25  and  S_26
REMARK   12  A    between atoms: S_26  and  C_29
REMARK   13  A    between atoms: C_38  and  N_39
REMARK   14  A    between atoms: N_39  and  C_40
REMARK   15  A    between atoms: N_39  and  C_41
REMARK   16  A    between atoms: C_44  and  O_45
REMARK                            x       y       z     vdW  Elec       q    Type
REMARK                         _______ _______ _______ _____ _____    ______ ____
ROOT
ATOM      1  C   UNL     1       9.844   2.748  22.664  0.00  0.00    +0.067 C 
ENDROOT
BRANCH   1   2
ATOM      2  C   UNL     1       9.938   1.241  22.810  0.00  0.00    -0.045 A 
ATOM      3  C   UNL     1       9.443   0.369  21.848  0.00  0.00    +0.007 A 
ATOM      4  C   UNL     1       9.499  -1.004  21.985  0.00  0.00    +0.049 A 
ATOM      5  C   UNL     1      10.056  -1.568  23.117  0.00  0.00    +0.157 A 
ATOM      6  C   UNL     1      10.550  -0.729  24.117  0.00  0.00    +0.049 A 
ATOM      7  C   UNL     1      10.474   0.667  23.972  0.00  0.00    +0.007 A 
BRANCH   5   8
ATOM      8  O   UNL     1      10.153  -2.923  23.291  0.00  0.00    -0.342 OA
BRANCH   8   9
ATOM      9  S   UNL     1       9.368  -3.650  24.534  0.00  0.00    +0.152 S 
ATOM     10  O   UNL     1       9.067  -2.684  25.576  0.00  0.00    -0.131 OA
ATOM     11  O   UNL     1      10.084  -4.871  24.860  0.00  0.00    -0.131 OA
BRANCH   9  12
ATOM     12  C   UNL     1       7.805  -4.106  23.829  0.00  0.00    +0.136 A 
ATOM     13  C   UNL     1       6.807  -4.763  24.609  0.00  0.00    +0.012 A 
ATOM     14  C   UNL     1       6.929  -4.996  25.998  0.00  0.00    +0.010 A 
ATOM     15  C   UNL     1       5.933  -5.628  26.721  0.00  0.00    +0.002 A 
ATOM     16  C   UNL     1       4.819  -6.130  26.062  0.00  0.00    +0.024 A 
ATOM     17  C   UNL     1       4.633  -5.983  24.674  0.00  0.00    +0.037 A 
ATOM     18  C   UNL     1       5.614  -5.195  23.959  0.00  0.00    +0.005 A 
ATOM     19  C   UNL     1       5.450  -4.781  22.610  0.00  0.00    +0.010 A 
ATOM     20  C   UNL     1       6.437  -4.131  21.869  0.00  0.00    +0.003 A 
ATOM     21  C   UNL     1       7.637  -3.824  22.471  0.00  0.00    +0.031 A 
BRANCH  17  22
ATOM     22  N   UNL     1       3.529  -6.591  24.045  0.00  0.00    -0.336 N 
ATOM     23  C   UNL     1       2.494  -5.813  23.360  0.00  0.00    +0.129 C 
ATOM     24  C   UNL     1       3.046  -7.890  24.528  0.00  0.00    +0.129 C 
ENDBRANCH  17  22
ENDBRANCH   9  12
ENDBRANCH   8   9
ENDBRANCH   5   8
ENDBRANCH   1   2
BRANCH   1  25
ATOM     25  C   UNL     1       8.713   3.479  23.423  0.00  0.00    +0.189 C 
BRANCH  25  26
ATOM     26  N   UNL     1       8.150   2.842  24.659  0.00  0.00    -0.176 NA
ATOM     27  H   UNL     1       8.776   2.850  25.467  0.00  0.00    +0.149 HD
BRANCH  26  28
ATOM     28  S   UNL     1       6.526   3.041  25.122  0.00  0.00    +0.060 S 
ATOM     29  O   UNL     1       6.530   3.482  26.495  0.00  0.00    -0.153 OA
ATOM     30  O   UNL     1       5.831   3.768  24.089  0.00  0.00    -0.153 OA
BRANCH  28  36
ATOM     31  C   UNL     1       3.902  -1.056  27.045  0.00  0.00    +0.037 A 
ATOM     32  C   UNL     1       4.790  -0.509  26.058  0.00  0.00    +0.005 A 
ATOM     33  C   UNL     1       5.495  -1.317  25.132  0.00  0.00    +0.010 A 
ATOM     34  C   UNL     1       6.491  -0.838  24.284  0.00  0.00    +0.003 A 
ATOM     35  C   UNL     1       6.774   0.505  24.280  0.00  0.00    +0.029 A 
ATOM     36  C   UNL     1       6.009   1.359  25.080  0.00  0.00    +0.113 A 
ATOM     37  C   UNL     1       4.983   0.887  25.954  0.00  0.00    +0.010 A 
ATOM     38  C   UNL     1       4.149   1.730  26.740  0.00  0.00    +0.010 A 
ATOM     39  C   UNL     1       3.229   1.221  27.646  0.00  0.00    +0.002 A 
ATOM     40  C   UNL     1       3.125  -0.158  27.800  0.00  0.00    +0.024 A 
BRANCH  31  42
ATOM     41  C   UNL     1       4.186  -2.955  28.603  0.00  0.00    +0.129 C 
ATOM     42  N   UNL     1       3.800  -2.448  27.278  0.00  0.00    -0.336 N 
ATOM     43  C   UNL     1       2.729  -3.190  26.617  0.00  0.00    +0.129 C 
ENDBRANCH  31  42
ENDBRANCH  28  36
ENDBRANCH  26  28
ENDBRANCH  25  26
BRANCH  25  44
ATOM     44  C   UNL     1       9.086   4.926  23.735  0.00  0.00    +0.324 C 
ATOM     45  O   UNL     1       9.492   5.331  24.810  0.00  0.00    -0.249 OA
BRANCH  44  46
ATOM     46  O   UNL     1       9.032   5.727  22.638  0.00  0.00    -0.479 OA
ATOM     47  H   UNL     1       8.235   5.513  22.110  0.00  0.00    +0.295 HD
ENDBRANCH  44  46
ENDBRANCH  25  44
ENDBRANCH   1  25
TORSDOF 12
ENDMDL
MODEL 9
REMARK VINA RESULT:      -6.9      2.445      3.480
REMARK  Name = 
REMARK  16 active torsions:
REMARK  status: ('A' for Active; 'I' for Inactive)
REMARK    1  A    between atoms: C_1  and  N_2
REMARK    2  A    between atoms: N_2  and  C_3
REMARK    3  A    between atoms: N_2  and  C_4
REMARK    4  A    between atoms: C_13  and  S_14
REMARK    5  A    between atoms: S_14  and  N_17
REMARK    6  A    between atoms: N_17  and  C_18
REMARK    7  A    between atoms: C_18  and  C_20
REMARK    8  A    between atoms: C_18  and  C_44
REMARK    9  A    between atoms: C_20  and  C_21
REMARK   10  A    between atoms: C_24  and  O_25
REMARK   11  A    between atoms: O_25  and  S_26
REMARK   12  A    between atoms: S_26  and  C_29
REMARK   13  A    between atoms: C_38  and  N_39
REMARK   14  A    between atoms: N_39  and  C_40
REMARK   15  A    between atoms: N_39  and  C_41
REMARK   16  A    between atoms: C_44  and  O_45
REMARK                            x       y       z     vdW  Elec       q    Type
REMARK                         _______ _______ _______ _____ _____    ______ ____
ROOT
ATOM      1  C   UNL     1      10.490   1.766  24.491  0.00  0.00    +0.067 C 
ENDROOT
BRANCH   1   2
ATOM      2  C   UNL     1      10.246   0.277  24.338  0.00  0.00    -0.045 A 
ATOM      3  C   UNL     1      10.512  -0.402  23.154  0.00  0.00    +0.007 A 
ATOM      4  C   UNL     1      10.266  -1.751  22.996  0.00  0.00    +0.049 A 
ATOM      5  C   UNL     1       9.727  -2.486  24.034  0.00  0.00    +0.157 A 
ATOM      6  C   UNL     1       9.429  -1.842  25.235  0.00  0.00    +0.049 A 
ATOM      7  C   UNL     1       9.669  -0.465  25.379  0.00  0.00    +0.007 A 
BRANCH   5   8
ATOM      8  O   UNL     1       9.485  -3.831  23.934  0.00  0.00    -0.342 OA
BRANCH   8   9
ATOM      9  S   UNL     1       8.541  -4.581  25.046  0.00  0.00    +0.152 S 
ATOM     10  O   UNL     1       8.153  -3.649  26.091  0.00  0.00    -0.131 OA
ATOM     11  O   UNL     1       9.177  -5.839  25.395  0.00  0.00    -0.131 OA
BRANCH   9  12
ATOM     12  C   UNL     1       7.055  -4.950  24.150  0.00  0.00    +0.136 A 
ATOM     13  C   UNL     1       5.937  -5.559  24.794  0.00  0.00    +0.012 A 
ATOM     14  C   UNL     1       5.876  -5.807  26.185  0.00  0.00    +0.010 A 
ATOM     15  C   UNL     1       4.768  -6.391  26.773  0.00  0.00    +0.002 A 
ATOM     16  C   UNL     1       3.719  -6.830  25.977  0.00  0.00    +0.024 A 
ATOM     17  C   UNL     1       3.712  -6.665  24.578  0.00  0.00    +0.037 A 
ATOM     18  C   UNL     1       4.812  -5.924  23.999  0.00  0.00    +0.005 A 
ATOM     19  C   UNL     1       4.836  -5.494  22.644  0.00  0.00    +0.010 A 
ATOM     20  C   UNL     1       5.938  -4.892  22.037  0.00  0.00    +0.003 A 
ATOM     21  C   UNL     1       7.069  -4.651  22.786  0.00  0.00    +0.031 A 
BRANCH  17  22
ATOM     22  N   UNL     1       2.664  -7.211  23.812  0.00  0.00    -0.336 N 
ATOM     23  C   UNL     1       1.754  -6.375  23.025  0.00  0.00    +0.129 C 
ATOM     24  C   UNL     1       2.069  -8.493  24.209  0.00  0.00    +0.129 C 
ENDBRANCH  17  22
ENDBRANCH   9  12
ENDBRANCH   8   9
ENDBRANCH   5   8
ENDBRANCH   1   2
BRANCH   1  25
ATOM     25  C   UNL     1       9.961   2.703  23.381  0.00  0.00    +0.189 C 
BRANCH  25  26
ATOM     26  N   UNL     1       8.489   2.990  23.324  0.00  0.00    -0.176 NA
ATOM     27  H   UNL     1       8.237   3.967  23.489  0.00  0.00    +0.149 HD
BRANCH  26  28
ATOM     28  S   UNL     1       7.469   2.263  22.175  0.00  0.00    +0.060 S 
ATOM     29  O   UNL     1       6.522   3.267  21.757  0.00  0.00    -0.153 OA
ATOM     30  O   UNL     1       8.275   1.532  21.229  0.00  0.00    -0.153 OA
BRANCH  28  36
ATOM     31  C   UNL     1       4.898   0.987  26.550  0.00  0.00    +0.037 A 
ATOM     32  C   UNL     1       5.478   0.593  25.297  0.00  0.00    +0.005 A 
ATOM     33  C   UNL     1       5.634  -0.764  24.920  0.00  0.00    +0.010 A 
ATOM     34  C   UNL     1       6.348  -1.181  23.799  0.00  0.00    +0.003 A 
ATOM     35  C   UNL     1       6.881  -0.236  22.958  0.00  0.00    +0.029 A 
ATOM     36  C   UNL     1       6.636   1.115  23.219  0.00  0.00    +0.113 A 
ATOM     37  C   UNL     1       5.905   1.563  24.362  0.00  0.00    +0.010 A 
ATOM     38  C   UNL     1       5.590   2.924  24.629  0.00  0.00    +0.010 A 
ATOM     39  C   UNL     1       4.959   3.319  25.801  0.00  0.00    +0.002 A 
ATOM     40  C   UNL     1       4.635   2.355  26.751  0.00  0.00    +0.024 A 
BRANCH  31  42
ATOM     41  C   UNL     1       5.231   0.244  28.884  0.00  0.00    +0.129 C 
ATOM     42  N   UNL     1       4.601   0.053  27.570  0.00  0.00    -0.336 N 
ATOM     43  C   UNL     1       3.269  -0.546  27.601  0.00  0.00    +0.129 C 
ENDBRANCH  31  42
ENDBRANCH  28  36
ENDBRANCH  26  28
ENDBRANCH  25  26
BRANCH  25  44
ATOM     44  C   UNL     1      10.726   4.024  23.346  0.00  0.00    +0.324 C 
ATOM     45  O   UNL     1      11.937   4.135  23.272  0.00  0.00    -0.249 OA
BRANCH  44  46
ATOM     46  O   UNL     1       9.901   5.104  23.288  0.00  0.00    -0.479 OA
ATOM     47  H   UNL     1       9.880   5.552  24.159  0.00  0.00    +0.295 HD
ENDBRANCH  44  46
ENDBRANCH  25  44
ENDBRANCH   1  25
TORSDOF 12
ENDMDL
