MODEL 1
REMARK VINA RESULT:      -5.6      0.000      0.000
REMARK  Name = 
REMARK  12 active torsions:
REMARK  status: ('A' for Active; 'I' for Inactive)
REMARK    1  A    between atoms: C_1  and  C_2
REMARK    2  A    between atoms: C_2  and  C_3
REMARK    3  A    between atoms: C_2  and  C_4
REMARK    4  A    between atoms: C_8  and  C_9
REMARK    5  A    between atoms: C_9  and  C_10
REMARK    6  A    between atoms: C_9  and  C_11
REMARK    7  A    between atoms: C_12  and  O_13
REMARK    8  A    between atoms: O_13  and  C_14
REMARK    9  A    between atoms: C_14  and  O_15
REMARK   10  A    between atoms: O_15  and  P_16
REMARK   11  A    between atoms: P_16  and  O_17
REMARK   12  A    between atoms: P_16  and  O_18
REMARK                            x       y       z     vdW  Elec       q    Type
REMARK                         _______ _______ _______ _____ _____    ______ ____
ROOT
ATOM      1  C   UNL     1       6.731  -1.640  23.823  0.00  0.00    -0.003 A 
ATOM      2  C   UNL     1       8.106  -1.372  23.526  0.00  0.00    +0.130 A 
ATOM      3  C   UNL     1       8.637  -0.059  23.685  0.00  0.00    -0.003 A 
ATOM      4  C   UNL     1       7.838   0.938  24.285  0.00  0.00    +0.007 A 
ATOM      5  C   UNL     1       6.543   0.658  24.678  0.00  0.00    +0.001 A 
ATOM      6  C   UNL     1       6.001  -0.595  24.438  0.00  0.00    +0.007 A 
ENDROOT
BRANCH   1   8
ATOM      7  C   UNL     1       4.729  -3.057  24.493  0.00  0.00    +0.012 C 
ATOM      8  C   UNL     1       5.961  -2.951  23.593  0.00  0.00    +0.016 C 
ATOM      9  C   UNL     1       5.566  -3.254  22.132  0.00  0.00    +0.012 C 
ENDBRANCH   1   8
BRANCH   3  10
ATOM     10  C   UNL     1      10.024   0.417  23.220  0.00  0.00    +0.016 C 
ATOM     11  C   UNL     1      10.972   0.907  24.319  0.00  0.00    +0.012 C 
ATOM     12  C   UNL     1       9.942   1.428  22.074  0.00  0.00    +0.012 C 
ENDBRANCH   3  10
BRANCH   2  13
ATOM     13  O   UNL     1       9.078  -2.288  23.200  0.00  0.00    -0.465 OA
BRANCH  13  14
ATOM     14  C   UNL     1       9.668  -3.058  24.218  0.00  0.00    +0.406 C 
BRANCH  14  15
ATOM     15  O   UNL     1       9.250  -4.389  24.156  0.00  0.00    -0.249 OA
BRANCH  15  16
ATOM     16  P   UNL     1       8.547  -5.078  25.579  0.00  0.00    +0.475 P 
ATOM     17  O   UNL     1       7.920  -5.695  26.853  0.00  0.00    -0.227 OA
BRANCH  16  18
ATOM     18  O   UNL     1       8.742  -3.581  26.221  0.00  0.00    -0.303 OA
ATOM     19  H   UNL     1       8.741  -2.908  25.516  0.00  0.00    +0.222 HD
ENDBRANCH  16  18
BRANCH  16  20
ATOM     20  O   UNL     1      10.086  -5.544  25.888  0.00  0.00    -0.303 OA
ATOM     21  H   UNL     1      10.375  -5.014  26.653  0.00  0.00    +0.222 HD
ENDBRANCH  16  20
ENDBRANCH  15  16
ENDBRANCH  14  15
ENDBRANCH  13  14
ENDBRANCH   2  13
TORSDOF 8
ENDMDL
MODEL 2
REMARK VINA RESULT:      -5.6      3.355      4.911
REMARK  Name = 
REMARK  12 active torsions:
REMARK  status: ('A' for Active; 'I' for Inactive)
REMARK    1  A    between atoms: C_1  and  C_2
REMARK    2  A    between atoms: C_2  and  C_3
REMARK    3  A    between atoms: C_2  and  C_4
REMARK    4  A    between atoms: C_8  and  C_9
REMARK    5  A    between atoms: C_9  and  C_10
REMARK    6  A    between atoms: C_9  and  C_11
REMARK    7  A    between atoms: C_12  and  O_13
REMARK    8  A    between atoms: O_13  and  C_14
REMARK    9  A    between atoms: C_14  and  O_15
REMARK   10  A    between atoms: O_15  and  P_16
REMARK   11  A    between atoms: P_16  and  O_17
REMARK   12  A    between atoms: P_16  and  O_18
REMARK                            x       y       z     vdW  Elec       q    Type
REMARK                         _______ _______ _______ _____ _____    ______ ____
ROOT
ATOM      1  C   UNL     1       7.765  -3.666  23.322  0.00  0.00    -0.003 A 
ATOM      2  C   UNL     1       8.107  -2.300  23.583  0.00  0.00    +0.130 A 
ATOM      3  C   UNL     1       8.495  -1.891  24.893  0.00  0.00    -0.003 A 
ATOM      4  C   UNL     1       8.689  -2.870  25.891  0.00  0.00    +0.007 A 
ATOM      5  C   UNL     1       8.468  -4.206  25.616  0.00  0.00    +0.001 A 
ATOM      6  C   UNL     1       8.004  -4.590  24.368  0.00  0.00    +0.007 A 
ENDROOT
BRANCH   1   8
ATOM      7  C   UNL     1       7.140  -5.787  22.066  0.00  0.00    +0.012 C 
ATOM      8  C   UNL     1       7.208  -4.260  22.018  0.00  0.00    +0.016 C 
ATOM      9  C   UNL     1       5.854  -3.692  21.543  0.00  0.00    +0.012 C 
ENDBRANCH   1   8
BRANCH   3  10
ATOM     10  C   UNL     1       8.694  -0.440  25.363  0.00  0.00    +0.016 C 
ATOM     11  C   UNL     1      10.126   0.101  25.295  0.00  0.00    +0.012 C 
ATOM     12  C   UNL     1       8.073  -0.180  26.737  0.00  0.00    +0.012 C 
ENDBRANCH   3  10
BRANCH   2  13
ATOM     13  O   UNL     1       8.236  -1.287  22.664  0.00  0.00    -0.465 OA
BRANCH  13  14
ATOM     14  C   UNL     1       9.372  -1.249  21.835  0.00  0.00    +0.406 C 
BRANCH  14  15
ATOM     15  O   UNL     1       9.933   0.030  21.802  0.00  0.00    -0.249 OA
BRANCH  15  16
ATOM     16  P   UNL     1       8.861   1.382  21.936  0.00  0.00    +0.475 P 
ATOM     17  O   UNL     1       7.903   2.592  22.056  0.00  0.00    -0.227 OA
BRANCH  16  18
ATOM     18  O   UNL     1       8.451   1.021  20.389  0.00  0.00    -0.303 OA
ATOM     19  H   UNL     1       8.408   0.055  20.267  0.00  0.00    +0.222 HD
ENDBRANCH  16  18
BRANCH  16  20
ATOM     20  O   UNL     1      10.190   2.240  21.512  0.00  0.00    -0.303 OA
ATOM     21  H   UNL     1      10.664   1.689  20.863  0.00  0.00    +0.222 HD
ENDBRANCH  16  20
ENDBRANCH  15  16
ENDBRANCH  14  15
ENDBRANCH  13  14
ENDBRANCH   2  13
TORSDOF 8
ENDMDL
MODEL 3
REMARK VINA RESULT:      -5.5      1.844      2.658
REMARK  Name = 
REMARK  12 active torsions:
REMARK  status: ('A' for Active; 'I' for Inactive)
REMARK    1  A    between atoms: C_1  and  C_2
REMARK    2  A    between atoms: C_2  and  C_3
REMARK    3  A    between atoms: C_2  and  C_4
REMARK    4  A    between atoms: C_8  and  C_9
REMARK    5  A    between atoms: C_9  and  C_10
REMARK    6  A    between atoms: C_9  and  C_11
REMARK    7  A    between atoms: C_12  and  O_13
REMARK    8  A    between atoms: O_13  and  C_14
REMARK    9  A    between atoms: C_14  and  O_15
REMARK   10  A    between atoms: O_15  and  P_16
REMARK   11  A    between atoms: P_16  and  O_17
REMARK   12  A    between atoms: P_16  and  O_18
REMARK                            x       y       z     vdW  Elec       q    Type
REMARK                         _______ _______ _______ _____ _____    ______ ____
ROOT
ATOM      1  C   UNL     1       6.780  -4.289  23.043  0.00  0.00    -0.003 A 
ATOM      2  C   UNL     1       8.051  -3.864  23.548  0.00  0.00    +0.130 A 
ATOM      3  C   UNL     1       8.305  -2.482  23.790  0.00  0.00    -0.003 A 
ATOM      4  C   UNL     1       7.246  -1.557  23.676  0.00  0.00    +0.007 A 
ATOM      5  C   UNL     1       5.985  -1.977  23.296  0.00  0.00    +0.001 A 
ATOM      6  C   UNL     1       5.764  -3.306  22.974  0.00  0.00    +0.007 A 
ENDROOT
BRANCH   1   8
ATOM      7  C   UNL     1       5.151  -6.214  23.376  0.00  0.00    +0.012 C 
ATOM      8  C   UNL     1       6.372  -5.706  22.607  0.00  0.00    +0.016 C 
ATOM      9  C   UNL     1       6.156  -5.910  21.092  0.00  0.00    +0.012 C 
ENDBRANCH   1   8
BRANCH   3  10
ATOM     10  C   UNL     1       9.670  -1.863  24.136  0.00  0.00    +0.016 C 
ATOM     11  C   UNL     1       9.639  -0.615  25.024  0.00  0.00    +0.012 C 
ATOM     12  C   UNL     1      10.539  -1.634  22.898  0.00  0.00    +0.012 C 
ENDBRANCH   3  10
BRANCH   2  13
ATOM     13  O   UNL     1       9.085  -4.663  23.971  0.00  0.00    -0.465 OA
BRANCH  13  14
ATOM     14  C   UNL     1       9.114  -5.105  25.306  0.00  0.00    +0.406 C 
BRANCH  14  15
ATOM     15  O   UNL     1       7.918  -5.734  25.658  0.00  0.00    -0.249 OA
BRANCH  15  16
ATOM     16  P   UNL     1       7.001  -5.051  26.957  0.00  0.00    +0.475 P 
ATOM     17  O   UNL     1       6.182  -4.439  28.119  0.00  0.00    -0.227 OA
BRANCH  16  18
ATOM     18  O   UNL     1       8.225  -3.962  27.050  0.00  0.00    -0.303 OA
ATOM     19  H   UNL     1       7.926  -3.089  26.738  0.00  0.00    +0.222 HD
ENDBRANCH  16  18
BRANCH  16  20
ATOM     20  O   UNL     1       7.776  -6.181  27.852  0.00  0.00    -0.303 OA
ATOM     21  H   UNL     1       7.528  -7.041  27.465  0.00  0.00    +0.222 HD
ENDBRANCH  16  20
ENDBRANCH  15  16
ENDBRANCH  14  15
ENDBRANCH  13  14
ENDBRANCH   2  13
TORSDOF 8
ENDMDL
MODEL 4
REMARK VINA RESULT:      -5.3      2.697      4.891
REMARK  Name = 
REMARK  12 active torsions:
REMARK  status: ('A' for Active; 'I' for Inactive)
REMARK    1  A    between atoms: C_1  and  C_2
REMARK    2  A    between atoms: C_2  and  C_3
REMARK    3  A    between atoms: C_2  and  C_4
REMARK    4  A    between atoms: C_8  and  C_9
REMARK    5  A    between atoms: C_9  and  C_10
REMARK    6  A    between atoms: C_9  and  C_11
REMARK    7  A    between atoms: C_12  and  O_13
REMARK    8  A    between atoms: O_13  and  C_14
REMARK    9  A    between atoms: C_14  and  O_15
REMARK   10  A    between atoms: O_15  and  P_16
REMARK   11  A    between atoms: P_16  and  O_17
REMARK   12  A    between atoms: P_16  and  O_18
REMARK                            x       y       z     vdW  Elec       q    Type
REMARK                         _______ _______ _______ _____ _____    ______ ____
ROOT
ATOM      1  C   UNL     1       9.516  -0.688  24.486  0.00  0.00    -0.003 A 
ATOM      2  C   UNL     1       9.177  -2.068  24.306  0.00  0.00    +0.130 A 
ATOM      3  C   UNL     1       8.667  -2.834  25.394  0.00  0.00    -0.003 A 
ATOM      4  C   UNL     1       8.352  -2.184  26.606  0.00  0.00    +0.007 A 
ATOM      5  C   UNL     1       8.572  -0.827  26.752  0.00  0.00    +0.001 A 
ATOM      6  C   UNL     1       9.153  -0.103  25.723  0.00  0.00    +0.007 A 
ENDROOT
BRANCH   1   8
ATOM      7  C   UNL     1       9.215   0.728  22.395  0.00  0.00    +0.012 C 
ATOM      8  C   UNL     1      10.190   0.251  23.473  0.00  0.00    +0.016 C 
ATOM      9  C   UNL     1      10.938   1.462  24.070  0.00  0.00    +0.012 C 
ENDBRANCH   1   8
BRANCH   3  10
ATOM     10  C   UNL     1       8.451  -4.358  25.403  0.00  0.00    +0.016 C 
ATOM     11  C   UNL     1       7.367  -4.880  26.351  0.00  0.00    +0.012 C 
ATOM     12  C   UNL     1       9.759  -5.132  25.584  0.00  0.00    +0.012 C 
ENDBRANCH   3  10
BRANCH   2  13
ATOM     13  O   UNL     1       9.163  -2.771  23.125  0.00  0.00    -0.465 OA
BRANCH  13  14
ATOM     14  C   UNL     1       8.031  -2.701  22.294  0.00  0.00    +0.406 C 
BRANCH  14  15
ATOM     15  O   UNL     1       7.471  -3.964  22.090  0.00  0.00    -0.249 OA
BRANCH  15  16
ATOM     16  P   UNL     1       5.790  -4.166  22.447  0.00  0.00    +0.475 P 
ATOM     17  O   UNL     1       4.286  -4.347  22.766  0.00  0.00    -0.227 OA
BRANCH  16  18
ATOM     18  O   UNL     1       5.556  -3.687  20.895  0.00  0.00    -0.303 OA
ATOM     19  H   UNL     1       6.110  -2.912  20.693  0.00  0.00    +0.222 HD
ENDBRANCH  16  18
BRANCH  16  20
ATOM     20  O   UNL     1       5.920  -2.641  23.027  0.00  0.00    -0.303 OA
ATOM     21  H   UNL     1       6.772  -2.609  23.500  0.00  0.00    +0.222 HD
ENDBRANCH  16  20
ENDBRANCH  15  16
ENDBRANCH  14  15
ENDBRANCH  13  14
ENDBRANCH   2  13
TORSDOF 8
ENDMDL
MODEL 5
REMARK VINA RESULT:      -5.3      3.689      6.202
REMARK  Name = 
REMARK  12 active torsions:
REMARK  status: ('A' for Active; 'I' for Inactive)
REMARK    1  A    between atoms: C_1  and  C_2
REMARK    2  A    between atoms: C_2  and  C_3
REMARK    3  A    between atoms: C_2  and  C_4
REMARK    4  A    between atoms: C_8  and  C_9
REMARK    5  A    between atoms: C_9  and  C_10
REMARK    6  A    between atoms: C_9  and  C_11
REMARK    7  A    between atoms: C_12  and  O_13
REMARK    8  A    between atoms: O_13  and  C_14
REMARK    9  A    between atoms: C_14  and  O_15
REMARK   10  A    between atoms: O_15  and  P_16
REMARK   11  A    between atoms: P_16  and  O_17
REMARK   12  A    between atoms: P_16  and  O_18
REMARK                            x       y       z     vdW  Elec       q    Type
REMARK                         _______ _______ _______ _____ _____    ______ ____
ROOT
ATOM      1  C   UNL     1       7.491  -4.929  23.809  0.00  0.00    -0.003 A 
ATOM      2  C   UNL     1       6.308  -5.427  24.443  0.00  0.00    +0.130 A 
ATOM      3  C   UNL     1       5.135  -5.690  23.676  0.00  0.00    -0.003 A 
ATOM      4  C   UNL     1       5.199  -5.604  22.269  0.00  0.00    +0.007 A 
ATOM      5  C   UNL     1       6.372  -5.231  21.641  0.00  0.00    +0.001 A 
ATOM      6  C   UNL     1       7.483  -4.888  22.394  0.00  0.00    +0.007 A 
ENDROOT
BRANCH   1   8
ATOM      7  C   UNL     1       8.649  -3.100  25.144  0.00  0.00    +0.012 C 
ATOM      8  C   UNL     1       8.795  -4.473  24.485  0.00  0.00    +0.016 C 
ATOM      9  C   UNL     1       9.419  -5.467  25.488  0.00  0.00    +0.012 C 
ENDBRANCH   1   8
BRANCH   3  10
ATOM     10  C   UNL     1       3.745  -6.032  24.241  0.00  0.00    +0.016 C 
ATOM     11  C   UNL     1       3.464  -7.519  24.486  0.00  0.00    +0.012 C 
ATOM     12  C   UNL     1       2.613  -5.384  23.441  0.00  0.00    +0.012 C 
ENDBRANCH   3  10
BRANCH   2  13
ATOM     13  O   UNL     1       6.172  -5.825  25.751  0.00  0.00    -0.465 OA
BRANCH  13  14
ATOM     14  C   UNL     1       5.941  -4.857  26.745  0.00  0.00    +0.406 C 
BRANCH  14  15
ATOM     15  O   UNL     1       5.084  -5.342  27.736  0.00  0.00    -0.249 OA
BRANCH  15  16
ATOM     16  P   UNL     1       5.792  -6.191  29.067  0.00  0.00    +0.475 P 
ATOM     17  O   UNL     1       6.427  -6.952  30.257  0.00  0.00    -0.227 OA
BRANCH  16  18
ATOM     18  O   UNL     1       7.197  -6.019  28.236  0.00  0.00    -0.303 OA
ATOM     19  H   UNL     1       7.954  -6.010  28.849  0.00  0.00    +0.222 HD
ENDBRANCH  16  18
BRANCH  16  20
ATOM     20  O   UNL     1       5.319  -7.517  28.231  0.00  0.00    -0.303 OA
ATOM     21  H   UNL     1       4.657  -7.202  27.588  0.00  0.00    +0.222 HD
ENDBRANCH  16  20
ENDBRANCH  15  16
ENDBRANCH  14  15
ENDBRANCH  13  14
ENDBRANCH   2  13
TORSDOF 8
ENDMDL
MODEL 6
REMARK VINA RESULT:      -5.2      2.029      4.597
REMARK  Name = 
REMARK  12 active torsions:
REMARK  status: ('A' for Active; 'I' for Inactive)
REMARK    1  A    between atoms: C_1  and  C_2
REMARK    2  A    between atoms: C_2  and  C_3
REMARK    3  A    between atoms: C_2  and  C_4
REMARK    4  A    between atoms: C_8  and  C_9
REMARK    5  A    between atoms: C_9  and  C_10
REMARK    6  A    between atoms: C_9  and  C_11
REMARK    7  A    between atoms: C_12  and  O_13
REMARK    8  A    between atoms: O_13  and  C_14
REMARK    9  A    between atoms: C_14  and  O_15
REMARK   10  A    between atoms: O_15  and  P_16
REMARK   11  A    between atoms: P_16  and  O_17
REMARK   12  A    between atoms: P_16  and  O_18
REMARK                            x       y       z     vdW  Elec       q    Type
REMARK                         _______ _______ _______ _____ _____    ______ ____
ROOT
ATOM      1  C   UNL     1       8.254  -2.148  24.303  0.00  0.00    -0.003 A 
ATOM      2  C   UNL     1       8.106  -3.533  23.972  0.00  0.00    +0.130 A 
ATOM      3  C   UNL     1       7.105  -3.951  23.047  0.00  0.00    -0.003 A 
ATOM      4  C   UNL     1       6.366  -2.975  22.344  0.00  0.00    +0.007 A 
ATOM      5  C   UNL     1       6.581  -1.630  22.577  0.00  0.00    +0.001 A 
ATOM      6  C   UNL     1       7.491  -1.229  23.543  0.00  0.00    +0.007 A 
ENDROOT
BRANCH   1   8
ATOM      7  C   UNL     1       9.870  -0.263  24.855  0.00  0.00    +0.012 C 
ATOM      8  C   UNL     1       9.183  -1.532  25.362  0.00  0.00    +0.016 C 
ATOM      9  C   UNL     1       8.547  -1.264  26.743  0.00  0.00    +0.012 C 
ENDBRANCH   1   8
BRANCH   3  10
ATOM     10  C   UNL     1       6.701  -5.406  22.750  0.00  0.00    +0.016 C 
ATOM     11  C   UNL     1       6.868  -5.869  21.299  0.00  0.00    +0.012 C 
ATOM     12  C   UNL     1       5.305  -5.744  23.278  0.00  0.00    +0.012 C 
ENDBRANCH   3  10
BRANCH   2  13
ATOM     13  O   UNL     1       8.923  -4.570  24.354  0.00  0.00    -0.465 OA
BRANCH  13  14
ATOM     14  C   UNL     1       8.938  -4.975  25.701  0.00  0.00    +0.406 C 
BRANCH  14  15
ATOM     15  O   UNL     1       7.859  -5.813  25.991  0.00  0.00    -0.249 OA
BRANCH  15  16
ATOM     16  P   UNL     1       6.701  -5.261  27.152  0.00  0.00    +0.475 P 
ATOM     17  O   UNL     1       5.665  -4.768  28.191  0.00  0.00    -0.227 OA
BRANCH  16  18
ATOM     18  O   UNL     1       7.509  -6.233  28.199  0.00  0.00    -0.303 OA
ATOM     19  H   UNL     1       7.962  -6.947  27.716  0.00  0.00    +0.222 HD
ENDBRANCH  16  18
BRANCH  16  20
ATOM     20  O   UNL     1       5.787  -6.474  26.541  0.00  0.00    -0.303 OA
ATOM     21  H   UNL     1       5.358  -6.108  25.746  0.00  0.00    +0.222 HD
ENDBRANCH  16  20
ENDBRANCH  15  16
ENDBRANCH  14  15
ENDBRANCH  13  14
ENDBRANCH   2  13
TORSDOF 8
ENDMDL
MODEL 7
REMARK VINA RESULT:      -5.2      2.925      4.820
REMARK  Name = 
REMARK  12 active torsions:
REMARK  status: ('A' for Active; 'I' for Inactive)
REMARK    1  A    between atoms: C_1  and  C_2
REMARK    2  A    between atoms: C_2  and  C_3
REMARK    3  A    between atoms: C_2  and  C_4
REMARK    4  A    between atoms: C_8  and  C_9
REMARK    5  A    between atoms: C_9  and  C_10
REMARK    6  A    between atoms: C_9  and  C_11
REMARK    7  A    between atoms: C_12  and  O_13
REMARK    8  A    between atoms: O_13  and  C_14
REMARK    9  A    between atoms: C_14  and  O_15
REMARK   10  A    between atoms: O_15  and  P_16
REMARK   11  A    between atoms: P_16  and  O_17
REMARK   12  A    between atoms: P_16  and  O_18
REMARK                            x       y       z     vdW  Elec       q    Type
REMARK                         _______ _______ _______ _____ _____    ______ ____
ROOT
ATOM      1  C   UNL     1       8.244  -0.922  23.758  0.00  0.00    -0.003 A 
ATOM      2  C   UNL     1       7.870  -2.304  23.782  0.00  0.00    +0.130 A 
ATOM      3  C   UNL     1       8.025  -3.073  24.972  0.00  0.00    -0.003 A 
ATOM      4  C   UNL     1       8.403  -2.424  26.167  0.00  0.00    +0.007 A 
ATOM      5  C   UNL     1       8.659  -1.066  26.177  0.00  0.00    +0.001 A 
ATOM      6  C   UNL     1       8.595  -0.339  24.999  0.00  0.00    +0.007 A 
ENDROOT
BRANCH   1   8
ATOM      7  C   UNL     1       8.349   1.490  22.960  0.00  0.00    +0.012 C 
ATOM      8  C   UNL     1       8.267   0.021  22.544  0.00  0.00    +0.016 C 
ATOM      9  C   UNL     1       9.340  -0.279  21.476  0.00  0.00    +0.012 C 
ENDBRANCH   1   8
BRANCH   3  10
ATOM     10  C   UNL     1       7.857  -4.598  25.090  0.00  0.00    +0.016 C 
ATOM     11  C   UNL     1       6.814  -5.085  26.101  0.00  0.00    +0.012 C 
ATOM     12  C   UNL     1       9.192  -5.320  25.288  0.00  0.00    +0.012 C 
ENDBRANCH   3  10
BRANCH   2  13
ATOM     13  O   UNL     1       7.231  -3.008  22.790  0.00  0.00    -0.465 OA
BRANCH  13  14
ATOM     14  C   UNL     1       5.877  -2.742  22.518  0.00  0.00    +0.406 C 
BRANCH  14  15
ATOM     15  O   UNL     1       5.124  -3.918  22.492  0.00  0.00    -0.249 OA
BRANCH  15  16
ATOM     16  P   UNL     1       5.961  -5.403  22.196  0.00  0.00    +0.475 P 
ATOM     17  O   UNL     1       6.709  -6.732  21.931  0.00  0.00    -0.227 OA
BRANCH  16  18
ATOM     18  O   UNL     1       5.920  -4.940  20.622  0.00  0.00    -0.303 OA
ATOM     19  H   UNL     1       5.285  -5.486  20.125  0.00  0.00    +0.222 HD
ENDBRANCH  16  18
BRANCH  16  20
ATOM     20  O   UNL     1       4.451  -6.034  22.176  0.00  0.00    -0.303 OA
ATOM     21  H   UNL     1       4.355  -6.519  23.016  0.00  0.00    +0.222 HD
ENDBRANCH  16  20
ENDBRANCH  15  16
ENDBRANCH  14  15
ENDBRANCH  13  14
ENDBRANCH   2  13
TORSDOF 8
ENDMDL
MODEL 8
REMARK VINA RESULT:      -5.1      3.119      5.683
REMARK  Name = 
REMARK  12 active torsions:
REMARK  status: ('A' for Active; 'I' for Inactive)
REMARK    1  A    between atoms: C_1  and  C_2
REMARK    2  A    between atoms: C_2  and  C_3
REMARK    3  A    between atoms: C_2  and  C_4
REMARK    4  A    between atoms: C_8  and  C_9
REMARK    5  A    between atoms: C_9  and  C_10
REMARK    6  A    between atoms: C_9  and  C_11
REMARK    7  A    between atoms: C_12  and  O_13
REMARK    8  A    between atoms: O_13  and  C_14
REMARK    9  A    between atoms: C_14  and  O_15
REMARK   10  A    between atoms: O_15  and  P_16
REMARK   11  A    between atoms: P_16  and  O_17
REMARK   12  A    between atoms: P_16  and  O_18
REMARK                            x       y       z     vdW  Elec       q    Type
REMARK                         _______ _______ _______ _____ _____    ______ ____
ROOT
ATOM      1  C   UNL     1       6.029  -5.245  23.641  0.00  0.00    -0.003 A 
ATOM      2  C   UNL     1       6.466  -4.874  24.953  0.00  0.00    +0.130 A 
ATOM      3  C   UNL     1       5.858  -5.451  26.106  0.00  0.00    -0.003 A 
ATOM      4  C   UNL     1       4.932  -6.503  25.942  0.00  0.00    +0.007 A 
ATOM      5  C   UNL     1       4.587  -6.944  24.679  0.00  0.00    +0.001 A 
ATOM      6  C   UNL     1       5.112  -6.319  23.559  0.00  0.00    +0.007 A 
ENDROOT
BRANCH   1   8
ATOM      7  C   UNL     1       6.339  -5.637  21.147  0.00  0.00    +0.012 C 
ATOM      8  C   UNL     1       6.475  -4.640  22.299  0.00  0.00    +0.016 C 
ATOM      9  C   UNL     1       5.815  -3.301  21.910  0.00  0.00    +0.012 C 
ENDBRANCH   1   8
BRANCH   3  10
ATOM     10  C   UNL     1       6.082  -5.006  27.562  0.00  0.00    +0.016 C 
ATOM     11  C   UNL     1       6.192  -6.128  28.600  0.00  0.00    +0.012 C 
ATOM     12  C   UNL     1       5.078  -3.941  28.009  0.00  0.00    +0.012 C 
ENDBRANCH   3  10
BRANCH   2  13
ATOM     13  O   UNL     1       7.538  -4.077  25.276  0.00  0.00    -0.465 OA
BRANCH  13  14
ATOM     14  C   UNL     1       7.392  -2.679  25.247  0.00  0.00    +0.406 C 
BRANCH  14  15
ATOM     15  O   UNL     1       8.626  -2.042  25.099  0.00  0.00    -0.249 OA
BRANCH  15  16
ATOM     16  P   UNL     1       9.312  -1.975  23.512  0.00  0.00    +0.475 P 
ATOM     17  O   UNL     1       9.926  -1.915  22.092  0.00  0.00    -0.227 OA
BRANCH  16  18
ATOM     18  O   UNL     1      10.203  -3.261  24.004  0.00  0.00    -0.303 OA
ATOM     19  H   UNL     1      11.154  -3.067  23.918  0.00  0.00    +0.222 HD
ENDBRANCH  16  18
BRANCH  16  20
ATOM     20  O   UNL     1      10.309  -0.869  24.191  0.00  0.00    -0.303 OA
ATOM     21  H   UNL     1      10.921  -1.376  24.757  0.00  0.00    +0.222 HD
ENDBRANCH  16  20
ENDBRANCH  15  16
ENDBRANCH  14  15
ENDBRANCH  13  14
ENDBRANCH   2  13
TORSDOF 8
ENDMDL
MODEL 9
REMARK VINA RESULT:      -5.1      1.802      4.413
REMARK  Name = 
REMARK  12 active torsions:
REMARK  status: ('A' for Active; 'I' for Inactive)
REMARK    1  A    between atoms: C_1  and  C_2
REMARK    2  A    between atoms: C_2  and  C_3
REMARK    3  A    between atoms: C_2  and  C_4
REMARK    4  A    between atoms: C_8  and  C_9
REMARK    5  A    between atoms: C_9  and  C_10
REMARK    6  A    between atoms: C_9  and  C_11
REMARK    7  A    between atoms: C_12  and  O_13
REMARK    8  A    between atoms: O_13  and  C_14
REMARK    9  A    between atoms: C_14  and  O_15
REMARK   10  A    between atoms: O_15  and  P_16
REMARK   11  A    between atoms: P_16  and  O_17
REMARK   12  A    between atoms: P_16  and  O_18
REMARK                            x       y       z     vdW  Elec       q    Type
REMARK                         _______ _______ _______ _____ _____    ______ ____
ROOT
ATOM      1  C   UNL     1       8.891  -1.054  24.147  0.00  0.00    -0.003 A 
ATOM      2  C   UNL     1       8.127  -2.254  24.314  0.00  0.00    +0.130 A 
ATOM      3  C   UNL     1       7.699  -3.000  23.178  0.00  0.00    -0.003 A 
ATOM      4  C   UNL     1       8.165  -2.633  21.897  0.00  0.00    +0.007 A 
ATOM      5  C   UNL     1       8.995  -1.540  21.740  0.00  0.00    +0.001 A 
ATOM      6  C   UNL     1       9.335  -0.763  22.835  0.00  0.00    +0.007 A 
ENDROOT
BRANCH   1   8
ATOM      7  C   UNL     1      10.707   0.534  24.953  0.00  0.00    +0.012 C 
ATOM      8  C   UNL     1       9.327  -0.062  25.238  0.00  0.00    +0.016 C 
ATOM      9  C   UNL     1       8.328   1.069  25.560  0.00  0.00    +0.012 C 
ENDBRANCH   1   8
BRANCH   3  10
ATOM     10  C   UNL     1       6.714  -4.183  23.193  0.00  0.00    +0.016 C 
ATOM     11  C   UNL     1       7.048  -5.350  22.258  0.00  0.00    +0.012 C 
ATOM     12  C   UNL     1       5.261  -3.736  23.018  0.00  0.00    +0.012 C 
ENDBRANCH   3  10
BRANCH   2  13
ATOM     13  O   UNL     1       7.831  -2.892  25.495  0.00  0.00    -0.465 OA
BRANCH  13  14
ATOM     14  C   UNL     1       8.860  -3.530  26.211  0.00  0.00    +0.406 C 
BRANCH  14  15
ATOM     15  O   UNL     1       8.344  -4.404  27.170  0.00  0.00    -0.249 OA
BRANCH  15  16
ATOM     16  P   UNL     1       7.029  -5.427  26.702  0.00  0.00    +0.475 P 
ATOM     17  O   UNL     1       5.852  -6.342  26.284  0.00  0.00    -0.227 OA
BRANCH  16  18
ATOM     18  O   UNL     1       6.086  -4.289  27.414  0.00  0.00    -0.303 OA
ATOM     19  H   UNL     1       5.245  -4.682  27.709  0.00  0.00    +0.222 HD
ENDBRANCH  16  18
BRANCH  16  20
ATOM     20  O   UNL     1       7.372  -6.196  28.106  0.00  0.00    -0.303 OA
ATOM     21  H   UNL     1       7.080  -7.118  27.981  0.00  0.00    +0.222 HD
ENDBRANCH  16  20
ENDBRANCH  15  16
ENDBRANCH  14  15
ENDBRANCH  13  14
ENDBRANCH   2  13
TORSDOF 8
ENDMDL
