MODEL 1
REMARK VINA RESULT:      -6.3      0.000      0.000
REMARK  Name = 
REMARK  12 active torsions:
REMARK  status: ('A' for Active; 'I' for Inactive)
REMARK    1  A    between atoms: C_1  and  O_2
REMARK    2  A    between atoms: O_2  and  C_3
REMARK    3  A    between atoms: C_6  and  C_7
REMARK    4  A    between atoms: C_7  and  C_8
REMARK    5  A    between atoms: C_8  and  C_10
REMARK    6  A    between atoms: C_8  and  N_11
REMARK    7  A    between atoms: N_11  and  C_12
REMARK    8  A    between atoms: C_12  and  C_13
REMARK    9  A    between atoms: C_13  and  O_15
REMARK   10  A    between atoms: C_13  and  C_16
REMARK   11  A    between atoms: C_18  and  N_19
REMARK   12  A    between atoms: C_22  and  O_23
REMARK                            x       y       z     vdW  Elec       q    Type
REMARK                         _______ _______ _______ _____ _____    ______ ____
ROOT
ATOM      1  C   UNL     1       8.944  -5.366  25.167  0.00  0.00    +0.158 C 
ENDROOT
BRANCH   1   2
ATOM      2  C   UNL     1       7.998  -4.876  24.091  0.00  0.00    -0.016 A 
ATOM      3  C   UNL     1       7.605  -5.699  23.027  0.00  0.00    +0.010 A 
ATOM      4  C   UNL     1       6.776  -5.206  22.023  0.00  0.00    +0.047 A 
ATOM      5  C   UNL     1       6.336  -3.886  22.077  0.00  0.00    +0.138 A 
ATOM      6  C   UNL     1       6.718  -3.035  23.124  0.00  0.00    +0.075 A 
ATOM      7  C   UNL     1       7.551  -3.542  24.126  0.00  0.00    +0.033 A 
BRANCH   6   8
ATOM      8  N   UNL     1       6.290  -1.697  23.112  0.00  0.00    -0.285 N 
ATOM      9  H   UNL     1       5.298  -1.499  23.058  0.00  0.00    +0.155 HD
ATOM     10  C   UNL     1       7.070  -0.576  23.115  0.00  0.00    +0.330 C 
ATOM     11  O   UNL     1       6.591   0.554  23.068  0.00  0.00    -0.279 OA
ENDBRANCH   6   8
BRANCH   5  12
ATOM     12  O   UNL     1       5.493  -3.483  21.078  0.00  0.00    -0.505 OA
ATOM     13  H   UNL     1       4.917  -2.790  21.442  0.00  0.00    +0.292 HD
ENDBRANCH   5  12
ENDBRANCH   1   2
BRANCH   1  14
ATOM     14  O   UNL     1      10.308  -5.071  24.853  0.00  0.00    -0.386 OA
ATOM     15  H   UNL     1      10.652  -5.841  24.369  0.00  0.00    +0.210 HD
ENDBRANCH   1  14
BRANCH   1  16
ATOM     16  C   UNL     1       8.600  -4.831  26.578  0.00  0.00    +0.117 C 
BRANCH  16  17
ATOM     17  N   UNL     1       7.707  -5.714  27.351  0.00  0.00    -0.310 NA
ATOM     18  H   UNL     1       7.887  -6.679  27.062  0.00  0.00    +0.122 HD
BRANCH  17  19
ATOM     19  C   UNL     1       6.277  -5.380  27.195  0.00  0.00    +0.055 C 
ATOM     20  C   UNL     1       5.760  -4.919  28.564  0.00  0.00    +0.024 C 
BRANCH  19  21
ATOM     21  C   UNL     1       5.455  -6.577  26.673  0.00  0.00    +0.053 C 
BRANCH  21  25
ATOM     22  C   UNL     1       2.534  -5.842  23.609  0.00  0.00    +0.120 A 
ATOM     23  C   UNL     1       2.647  -7.105  24.187  0.00  0.00    +0.046 A 
ATOM     24  C   UNL     1       3.553  -7.318  25.222  0.00  0.00    +0.007 A 
ATOM     25  C   UNL     1       4.345  -6.269  25.701  0.00  0.00    -0.046 A 
ATOM     26  C   UNL     1       4.171  -4.986  25.168  0.00  0.00    +0.007 A 
ATOM     27  C   UNL     1       3.258  -4.772  24.132  0.00  0.00    +0.046 A 
BRANCH  22  29
ATOM     28  C   UNL     1       0.767  -6.593  22.270  0.00  0.00    +0.277 C 
ATOM     29  O   UNL     1       1.724  -5.568  22.538  0.00  0.00    -0.495 OA
ENDBRANCH  22  29
ENDBRANCH  21  25
ENDBRANCH  19  21
ENDBRANCH  17  19
ENDBRANCH  16  17
ENDBRANCH   1  16
TORSDOF 10
ENDMDL
MODEL 2
REMARK VINA RESULT:      -6.3      4.496      8.841
REMARK  Name = 
REMARK  12 active torsions:
REMARK  status: ('A' for Active; 'I' for Inactive)
REMARK    1  A    between atoms: C_1  and  O_2
REMARK    2  A    between atoms: O_2  and  C_3
REMARK    3  A    between atoms: C_6  and  C_7
REMARK    4  A    between atoms: C_7  and  C_8
REMARK    5  A    between atoms: C_8  and  C_10
REMARK    6  A    between atoms: C_8  and  N_11
REMARK    7  A    between atoms: N_11  and  C_12
REMARK    8  A    between atoms: C_12  and  C_13
REMARK    9  A    between atoms: C_13  and  O_15
REMARK   10  A    between atoms: C_13  and  C_16
REMARK   11  A    between atoms: C_18  and  N_19
REMARK   12  A    between atoms: C_22  and  O_23
REMARK                            x       y       z     vdW  Elec       q    Type
REMARK                         _______ _______ _______ _____ _____    ______ ____
ROOT
ATOM      1  C   UNL     1       6.973   3.454  22.745  0.00  0.00    +0.158 C 
ENDROOT
BRANCH   1   2
ATOM      2  C   UNL     1       6.882   2.344  23.771  0.00  0.00    -0.016 A 
ATOM      3  C   UNL     1       7.266   2.542  25.104  0.00  0.00    +0.010 A 
ATOM      4  C   UNL     1       7.221   1.489  26.014  0.00  0.00    +0.047 A 
ATOM      5  C   UNL     1       6.794   0.231  25.595  0.00  0.00    +0.138 A 
ATOM      6  C   UNL     1       6.412  -0.000  24.267  0.00  0.00    +0.075 A 
ATOM      7  C   UNL     1       6.461   1.065  23.363  0.00  0.00    +0.033 A 
BRANCH   6   8
ATOM      8  N   UNL     1       6.035  -1.296  23.877  0.00  0.00    -0.285 N 
ATOM      9  H   UNL     1       5.493  -1.864  24.518  0.00  0.00    +0.155 HD
ATOM     10  C   UNL     1       6.355  -1.940  22.717  0.00  0.00    +0.330 C 
ATOM     11  O   UNL     1       6.000  -3.094  22.489  0.00  0.00    -0.279 OA
ENDBRANCH   6   8
BRANCH   5  12
ATOM     12  O   UNL     1       6.740  -0.744  26.552  0.00  0.00    -0.505 OA
ATOM     13  H   UNL     1       5.879  -0.670  26.999  0.00  0.00    +0.292 HD
ENDBRANCH   5  12
ENDBRANCH   1   2
BRANCH   1  14
ATOM     14  O   UNL     1       5.710   3.713  22.125  0.00  0.00    -0.386 OA
ATOM     15  H   UNL     1       5.150   2.939  22.310  0.00  0.00    +0.210 HD
ENDBRANCH   1  14
BRANCH   1  16
ATOM     16  C   UNL     1       7.561   4.768  23.313  0.00  0.00    +0.117 C 
BRANCH  16  17
ATOM     17  N   UNL     1       8.937   5.051  22.864  0.00  0.00    -0.310 NA
ATOM     18  H   UNL     1       9.094   4.548  21.988  0.00  0.00    +0.122 HD
BRANCH  17  19
ATOM     19  C   UNL     1       9.963   4.694  23.864  0.00  0.00    +0.055 C 
ATOM     20  C   UNL     1      10.680   5.989  24.270  0.00  0.00    +0.024 C 
BRANCH  19  21
ATOM     21  C   UNL     1      10.968   3.659  23.318  0.00  0.00    +0.053 C 
BRANCH  21  25
ATOM     22  C   UNL     1       9.983  -0.510  22.971  0.00  0.00    +0.120 A 
ATOM     23  C   UNL     1      10.328   0.033  24.208  0.00  0.00    +0.046 A 
ATOM     24  C   UNL     1      10.585   1.396  24.322  0.00  0.00    +0.007 A 
ATOM     25  C   UNL     1      10.485   2.234  23.207  0.00  0.00    -0.046 A 
ATOM     26  C   UNL     1      10.063   1.696  21.985  0.00  0.00    +0.007 A 
ATOM     27  C   UNL     1       9.801   0.328  21.873  0.00  0.00    +0.046 A 
BRANCH  22  29
ATOM     28  C   UNL     1       9.782  -2.622  23.958  0.00  0.00    +0.277 C 
ATOM     29  O   UNL     1       9.789  -1.850  22.758  0.00  0.00    -0.495 OA
ENDBRANCH  22  29
ENDBRANCH  21  25
ENDBRANCH  19  21
ENDBRANCH  17  19
ENDBRANCH  16  17
ENDBRANCH   1  16
TORSDOF 10
ENDMDL
MODEL 3
REMARK VINA RESULT:      -6.3      3.308      7.528
REMARK  Name = 
REMARK  12 active torsions:
REMARK  status: ('A' for Active; 'I' for Inactive)
REMARK    1  A    between atoms: C_1  and  O_2
REMARK    2  A    between atoms: O_2  and  C_3
REMARK    3  A    between atoms: C_6  and  C_7
REMARK    4  A    between atoms: C_7  and  C_8
REMARK    5  A    between atoms: C_8  and  C_10
REMARK    6  A    between atoms: C_8  and  N_11
REMARK    7  A    between atoms: N_11  and  C_12
REMARK    8  A    between atoms: C_12  and  C_13
REMARK    9  A    between atoms: C_13  and  O_15
REMARK   10  A    between atoms: C_13  and  C_16
REMARK   11  A    between atoms: C_18  and  N_19
REMARK   12  A    between atoms: C_22  and  O_23
REMARK                            x       y       z     vdW  Elec       q    Type
REMARK                         _______ _______ _______ _____ _____    ______ ____
ROOT
ATOM      1  C   UNL     1       7.288  -4.780  26.621  0.00  0.00    +0.158 C 
ENDROOT
BRANCH   1   2
ATOM      2  C   UNL     1       6.211  -5.534  25.868  0.00  0.00    -0.016 A 
ATOM      3  C   UNL     1       5.301  -6.370  26.528  0.00  0.00    +0.010 A 
ATOM      4  C   UNL     1       4.355  -7.091  25.805  0.00  0.00    +0.047 A 
ATOM      5  C   UNL     1       4.315  -6.982  24.417  0.00  0.00    +0.138 A 
ATOM      6  C   UNL     1       5.218  -6.161  23.728  0.00  0.00    +0.075 A 
ATOM      7  C   UNL     1       6.163  -5.441  24.464  0.00  0.00    +0.033 A 
BRANCH   6   8
ATOM      8  N   UNL     1       5.173  -6.119  22.324  0.00  0.00    -0.285 N 
ATOM      9  H   UNL     1       4.402  -6.566  21.843  0.00  0.00    +0.155 HD
ATOM     10  C   UNL     1       6.097  -5.572  21.480  0.00  0.00    +0.330 C 
ATOM     11  O   UNL     1       5.977  -5.620  20.259  0.00  0.00    -0.279 OA
ENDBRANCH   6   8
BRANCH   5  12
ATOM     12  O   UNL     1       3.335  -7.690  23.778  0.00  0.00    -0.505 OA
ATOM     13  H   UNL     1       3.037  -7.159  23.020  0.00  0.00    +0.292 HD
ENDBRANCH   5  12
ENDBRANCH   1   2
BRANCH   1  14
ATOM     14  O   UNL     1       8.049  -5.644  27.471  0.00  0.00    -0.386 OA
ATOM     15  H   UNL     1       7.422  -6.293  27.834  0.00  0.00    +0.210 HD
ENDBRANCH   1  14
BRANCH   1  16
ATOM     16  C   UNL     1       8.237  -3.979  25.698  0.00  0.00    +0.117 C 
BRANCH  16  17
ATOM     17  N   UNL     1       8.374  -2.559  26.069  0.00  0.00    -0.310 NA
ATOM     18  H   UNL     1       7.483  -2.245  26.459  0.00  0.00    +0.122 HD
BRANCH  17  19
ATOM     19  C   UNL     1       8.783  -1.697  24.941  0.00  0.00    +0.055 C 
ATOM     20  C   UNL     1       9.412  -2.603  23.874  0.00  0.00    +0.024 C 
BRANCH  19  21
ATOM     21  C   UNL     1       9.772  -0.597  25.380  0.00  0.00    +0.053 C 
BRANCH  21  25
ATOM     22  C   UNL     1       9.431   3.457  23.997  0.00  0.00    +0.120 A 
ATOM     23  C   UNL     1      10.532   2.681  23.641  0.00  0.00    +0.046 A 
ATOM     24  C   UNL     1      10.604   1.349  24.042  0.00  0.00    +0.007 A 
ATOM     25  C   UNL     1       9.570   0.775  24.789  0.00  0.00    -0.046 A 
ATOM     26  C   UNL     1       8.432   1.538  25.077  0.00  0.00    +0.007 A 
ATOM     27  C   UNL     1       8.359   2.873  24.670  0.00  0.00    +0.046 A 
BRANCH  22  29
ATOM     28  C   UNL     1      10.568   5.482  23.713  0.00  0.00    +0.277 C 
ATOM     29  O   UNL     1       9.319   4.792  23.709  0.00  0.00    -0.495 OA
ENDBRANCH  22  29
ENDBRANCH  21  25
ENDBRANCH  19  21
ENDBRANCH  17  19
ENDBRANCH  16  17
ENDBRANCH   1  16
TORSDOF 10
ENDMDL
MODEL 4
REMARK VINA RESULT:      -6.2      2.507      6.529
REMARK  Name = 
REMARK  12 active torsions:
REMARK  status: ('A' for Active; 'I' for Inactive)
REMARK    1  A    between atoms: C_1  and  O_2
REMARK    2  A    between atoms: O_2  and  C_3
REMARK    3  A    between atoms: C_6  and  C_7
REMARK    4  A    between atoms: C_7  and  C_8
REMARK    5  A    between atoms: C_8  and  C_10
REMARK    6  A    between atoms: C_8  and  N_11
REMARK    7  A    between atoms: N_11  and  C_12
REMARK    8  A    between atoms: C_12  and  C_13
REMARK    9  A    between atoms: C_13  and  O_15
REMARK   10  A    between atoms: C_13  and  C_16
REMARK   11  A    between atoms: C_18  and  N_19
REMARK   12  A    between atoms: C_22  and  O_23
REMARK                            x       y       z     vdW  Elec       q    Type
REMARK                         _______ _______ _______ _____ _____    ______ ____
ROOT
ATOM      1  C   UNL     1       7.628  -4.494  26.351  0.00  0.00    +0.158 C 
ENDROOT
BRANCH   1   2
ATOM      2  C   UNL     1       6.528  -5.303  25.697  0.00  0.00    -0.016 A 
ATOM      3  C   UNL     1       5.683  -6.134  26.445  0.00  0.00    +0.010 A 
ATOM      4  C   UNL     1       4.713  -6.906  25.811  0.00  0.00    +0.047 A 
ATOM      5  C   UNL     1       4.585  -6.854  24.426  0.00  0.00    +0.138 A 
ATOM      6  C   UNL     1       5.421  -6.040  23.650  0.00  0.00    +0.075 A 
ATOM      7  C   UNL     1       6.390  -5.268  24.297  0.00  0.00    +0.033 A 
BRANCH   6   8
ATOM      8  N   UNL     1       5.287  -6.055  22.251  0.00  0.00    -0.285 N 
ATOM      9  H   UNL     1       4.476  -6.501  21.840  0.00  0.00    +0.155 HD
ATOM     10  C   UNL     1       6.168  -5.568  21.328  0.00  0.00    +0.330 C 
ATOM     11  O   UNL     1       5.970  -5.664  20.121  0.00  0.00    -0.279 OA
ENDBRANCH   6   8
BRANCH   5  12
ATOM     12  O   UNL     1       3.586  -7.610  23.877  0.00  0.00    -0.505 OA
ATOM     13  H   UNL     1       3.706  -7.601  22.913  0.00  0.00    +0.292 HD
ENDBRANCH   5  12
ENDBRANCH   1   2
BRANCH   1  14
ATOM     14  O   UNL     1       8.749  -5.308  26.708  0.00  0.00    -0.386 OA
ATOM     15  H   UNL     1       9.348  -4.741  27.225  0.00  0.00    +0.210 HD
ENDBRANCH   1  14
BRANCH   1  16
ATOM     16  C   UNL     1       8.100  -3.293  25.496  0.00  0.00    +0.117 C 
BRANCH  16  17
ATOM     17  N   UNL     1       9.305  -3.567  24.693  0.00  0.00    -0.310 NA
ATOM     18  H   UNL     1      10.048  -3.868  25.328  0.00  0.00    +0.122 HD
BRANCH  17  19
ATOM     19  C   UNL     1       9.744  -2.411  23.885  0.00  0.00    +0.055 C 
ATOM     20  C   UNL     1       9.709  -1.175  24.794  0.00  0.00    +0.024 C 
BRANCH  19  21
ATOM     21  C   UNL     1       8.856  -2.203  22.641  0.00  0.00    +0.053 C 
BRANCH  21  25
ATOM     22  C   UNL     1       7.986   1.958  22.013  0.00  0.00    +0.120 A 
ATOM     23  C   UNL     1       9.130   1.386  21.461  0.00  0.00    +0.046 A 
ATOM     24  C   UNL     1       9.372   0.024  21.617  0.00  0.00    +0.007 A 
ATOM     25  C   UNL     1       8.466  -0.783  22.313  0.00  0.00    -0.046 A 
ATOM     26  C   UNL     1       7.281  -0.217  22.798  0.00  0.00    +0.007 A 
ATOM     27  C   UNL     1       7.037   1.150  22.636  0.00  0.00    +0.046 A 
BRANCH  22  29
ATOM     28  C   UNL     1       6.390   3.626  22.396  0.00  0.00    +0.277 C 
ATOM     29  O   UNL     1       7.712   3.301  21.970  0.00  0.00    -0.495 OA
ENDBRANCH  22  29
ENDBRANCH  21  25
ENDBRANCH  19  21
ENDBRANCH  17  19
ENDBRANCH  16  17
ENDBRANCH   1  16
TORSDOF 10
ENDMDL
MODEL 5
REMARK VINA RESULT:      -6.2      4.710      9.183
REMARK  Name = 
REMARK  12 active torsions:
REMARK  status: ('A' for Active; 'I' for Inactive)
REMARK    1  A    between atoms: C_1  and  O_2
REMARK    2  A    between atoms: O_2  and  C_3
REMARK    3  A    between atoms: C_6  and  C_7
REMARK    4  A    between atoms: C_7  and  C_8
REMARK    5  A    between atoms: C_8  and  C_10
REMARK    6  A    between atoms: C_8  and  N_11
REMARK    7  A    between atoms: N_11  and  C_12
REMARK    8  A    between atoms: C_12  and  C_13
REMARK    9  A    between atoms: C_13  and  O_15
REMARK   10  A    between atoms: C_13  and  C_16
REMARK   11  A    between atoms: C_18  and  N_19
REMARK   12  A    between atoms: C_22  and  O_23
REMARK                            x       y       z     vdW  Elec       q    Type
REMARK                         _______ _______ _______ _____ _____    ______ ____
ROOT
ATOM      1  C   UNL     1       8.027  -0.443  26.667  0.00  0.00    +0.158 C 
ENDROOT
BRANCH   1   2
ATOM      2  C   UNL     1       8.579  -0.781  25.297  0.00  0.00    -0.016 A 
ATOM      3  C   UNL     1       9.869  -0.394  24.909  0.00  0.00    +0.010 A 
ATOM      4  C   UNL     1      10.332  -0.672  23.626  0.00  0.00    +0.047 A 
ATOM      5  C   UNL     1       9.507  -1.336  22.723  0.00  0.00    +0.138 A 
ATOM      6  C   UNL     1       8.209  -1.728  23.078  0.00  0.00    +0.075 A 
ATOM      7  C   UNL     1       7.756  -1.445  24.370  0.00  0.00    +0.033 A 
BRANCH   6   8
ATOM      8  N   UNL     1       7.394  -2.353  22.119  0.00  0.00    -0.285 N 
ATOM      9  H   UNL     1       7.521  -2.124  21.141  0.00  0.00    +0.155 HD
ATOM     10  C   UNL     1       6.376  -3.235  22.344  0.00  0.00    +0.330 C 
ATOM     11  O   UNL     1       5.699  -3.699  21.430  0.00  0.00    -0.279 OA
ENDBRANCH   6   8
BRANCH   5  12
ATOM     12  O   UNL     1      10.042  -1.609  21.494  0.00  0.00    -0.505 OA
ATOM     13  H   UNL     1      10.077  -2.575  21.397  0.00  0.00    +0.292 HD
ENDBRANCH   5  12
ENDBRANCH   1   2
BRANCH   1  14
ATOM     14  O   UNL     1       9.056  -0.392  27.659  0.00  0.00    -0.386 OA
ATOM     15  H   UNL     1       9.172  -1.302  27.983  0.00  0.00    +0.210 HD
ENDBRANCH   1  14
BRANCH   1  16
ATOM     16  C   UNL     1       7.204   0.867  26.691  0.00  0.00    +0.117 C 
BRANCH  16  17
ATOM     17  N   UNL     1       7.906   2.025  26.108  0.00  0.00    -0.310 NA
ATOM     18  H   UNL     1       8.053   2.714  26.849  0.00  0.00    +0.122 HD
BRANCH  17  19
ATOM     19  C   UNL     1       7.187   2.629  24.967  0.00  0.00    +0.055 C 
ATOM     20  C   UNL     1       5.930   1.786  24.717  0.00  0.00    +0.024 C 
BRANCH  19  21
ATOM     21  C   UNL     1       8.064   2.697  23.700  0.00  0.00    +0.053 C 
BRANCH  21  25
ATOM     22  C   UNL     1      11.560   5.193  23.589  0.00  0.00    +0.120 A 
ATOM     23  C   UNL     1      10.345   5.702  24.043  0.00  0.00    +0.046 A 
ATOM     24  C   UNL     1       9.233   4.869  24.134  0.00  0.00    +0.007 A 
ATOM     25  C   UNL     1       9.326   3.517  23.788  0.00  0.00    -0.046 A 
ATOM     26  C   UNL     1      10.569   2.995  23.407  0.00  0.00    +0.007 A 
ATOM     27  C   UNL     1      11.686   3.831  23.320  0.00  0.00    +0.046 A 
BRANCH  22  29
ATOM     28  C   UNL     1      13.423   5.602  22.234  0.00  0.00    +0.277 C 
ATOM     29  O   UNL     1      12.680   5.960  23.398  0.00  0.00    -0.495 OA
ENDBRANCH  22  29
ENDBRANCH  21  25
ENDBRANCH  19  21
ENDBRANCH  17  19
ENDBRANCH  16  17
ENDBRANCH   1  16
TORSDOF 10
ENDMDL
MODEL 6
REMARK VINA RESULT:      -6.1      3.851      6.170
REMARK  Name = 
REMARK  12 active torsions:
REMARK  status: ('A' for Active; 'I' for Inactive)
REMARK    1  A    between atoms: C_1  and  O_2
REMARK    2  A    between atoms: O_2  and  C_3
REMARK    3  A    between atoms: C_6  and  C_7
REMARK    4  A    between atoms: C_7  and  C_8
REMARK    5  A    between atoms: C_8  and  C_10
REMARK    6  A    between atoms: C_8  and  N_11
REMARK    7  A    between atoms: N_11  and  C_12
REMARK    8  A    between atoms: C_12  and  C_13
REMARK    9  A    between atoms: C_13  and  O_15
REMARK   10  A    between atoms: C_13  and  C_16
REMARK   11  A    between atoms: C_18  and  N_19
REMARK   12  A    between atoms: C_22  and  O_23
REMARK                            x       y       z     vdW  Elec       q    Type
REMARK                         _______ _______ _______ _____ _____    ______ ____
ROOT
ATOM      1  C   UNL     1       9.796  -0.306  25.371  0.00  0.00    +0.158 C 
ENDROOT
BRANCH   1   2
ATOM      2  C   UNL     1       9.457   1.000  24.683  0.00  0.00    -0.016 A 
ATOM      3  C   UNL     1       8.133   1.437  24.548  0.00  0.00    +0.010 A 
ATOM      4  C   UNL     1       7.846   2.616  23.865  0.00  0.00    +0.047 A 
ATOM      5  C   UNL     1       8.882   3.363  23.311  0.00  0.00    +0.138 A 
ATOM      6  C   UNL     1      10.216   2.948  23.422  0.00  0.00    +0.075 A 
ATOM      7  C   UNL     1      10.492   1.763  24.111  0.00  0.00    +0.033 A 
BRANCH   6   8
ATOM      8  N   UNL     1      11.225   3.708  22.807  0.00  0.00    -0.285 N 
ATOM      9  H   UNL     1      11.441   3.540  21.832  0.00  0.00    +0.155 HD
ATOM     10  C   UNL     1      12.020   4.655  23.386  0.00  0.00    +0.330 C 
ATOM     11  O   UNL     1      12.901   5.240  22.762  0.00  0.00    -0.279 OA
ENDBRANCH   6   8
BRANCH   5  12
ATOM     12  O   UNL     1       8.528   4.528  22.689  0.00  0.00    -0.505 OA
ATOM     13  H   UNL     1       7.688   4.371  22.226  0.00  0.00    +0.292 HD
ENDBRANCH   5  12
ENDBRANCH   1   2
BRANCH   1  14
ATOM     14  O   UNL     1       9.398  -0.304  26.745  0.00  0.00    -0.386 OA
ATOM     15  H   UNL     1       9.784   0.495  27.142  0.00  0.00    +0.210 HD
ENDBRANCH   1  14
BRANCH   1  16
ATOM     16  C   UNL     1       9.214  -1.548  24.654  0.00  0.00    +0.117 C 
BRANCH  16  17
ATOM     17  N   UNL     1       9.888  -1.876  23.385  0.00  0.00    -0.310 NA
ATOM     18  H   UNL     1      10.681  -1.241  23.273  0.00  0.00    +0.122 HD
BRANCH  17  19
ATOM     19  C   UNL     1       8.992  -1.806  22.213  0.00  0.00    +0.055 C 
ATOM     20  C   UNL     1       9.386  -0.561  21.407  0.00  0.00    +0.024 C 
BRANCH  19  21
ATOM     21  C   UNL     1       7.505  -1.747  22.622  0.00  0.00    +0.053 C 
BRANCH  21  25
ATOM     22  C   UNL     1       5.474  -5.483  23.240  0.00  0.00    +0.120 A 
ATOM     23  C   UNL     1       4.806  -4.276  23.438  0.00  0.00    +0.046 A 
ATOM     24  C   UNL     1       5.453  -3.072  23.176  0.00  0.00    +0.007 A 
ATOM     25  C   UNL     1       6.767  -3.060  22.699  0.00  0.00    -0.046 A 
ATOM     26  C   UNL     1       7.406  -4.277  22.429  0.00  0.00    +0.007 A 
ATOM     27  C   UNL     1       6.754  -5.486  22.688  0.00  0.00    +0.046 A 
BRANCH  22  29
ATOM     28  C   UNL     1       3.627  -6.629  24.109  0.00  0.00    +0.277 C 
ATOM     29  O   UNL     1       4.936  -6.707  23.546  0.00  0.00    -0.495 OA
ENDBRANCH  22  29
ENDBRANCH  21  25
ENDBRANCH  19  21
ENDBRANCH  17  19
ENDBRANCH  16  17
ENDBRANCH   1  16
TORSDOF 10
ENDMDL
MODEL 7
REMARK VINA RESULT:      -6.1      3.184      7.725
REMARK  Name = 
REMARK  12 active torsions:
REMARK  status: ('A' for Active; 'I' for Inactive)
REMARK    1  A    between atoms: C_1  and  O_2
REMARK    2  A    between atoms: O_2  and  C_3
REMARK    3  A    between atoms: C_6  and  C_7
REMARK    4  A    between atoms: C_7  and  C_8
REMARK    5  A    between atoms: C_8  and  C_10
REMARK    6  A    between atoms: C_8  and  N_11
REMARK    7  A    between atoms: N_11  and  C_12
REMARK    8  A    between atoms: C_12  and  C_13
REMARK    9  A    between atoms: C_13  and  O_15
REMARK   10  A    between atoms: C_13  and  C_16
REMARK   11  A    between atoms: C_18  and  N_19
REMARK   12  A    between atoms: C_22  and  O_23
REMARK                            x       y       z     vdW  Elec       q    Type
REMARK                         _______ _______ _______ _____ _____    ______ ____
ROOT
ATOM      1  C   UNL     1       8.326  -4.526  26.114  0.00  0.00    +0.158 C 
ENDROOT
BRANCH   1   2
ATOM      2  C   UNL     1       7.006  -5.246  26.299  0.00  0.00    -0.016 A 
ATOM      3  C   UNL     1       6.583  -5.692  27.558  0.00  0.00    +0.010 A 
ATOM      4  C   UNL     1       5.390  -6.397  27.691  0.00  0.00    +0.047 A 
ATOM      5  C   UNL     1       4.615  -6.662  26.565  0.00  0.00    +0.138 A 
ATOM      6  C   UNL     1       5.016  -6.237  25.291  0.00  0.00    +0.075 A 
ATOM      7  C   UNL     1       6.215  -5.529  25.170  0.00  0.00    +0.033 A 
BRANCH   6   8
ATOM      8  N   UNL     1       4.226  -6.568  24.177  0.00  0.00    -0.285 N 
ATOM      9  H   UNL     1       4.375  -7.457  23.716  0.00  0.00    +0.155 HD
ATOM     10  C   UNL     1       3.273  -5.796  23.576  0.00  0.00    +0.330 C 
ATOM     11  O   UNL     1       2.661  -6.170  22.580  0.00  0.00    -0.279 OA
ENDBRANCH   6   8
BRANCH   5  12
ATOM     12  O   UNL     1       3.438  -7.325  26.777  0.00  0.00    -0.505 OA
ATOM     13  H   UNL     1       3.618  -8.054  27.395  0.00  0.00    +0.292 HD
ENDBRANCH   5  12
ENDBRANCH   1   2
BRANCH   1  14
ATOM     14  O   UNL     1       9.276  -4.886  27.121  0.00  0.00    -0.386 OA
ATOM     15  H   UNL     1       9.925  -5.469  26.690  0.00  0.00    +0.210 HD
ENDBRANCH   1  14
BRANCH   1  16
ATOM     16  C   UNL     1       8.944  -4.727  24.709  0.00  0.00    +0.117 C 
BRANCH  16  17
ATOM     17  N   UNL     1       9.769  -3.594  24.251  0.00  0.00    -0.310 NA
ATOM     18  H   UNL     1      10.229  -3.186  25.067  0.00  0.00    +0.122 HD
BRANCH  17  19
ATOM     19  C   UNL     1       8.998  -2.569  23.518  0.00  0.00    +0.055 C 
ATOM     20  C   UNL     1       7.950  -3.301  22.668  0.00  0.00    +0.024 C 
BRANCH  19  21
ATOM     21  C   UNL     1       9.902  -1.686  22.634  0.00  0.00    +0.053 C 
BRANCH  21  25
ATOM     22  C   UNL     1      10.298   2.533  23.347  0.00  0.00    +0.120 A 
ATOM     23  C   UNL     1      10.006   2.058  22.070  0.00  0.00    +0.046 A 
ATOM     24  C   UNL     1       9.818   0.695  21.860  0.00  0.00    +0.007 A 
ATOM     25  C   UNL     1       9.905  -0.206  22.926  0.00  0.00    -0.046 A 
ATOM     26  C   UNL     1      10.122   0.285  24.219  0.00  0.00    +0.007 A 
ATOM     27  C   UNL     1      10.306   1.655  24.429  0.00  0.00    +0.046 A 
BRANCH  22  29
ATOM     28  C   UNL     1      11.891   4.245  23.249  0.00  0.00    +0.277 C 
ATOM     29  O   UNL     1      10.573   3.848  23.623  0.00  0.00    -0.495 OA
ENDBRANCH  22  29
ENDBRANCH  21  25
ENDBRANCH  19  21
ENDBRANCH  17  19
ENDBRANCH  16  17
ENDBRANCH   1  16
TORSDOF 10
ENDMDL
MODEL 8
REMARK VINA RESULT:      -6.1      3.262      6.769
REMARK  Name = 
REMARK  12 active torsions:
REMARK  status: ('A' for Active; 'I' for Inactive)
REMARK    1  A    between atoms: C_1  and  O_2
REMARK    2  A    between atoms: O_2  and  C_3
REMARK    3  A    between atoms: C_6  and  C_7
REMARK    4  A    between atoms: C_7  and  C_8
REMARK    5  A    between atoms: C_8  and  C_10
REMARK    6  A    between atoms: C_8  and  N_11
REMARK    7  A    between atoms: N_11  and  C_12
REMARK    8  A    between atoms: C_12  and  C_13
REMARK    9  A    between atoms: C_13  and  O_15
REMARK   10  A    between atoms: C_13  and  C_16
REMARK   11  A    between atoms: C_18  and  N_19
REMARK   12  A    between atoms: C_22  and  O_23
REMARK                            x       y       z     vdW  Elec       q    Type
REMARK                         _______ _______ _______ _____ _____    ______ ____
ROOT
ATOM      1  C   UNL     1       9.737   0.726  21.485  0.00  0.00    +0.158 C 
ENDROOT
BRANCH   1   2
ATOM      2  C   UNL     1       9.502  -0.584  22.208  0.00  0.00    -0.016 A 
ATOM      3  C   UNL     1      10.408  -1.071  23.159  0.00  0.00    +0.010 A 
ATOM      4  C   UNL     1      10.192  -2.304  23.770  0.00  0.00    +0.047 A 
ATOM      5  C   UNL     1       9.071  -3.057  23.431  0.00  0.00    +0.138 A 
ATOM      6  C   UNL     1       8.152  -2.600  22.477  0.00  0.00    +0.075 A 
ATOM      7  C   UNL     1       8.378  -1.361  21.871  0.00  0.00    +0.033 A 
BRANCH   6   8
ATOM      8  N   UNL     1       7.061  -3.415  22.131  0.00  0.00    -0.285 N 
ATOM      9  H   UNL     1       7.177  -4.110  21.403  0.00  0.00    +0.155 HD
ATOM     10  C   UNL     1       5.792  -3.360  22.634  0.00  0.00    +0.330 C 
ATOM     11  O   UNL     1       4.898  -4.101  22.235  0.00  0.00    -0.279 OA
ENDBRANCH   6   8
BRANCH   5  12
ATOM     12  O   UNL     1       8.905  -4.238  24.099  0.00  0.00    -0.505 OA
ATOM     13  H   UNL     1       8.786  -4.938  23.434  0.00  0.00    +0.292 HD
ENDBRANCH   5  12
ENDBRANCH   1   2
BRANCH   1  14
ATOM     14  O   UNL     1       8.590   1.136  20.735  0.00  0.00    -0.386 OA
ATOM     15  H   UNL     1       8.808   0.991  19.798  0.00  0.00    +0.210 HD
ENDBRANCH   1  14
BRANCH   1  16
ATOM     16  C   UNL     1      10.192   1.872  22.422  0.00  0.00    +0.117 C 
BRANCH  16  17
ATOM     17  N   UNL     1       9.231   2.986  22.513  0.00  0.00    -0.310 NA
ATOM     18  H   UNL     1       9.758   3.862  22.493  0.00  0.00    +0.122 HD
BRANCH  17  19
ATOM     19  C   UNL     1       8.372   2.920  23.713  0.00  0.00    +0.055 C 
ATOM     20  C   UNL     1       8.208   4.352  24.241  0.00  0.00    +0.024 C 
BRANCH  19  21
ATOM     21  C   UNL     1       8.965   1.999  24.800  0.00  0.00    +0.053 C 
BRANCH  21  25
ATOM     22  C   UNL     1       6.747  -1.524  25.866  0.00  0.00    +0.120 A 
ATOM     23  C   UNL     1       7.934  -1.212  26.525  0.00  0.00    +0.046 A 
ATOM     24  C   UNL     1       8.614  -0.037  26.216  0.00  0.00    +0.007 A 
ATOM     25  C   UNL     1       8.107   0.846  25.257  0.00  0.00    -0.046 A 
ATOM     26  C   UNL     1       6.875   0.564  24.654  0.00  0.00    +0.007 A 
ATOM     27  C   UNL     1       6.191  -0.614  24.968  0.00  0.00    +0.046 A 
BRANCH  22  29
ATOM     28  C   UNL     1       6.816  -3.695  26.735  0.00  0.00    +0.277 C 
ATOM     29  O   UNL     1       6.059  -2.695  26.055  0.00  0.00    -0.495 OA
ENDBRANCH  22  29
ENDBRANCH  21  25
ENDBRANCH  19  21
ENDBRANCH  17  19
ENDBRANCH  16  17
ENDBRANCH   1  16
TORSDOF 10
ENDMDL
MODEL 9
REMARK VINA RESULT:      -6.1      2.913      6.925
REMARK  Name = 
REMARK  12 active torsions:
REMARK  status: ('A' for Active; 'I' for Inactive)
REMARK    1  A    between atoms: C_1  and  O_2
REMARK    2  A    between atoms: O_2  and  C_3
REMARK    3  A    between atoms: C_6  and  C_7
REMARK    4  A    between atoms: C_7  and  C_8
REMARK    5  A    between atoms: C_8  and  C_10
REMARK    6  A    between atoms: C_8  and  N_11
REMARK    7  A    between atoms: N_11  and  C_12
REMARK    8  A    between atoms: C_12  and  C_13
REMARK    9  A    between atoms: C_13  and  O_15
REMARK   10  A    between atoms: C_13  and  C_16
REMARK   11  A    between atoms: C_18  and  N_19
REMARK   12  A    between atoms: C_22  and  O_23
REMARK                            x       y       z     vdW  Elec       q    Type
REMARK                         _______ _______ _______ _____ _____    ______ ____
ROOT
ATOM      1  C   UNL     1       7.403  -4.860  26.340  0.00  0.00    +0.158 C 
ENDROOT
BRANCH   1   2
ATOM      2  C   UNL     1       6.967  -5.275  24.950  0.00  0.00    -0.016 A 
ATOM      3  C   UNL     1       7.825  -5.165  23.848  0.00  0.00    +0.010 A 
ATOM      4  C   UNL     1       7.381  -5.505  22.573  0.00  0.00    +0.047 A 
ATOM      5  C   UNL     1       6.075  -5.953  22.393  0.00  0.00    +0.138 A 
ATOM      6  C   UNL     1       5.190  -6.065  23.474  0.00  0.00    +0.075 A 
ATOM      7  C   UNL     1       5.648  -5.722  24.750  0.00  0.00    +0.033 A 
BRANCH   6   8
ATOM      8  N   UNL     1       3.867  -6.476  23.239  0.00  0.00    -0.285 N 
ATOM      9  H   UNL     1       3.679  -7.458  23.077  0.00  0.00    +0.155 HD
ATOM     10  C   UNL     1       2.757  -5.686  23.148  0.00  0.00    +0.330 C 
ATOM     11  O   UNL     1       1.645  -6.146  22.904  0.00  0.00    -0.279 OA
ENDBRANCH   6   8
BRANCH   5  12
ATOM     12  O   UNL     1       5.721  -6.305  21.120  0.00  0.00    -0.505 OA
ATOM     13  H   UNL     1       5.729  -7.275  21.070  0.00  0.00    +0.292 HD
ENDBRANCH   5  12
ENDBRANCH   1   2
BRANCH   1  14
ATOM     14  O   UNL     1       8.318  -5.797  26.914  0.00  0.00    -0.386 OA
ATOM     15  H   UNL     1       7.790  -6.569  27.182  0.00  0.00    +0.210 HD
ENDBRANCH   1  14
BRANCH   1  16
ATOM     16  C   UNL     1       8.003  -3.434  26.396  0.00  0.00    +0.117 C 
BRANCH  16  17
ATOM     17  N   UNL     1       6.992  -2.362  26.448  0.00  0.00    -0.310 NA
ATOM     18  H   UNL     1       6.074  -2.796  26.564  0.00  0.00    +0.122 HD
BRANCH  17  19
ATOM     19  C   UNL     1       7.010  -1.484  25.260  0.00  0.00    +0.055 C 
ATOM     20  C   UNL     1       5.732  -1.769  24.459  0.00  0.00    +0.024 C 
BRANCH  19  21
ATOM     21  C   UNL     1       8.264  -1.711  24.391  0.00  0.00    +0.053 C 
BRANCH  21  25
ATOM     22  C   UNL     1      10.352   1.960  23.597  0.00  0.00    +0.120 A 
ATOM     23  C   UNL     1      10.895   1.013  24.463  0.00  0.00    +0.046 A 
ATOM     24  C   UNL     1      10.243  -0.200  24.666  0.00  0.00    +0.007 A 
ATOM     25  C   UNL     1       9.049  -0.485  23.996  0.00  0.00    -0.046 A 
ATOM     26  C   UNL     1       8.549   0.438  23.069  0.00  0.00    +0.007 A 
ATOM     27  C   UNL     1       9.208   1.653  22.863  0.00  0.00    +0.046 A 
BRANCH  22  29
ATOM     28  C   UNL     1      10.008   4.269  23.760  0.00  0.00    +0.277 C 
ATOM     29  O   UNL     1      10.889   3.206  23.401  0.00  0.00    -0.495 OA
ENDBRANCH  22  29
ENDBRANCH  21  25
ENDBRANCH  19  21
ENDBRANCH  17  19
ENDBRANCH  16  17
ENDBRANCH   1  16
TORSDOF 10
ENDMDL
