MODEL 1
REMARK VINA RESULT:      -6.1      0.000      0.000
REMARK  Name = 
REMARK  3 active torsions:
REMARK  status: ('A' for Active; 'I' for Inactive)
REMARK    1  A    between atoms: O_1  and  C_2
REMARK    2  A    between atoms: C_3  and  O_4
REMARK    3  A    between atoms: C_5  and  C_9
REMARK                            x       y       z     vdW  Elec       q    Type
REMARK                         _______ _______ _______ _____ _____    ______ ____
ROOT
ATOM      1  C   UNL     1       9.792  -0.124  22.226  0.00  0.00    +0.159 A 
ATOM      2  C   UNL     1      10.110  -0.943  23.295  0.00  0.00    +0.049 A 
ATOM      3  C   UNL     1      10.502  -0.356  24.494  0.00  0.00    +0.004 A 
ATOM      4  C   UNL     1      10.565   1.043  24.609  0.00  0.00    +0.012 A 
ATOM      5  C   UNL     1      10.260   1.899  23.529  0.00  0.00    +0.027 A 
ATOM      6  C   UNL     1       9.888   1.268  22.328  0.00  0.00    +0.166 A 
ENDROOT
BRANCH   5   7
ATOM      7  C   UNL     1      10.348   3.375  23.688  0.00  0.00    -0.014 A 
ATOM      8  C   UNL     1      11.535   4.081  23.407  0.00  0.00    +0.008 A 
ATOM      9  C   UNL     1      11.620   5.469  23.563  0.00  0.00    +0.001 A 
ATOM     10  C   UNL     1      10.511   6.193  23.992  0.00  0.00    +0.000 A 
ATOM     11  C   UNL     1       9.326   5.526  24.277  0.00  0.00    +0.001 A 
ATOM     12  C   UNL     1       9.253   4.136  24.138  0.00  0.00    +0.008 A 
ENDBRANCH   5   7
BRANCH   1  13
ATOM     13  O   UNL     1       9.354  -0.699  21.066  0.00  0.00    -0.503 OA
ATOM     14  H   UNL     1       8.753  -1.416  21.341  0.00  0.00    +0.292 HD
ENDBRANCH   1  13
BRANCH   6  15
ATOM     15  O   UNL     1       9.644   1.985  21.183  0.00  0.00    -0.503 OA
ATOM     16  H   UNL     1      10.198   2.784  21.261  0.00  0.00    +0.292 HD
ENDBRANCH   6  15
TORSDOF 3
ENDMDL
MODEL 2
REMARK VINA RESULT:      -5.8      1.588      2.422
REMARK  Name = 
REMARK  3 active torsions:
REMARK  status: ('A' for Active; 'I' for Inactive)
REMARK    1  A    between atoms: O_1  and  C_2
REMARK    2  A    between atoms: C_3  and  O_4
REMARK    3  A    between atoms: C_5  and  C_9
REMARK                            x       y       z     vdW  Elec       q    Type
REMARK                         _______ _______ _______ _____ _____    ______ ____
ROOT
ATOM      1  C   UNL     1       9.812  -0.547  23.540  0.00  0.00    +0.159 A 
ATOM      2  C   UNL     1       9.450  -0.835  22.236  0.00  0.00    +0.049 A 
ATOM      3  C   UNL     1       9.369   0.208  21.320  0.00  0.00    +0.004 A 
ATOM      4  C   UNL     1       9.657   1.524  21.717  0.00  0.00    +0.012 A 
ATOM      5  C   UNL     1      10.016   1.845  23.045  0.00  0.00    +0.027 A 
ATOM      6  C   UNL     1      10.066   0.767  23.947  0.00  0.00    +0.166 A 
ENDROOT
BRANCH   5   7
ATOM      7  C   UNL     1      10.305   3.252  23.430  0.00  0.00    -0.014 A 
ATOM      8  C   UNL     1       9.320   4.078  24.009  0.00  0.00    +0.008 A 
ATOM      9  C   UNL     1       9.591   5.404  24.364  0.00  0.00    +0.001 A 
ATOM     10  C   UNL     1      10.861   5.937  24.163  0.00  0.00    +0.000 A 
ATOM     11  C   UNL     1      11.852   5.148  23.593  0.00  0.00    +0.001 A 
ATOM     12  C   UNL     1      11.571   3.829  23.221  0.00  0.00    +0.008 A 
ENDBRANCH   5   7
BRANCH   1  13
ATOM     13  O   UNL     1       9.946  -1.579  24.427  0.00  0.00    -0.503 OA
ATOM     14  H   UNL     1       9.578  -1.249  25.268  0.00  0.00    +0.292 HD
ENDBRANCH   1  13
BRANCH   6  15
ATOM     15  O   UNL     1      10.324   0.957  25.282  0.00  0.00    -0.503 OA
ATOM     16  H   UNL     1      11.022   1.638  25.311  0.00  0.00    +0.292 HD
ENDBRANCH   6  15
TORSDOF 3
ENDMDL
MODEL 3
REMARK VINA RESULT:      -5.5      1.874      5.187
REMARK  Name = 
REMARK  3 active torsions:
REMARK  status: ('A' for Active; 'I' for Inactive)
REMARK    1  A    between atoms: O_1  and  C_2
REMARK    2  A    between atoms: C_3  and  O_4
REMARK    3  A    between atoms: C_5  and  C_9
REMARK                            x       y       z     vdW  Elec       q    Type
REMARK                         _______ _______ _______ _____ _____    ______ ____
ROOT
ATOM      1  C   UNL     1       9.533   5.624  24.200  0.00  0.00    +0.159 A 
ATOM      2  C   UNL     1      10.768   6.229  24.047  0.00  0.00    +0.049 A 
ATOM      3  C   UNL     1      11.841   5.458  23.613  0.00  0.00    +0.004 A 
ATOM      4  C   UNL     1      11.665   4.094  23.333  0.00  0.00    +0.012 A 
ATOM      5  C   UNL     1      10.419   3.449  23.494  0.00  0.00    +0.027 A 
ATOM      6  C   UNL     1       9.363   4.256  23.955  0.00  0.00    +0.166 A 
ENDROOT
BRANCH   5   7
ATOM      7  C   UNL     1      10.274   2.000  23.196  0.00  0.00    -0.014 A 
ATOM      8  C   UNL     1      10.571   1.012  24.156  0.00  0.00    +0.008 A 
ATOM      9  C   UNL     1      10.441  -0.352  23.873  0.00  0.00    +0.001 A 
ATOM     10  C   UNL     1       9.995  -0.766  22.621  0.00  0.00    +0.000 A 
ATOM     11  C   UNL     1       9.695   0.184  21.652  0.00  0.00    +0.001 A 
ATOM     12  C   UNL     1       9.845   1.545  21.935  0.00  0.00    +0.008 A 
ENDBRANCH   5   7
BRANCH   1  13
ATOM     13  O   UNL     1       8.466   6.393  24.574  0.00  0.00    -0.503 OA
ATOM     14  H   UNL     1       7.872   5.794  25.062  0.00  0.00    +0.292 HD
ENDBRANCH   1  13
BRANCH   6  15
ATOM     15  O   UNL     1       8.123   3.735  24.228  0.00  0.00    -0.503 OA
ATOM     16  H   UNL     1       8.292   2.974  24.816  0.00  0.00    +0.292 HD
ENDBRANCH   6  15
TORSDOF 3
ENDMDL
MODEL 4
REMARK VINA RESULT:      -5.4      3.003      4.685
REMARK  Name = 
REMARK  3 active torsions:
REMARK  status: ('A' for Active; 'I' for Inactive)
REMARK    1  A    between atoms: O_1  and  C_2
REMARK    2  A    between atoms: C_3  and  O_4
REMARK    3  A    between atoms: C_5  and  C_9
REMARK                            x       y       z     vdW  Elec       q    Type
REMARK                         _______ _______ _______ _____ _____    ______ ____
ROOT
ATOM      1  C   UNL     1       8.037  -4.064  23.691  0.00  0.00    +0.159 A 
ATOM      2  C   UNL     1       6.662  -4.064  23.535  0.00  0.00    +0.049 A 
ATOM      3  C   UNL     1       6.018  -2.856  23.289  0.00  0.00    +0.004 A 
ATOM      4  C   UNL     1       6.756  -1.666  23.197  0.00  0.00    +0.012 A 
ATOM      5  C   UNL     1       8.158  -1.637  23.367  0.00  0.00    +0.027 A 
ATOM      6  C   UNL     1       8.771  -2.874  23.634  0.00  0.00    +0.166 A 
ENDROOT
BRANCH   5   7
ATOM      7  C   UNL     1       8.905  -0.355  23.271  0.00  0.00    -0.014 A 
ATOM      8  C   UNL     1       9.286   0.367  24.420  0.00  0.00    +0.008 A 
ATOM      9  C   UNL     1       9.983   1.577  24.330  0.00  0.00    +0.001 A 
ATOM     10  C   UNL     1      10.330   2.093  23.084  0.00  0.00    +0.000 A 
ATOM     11  C   UNL     1       9.966   1.405  21.933  0.00  0.00    +0.001 A 
ATOM     12  C   UNL     1       9.253   0.205  22.029  0.00  0.00    +0.008 A 
ENDBRANCH   5   7
BRANCH   1  13
ATOM     13  O   UNL     1       8.677  -5.258  23.877  0.00  0.00    -0.503 OA
ATOM     14  H   UNL     1       9.625  -5.039  23.937  0.00  0.00    +0.292 HD
ENDBRANCH   1  13
BRANCH   6  15
ATOM     15  O   UNL     1      10.115  -2.971  23.897  0.00  0.00    -0.503 OA
ATOM     16  H   UNL     1      10.542  -3.022  23.021  0.00  0.00    +0.292 HD
ENDBRANCH   6  15
TORSDOF 3
ENDMDL
MODEL 5
REMARK VINA RESULT:      -5.4      2.797      6.087
REMARK  Name = 
REMARK  3 active torsions:
REMARK  status: ('A' for Active; 'I' for Inactive)
REMARK    1  A    between atoms: O_1  and  C_2
REMARK    2  A    between atoms: C_3  and  O_4
REMARK    3  A    between atoms: C_5  and  C_9
REMARK                            x       y       z     vdW  Elec       q    Type
REMARK                         _______ _______ _______ _____ _____    ______ ____
ROOT
ATOM      1  C   UNL     1      10.332   1.592  23.263  0.00  0.00    +0.159 A 
ATOM      2  C   UNL     1       9.926   1.590  21.941  0.00  0.00    +0.049 A 
ATOM      3  C   UNL     1       9.259   0.473  21.449  0.00  0.00    +0.004 A 
ATOM      4  C   UNL     1       9.001  -0.624  22.288  0.00  0.00    +0.012 A 
ATOM      5  C   UNL     1       9.418  -0.651  23.637  0.00  0.00    +0.027 A 
ATOM      6  C   UNL     1      10.107   0.487  24.091  0.00  0.00    +0.166 A 
ENDROOT
BRANCH   5   7
ATOM      7  C   UNL     1       9.134  -1.835  24.491  0.00  0.00    -0.014 A 
ATOM      8  C   UNL     1       8.298  -1.749  25.622  0.00  0.00    +0.008 A 
ATOM      9  C   UNL     1       8.038  -2.862  26.430  0.00  0.00    +0.001 A 
ATOM     10  C   UNL     1       8.596  -4.098  26.118  0.00  0.00    +0.000 A 
ATOM     11  C   UNL     1       9.426  -4.215  25.009  0.00  0.00    +0.001 A 
ATOM     12  C   UNL     1       9.699  -3.095  24.217  0.00  0.00    +0.008 A 
ENDBRANCH   5   7
BRANCH   1  13
ATOM     13  O   UNL     1      10.939   2.712  23.762  0.00  0.00    -0.503 OA
ATOM     14  H   UNL     1      11.618   2.953  23.106  0.00  0.00    +0.292 HD
ENDBRANCH   1  13
BRANCH   6  15
ATOM     15  O   UNL     1      10.634   0.553  25.357  0.00  0.00    -0.503 OA
ATOM     16  H   UNL     1      11.601   0.535  25.231  0.00  0.00    +0.292 HD
ENDBRANCH   6  15
TORSDOF 3
ENDMDL
MODEL 6
REMARK VINA RESULT:      -5.3      3.710      6.580
REMARK  Name = 
REMARK  3 active torsions:
REMARK  status: ('A' for Active; 'I' for Inactive)
REMARK    1  A    between atoms: O_1  and  C_2
REMARK    2  A    between atoms: C_3  and  O_4
REMARK    3  A    between atoms: C_5  and  C_9
REMARK                            x       y       z     vdW  Elec       q    Type
REMARK                         _______ _______ _______ _____ _____    ______ ____
ROOT
ATOM      1  C   UNL     1       7.131   1.084  22.387  0.00  0.00    +0.159 A 
ATOM      2  C   UNL     1       8.198   1.588  21.664  0.00  0.00    +0.049 A 
ATOM      3  C   UNL     1       9.312   0.779  21.468  0.00  0.00    +0.004 A 
ATOM      4  C   UNL     1       9.343  -0.524  21.990  0.00  0.00    +0.012 A 
ATOM      5  C   UNL     1       8.272  -1.056  22.742  0.00  0.00    +0.027 A 
ATOM      6  C   UNL     1       7.172  -0.201  22.938  0.00  0.00    +0.166 A 
ENDROOT
BRANCH   5   7
ATOM      7  C   UNL     1       8.345  -2.437  23.287  0.00  0.00    -0.014 A 
ATOM      8  C   UNL     1       9.183  -2.762  24.373  0.00  0.00    +0.008 A 
ATOM      9  C   UNL     1       9.257  -4.063  24.881  0.00  0.00    +0.001 A 
ATOM     10  C   UNL     1       8.482  -5.076  24.324  0.00  0.00    +0.000 A 
ATOM     11  C   UNL     1       7.646  -4.788  23.251  0.00  0.00    +0.001 A 
ATOM     12  C   UNL     1       7.591  -3.489  22.735  0.00  0.00    +0.008 A 
ENDBRANCH   5   7
BRANCH   1  13
ATOM     13  O   UNL     1       6.013   1.858  22.533  0.00  0.00    -0.503 OA
ATOM     14  H   UNL     1       6.198   2.443  23.292  0.00  0.00    +0.292 HD
ENDBRANCH   1  13
BRANCH   6  15
ATOM     15  O   UNL     1       6.104  -0.569  23.716  0.00  0.00    -0.503 OA
ATOM     16  H   UNL     1       6.424  -1.321  24.249  0.00  0.00    +0.292 HD
ENDBRANCH   6  15
TORSDOF 3
ENDMDL
MODEL 7
REMARK VINA RESULT:      -5.2      4.089      6.051
REMARK  Name = 
REMARK  3 active torsions:
REMARK  status: ('A' for Active; 'I' for Inactive)
REMARK    1  A    between atoms: O_1  and  C_2
REMARK    2  A    between atoms: C_3  and  O_4
REMARK    3  A    between atoms: C_5  and  C_9
REMARK                            x       y       z     vdW  Elec       q    Type
REMARK                         _______ _______ _______ _____ _____    ______ ____
ROOT
ATOM      1  C   UNL     1       8.136  -4.676  26.299  0.00  0.00    +0.159 A 
ATOM      2  C   UNL     1       7.048  -4.213  27.017  0.00  0.00    +0.049 A 
ATOM      3  C   UNL     1       6.571  -2.933  26.756  0.00  0.00    +0.004 A 
ATOM      4  C   UNL     1       7.185  -2.134  25.778  0.00  0.00    +0.012 A 
ATOM      5  C   UNL     1       8.306  -2.579  25.042  0.00  0.00    +0.027 A 
ATOM      6  C   UNL     1       8.771  -3.870  25.348  0.00  0.00    +0.166 A 
ENDROOT
BRANCH   5   7
ATOM      7  C   UNL     1       8.934  -1.700  24.020  0.00  0.00    -0.014 A 
ATOM      8  C   UNL     1       9.869  -0.706  24.372  0.00  0.00    +0.008 A 
ATOM      9  C   UNL     1      10.455   0.125  23.411  0.00  0.00    +0.001 A 
ATOM     10  C   UNL     1      10.132  -0.026  22.065  0.00  0.00    +0.000 A 
ATOM     11  C   UNL     1       9.213  -0.997  21.686  0.00  0.00    +0.001 A 
ATOM     12  C   UNL     1       8.616  -1.812  22.654  0.00  0.00    +0.008 A 
ENDBRANCH   5   7
BRANCH   1  13
ATOM     13  O   UNL     1       8.570  -5.954  26.516  0.00  0.00    -0.503 OA
ATOM     14  H   UNL     1       8.551  -6.388  25.643  0.00  0.00    +0.292 HD
ENDBRANCH   1  13
BRANCH   6  15
ATOM     15  O   UNL     1       9.899  -4.387  24.761  0.00  0.00    -0.503 OA
ATOM     16  H   UNL     1       9.584  -4.825  23.948  0.00  0.00    +0.292 HD
ENDBRANCH   6  15
TORSDOF 3
ENDMDL
MODEL 8
REMARK VINA RESULT:      -5.2      2.343      6.051
REMARK  Name = 
REMARK  3 active torsions:
REMARK  status: ('A' for Active; 'I' for Inactive)
REMARK    1  A    between atoms: O_1  and  C_2
REMARK    2  A    between atoms: C_3  and  O_4
REMARK    3  A    between atoms: C_5  and  C_9
REMARK                            x       y       z     vdW  Elec       q    Type
REMARK                         _______ _______ _______ _____ _____    ______ ____
ROOT
ATOM      1  C   UNL     1       9.788   1.563  22.525  0.00  0.00    +0.159 A 
ATOM      2  C   UNL     1       9.525   2.316  23.655  0.00  0.00    +0.049 A 
ATOM      3  C   UNL     1       8.962   1.687  24.761  0.00  0.00    +0.004 A 
ATOM      4  C   UNL     1       8.675   0.313  24.723  0.00  0.00    +0.012 A 
ATOM      5  C   UNL     1       8.921  -0.474  23.577  0.00  0.00    +0.027 A 
ATOM      6  C   UNL     1       9.471   0.201  22.473  0.00  0.00    +0.166 A 
ENDROOT
BRANCH   5   7
ATOM      7  C   UNL     1       8.595  -1.925  23.573  0.00  0.00    -0.014 A 
ATOM      8  C   UNL     1       7.630  -2.465  22.699  0.00  0.00    +0.008 A 
ATOM      9  C   UNL     1       7.319  -3.829  22.701  0.00  0.00    +0.001 A 
ATOM     10  C   UNL     1       7.977  -4.695  23.569  0.00  0.00    +0.000 A 
ATOM     11  C   UNL     1       8.933  -4.193  24.444  0.00  0.00    +0.001 A 
ATOM     12  C   UNL     1       9.226  -2.825  24.452  0.00  0.00    +0.008 A 
ENDBRANCH   5   7
BRANCH   1  13
ATOM     13  O   UNL     1      10.392   2.169  21.458  0.00  0.00    -0.503 OA
ATOM     14  H   UNL     1      10.086   3.094  21.477  0.00  0.00    +0.292 HD
ENDBRANCH   1  13
BRANCH   6  15
ATOM     15  O   UNL     1       9.684  -0.432  21.274  0.00  0.00    -0.503 OA
ATOM     16  H   UNL     1      10.652  -0.426  21.152  0.00  0.00    +0.292 HD
ENDBRANCH   6  15
TORSDOF 3
ENDMDL
MODEL 9
REMARK VINA RESULT:      -5.2      1.819      5.145
REMARK  Name = 
REMARK  3 active torsions:
REMARK  status: ('A' for Active; 'I' for Inactive)
REMARK    1  A    between atoms: O_1  and  C_2
REMARK    2  A    between atoms: C_3  and  O_4
REMARK    3  A    between atoms: C_5  and  C_9
REMARK                            x       y       z     vdW  Elec       q    Type
REMARK                         _______ _______ _______ _____ _____    ______ ____
ROOT
ATOM      1  C   UNL     1       8.812   5.580  23.882  0.00  0.00    +0.159 A 
ATOM      2  C   UNL     1       9.990   6.305  23.910  0.00  0.00    +0.049 A 
ATOM      3  C   UNL     1      11.192   5.633  23.721  0.00  0.00    +0.004 A 
ATOM      4  C   UNL     1      11.201   4.246  23.501  0.00  0.00    +0.012 A 
ATOM      5  C   UNL     1      10.014   3.481  23.481  0.00  0.00    +0.027 A 
ATOM      6  C   UNL     1       8.820   4.193  23.697  0.00  0.00    +0.166 A 
ENDROOT
BRANCH   5   7
ATOM      7  C   UNL     1      10.065   2.013  23.254  0.00  0.00    -0.014 A 
ATOM      8  C   UNL     1       9.791   1.449  21.992  0.00  0.00    +0.008 A 
ATOM      9  C   UNL     1       9.832   0.067  21.780  0.00  0.00    +0.001 A 
ATOM     10  C   UNL     1      10.165  -0.791  22.824  0.00  0.00    +0.000 A 
ATOM     11  C   UNL     1      10.440  -0.266  24.081  0.00  0.00    +0.001 A 
ATOM     12  C   UNL     1      10.377   1.116  24.292  0.00  0.00    +0.008 A 
ENDBRANCH   5   7
BRANCH   1  13
ATOM     13  O   UNL     1       7.626   6.248  24.012  0.00  0.00    -0.503 OA
ATOM     14  H   UNL     1       7.299   6.026  24.904  0.00  0.00    +0.292 HD
ENDBRANCH   1  13
BRANCH   6  15
ATOM     15  O   UNL     1       7.607   3.556  23.781  0.00  0.00    -0.503 OA
ATOM     16  H   UNL     1       7.553   3.234  24.701  0.00  0.00    +0.292 HD
ENDBRANCH   6  15
TORSDOF 3
ENDMDL
