MODEL 1
REMARK VINA RESULT:      -6.2      0.000      0.000
REMARK  Name = 
REMARK  10 active torsions:
REMARK  status: ('A' for Active; 'I' for Inactive)
REMARK    1  A    between atoms: C_1  and  S_2
REMARK    2  A    between atoms: S_2  and  C_3
REMARK    3  A    between atoms: S_2  and  C_7
REMARK    4  A    between atoms: C_3  and  C_4
REMARK    5  A    between atoms: C_4  and  O_5
REMARK    6  A    between atoms: O_5  and  N_6
REMARK    7  A    between atoms: C_7  and  C_8
REMARK    8  A    between atoms: C_11  and  N_19
REMARK    9  A    between atoms: C_13  and  O_15
REMARK   10  A    between atoms: C_16  and  O_18
REMARK                            x       y       z     vdW  Elec       q    Type
REMARK                         _______ _______ _______ _____ _____    ______ ____
ROOT
ATOM      1  C   UNL     1       8.383  -4.432  26.434  0.00  0.00    +0.201 C 
ATOM      2  C   UNL     1       8.859  -5.336  25.296  0.00  0.00    +0.181 C 
ATOM      3  C   UNL     1       8.529  -4.581  24.015  0.00  0.00    +0.195 C 
ATOM      4  C   UNL     1       8.071  -3.196  24.480  0.00  0.00    +0.253 C 
ATOM      5  O   UNL     1       8.275  -3.098  25.896  0.00  0.00    -0.343 OA
ENDROOT
BRANCH   4   6
ATOM      6  N   UNL     1       8.778  -2.125  23.800  0.00  0.00    -0.286 N 
ATOM      7  C   UNL     1       8.190  -0.970  23.350  0.00  0.00    +0.167 A 
ATOM      8  N   UNL     1       6.898  -0.615  23.470  0.00  0.00    -0.216 NA
ATOM      9  C   UNL     1       6.695   0.605  22.922  0.00  0.00    +0.225 A 
ATOM     10  N   UNL     1       7.584   1.409  22.299  0.00  0.00    -0.219 NA
ATOM     11  C   UNL     1       8.860   0.979  22.173  0.00  0.00    +0.147 A 
ATOM     12  N   UNL     1       9.766   1.792  21.504  0.00  0.00    -0.341 N 
ATOM     13  H   UNL     1      10.736   1.593  21.724  0.00  0.00    +0.144 HD
ATOM     14  H   UNL     1       9.476   2.761  21.481  0.00  0.00    +0.144 HD
ATOM     15  C   UNL     1       9.205  -0.262  22.736  0.00  0.00    +0.147 A 
ATOM     16  N   UNL     1      10.396  -0.955  22.814  0.00  0.00    -0.231 NA
ATOM     17  C   UNL     1      10.104  -2.059  23.469  0.00  0.00    +0.203 A 
ENDBRANCH   4   6
BRANCH   2  18
ATOM     18  O   UNL     1      10.284  -5.516  25.390  0.00  0.00    -0.386 OA
ATOM     19  H   UNL     1      10.660  -4.824  25.960  0.00  0.00    +0.210 HD
ENDBRANCH   2  18
BRANCH   3  20
ATOM     20  O   UNL     1       7.478  -5.231  23.294  0.00  0.00    -0.385 OA
ATOM     21  H   UNL     1       7.716  -6.178  23.245  0.00  0.00    +0.210 HD
ENDBRANCH   3  20
BRANCH   1  22
ATOM     22  C   UNL     1       7.053  -4.860  27.089  0.00  0.00    +0.312 C 
BRANCH  22  24
ATOM     23  C   UNL     1       4.757  -4.175  28.425  0.00  0.00    +0.341 C 
ATOM     24  S   UNL     1       5.766  -3.537  27.060  0.00  0.00    -0.008 S 
BRANCH  24  25
ATOM     25  C   UNL     1       4.797  -4.242  25.709  0.00  0.00    +0.307 C 
BRANCH  25  26
ATOM     26  C   UNL     1       4.480  -3.335  24.537  0.00  0.00    +0.239 C 
BRANCH  26  27
ATOM     27  O   UNL     1       4.808  -4.141  23.390  0.00  0.00    -0.298 OA
BRANCH  27  28
ATOM     28  N   UNL     1       5.261  -3.299  22.300  0.00  0.00    -0.215 NA
ATOM     29  H   UNL     1       5.138  -3.929  21.504  0.00  0.00    +0.150 HD
ATOM     30  H   UNL     1       4.475  -2.647  22.239  0.00  0.00    +0.150 HD
ENDBRANCH  27  28
ENDBRANCH  26  27
ENDBRANCH  25  26
ENDBRANCH  24  25
ENDBRANCH  22  24
ENDBRANCH   1  22
TORSDOF 9
ENDMDL
MODEL 2
REMARK VINA RESULT:      -6.1      2.717      3.260
REMARK  Name = 
REMARK  10 active torsions:
REMARK  status: ('A' for Active; 'I' for Inactive)
REMARK    1  A    between atoms: C_1  and  S_2
REMARK    2  A    between atoms: S_2  and  C_3
REMARK    3  A    between atoms: S_2  and  C_7
REMARK    4  A    between atoms: C_3  and  C_4
REMARK    5  A    between atoms: C_4  and  O_5
REMARK    6  A    between atoms: O_5  and  N_6
REMARK    7  A    between atoms: C_7  and  C_8
REMARK    8  A    between atoms: C_11  and  N_19
REMARK    9  A    between atoms: C_13  and  O_15
REMARK   10  A    between atoms: C_16  and  O_18
REMARK                            x       y       z     vdW  Elec       q    Type
REMARK                         _______ _______ _______ _____ _____    ______ ____
ROOT
ATOM      1  C   UNL     1       6.345  -4.810  25.369  0.00  0.00    +0.201 C 
ATOM      2  C   UNL     1       7.623  -5.345  26.014  0.00  0.00    +0.181 C 
ATOM      3  C   UNL     1       8.765  -4.632  25.301  0.00  0.00    +0.195 C 
ATOM      4  C   UNL     1       8.085  -3.573  24.428  0.00  0.00    +0.253 C 
ATOM      5  O   UNL     1       6.683  -3.561  24.733  0.00  0.00    -0.343 OA
ENDROOT
BRANCH   4   6
ATOM      6  N   UNL     1       8.649  -2.250  24.627  0.00  0.00    -0.286 N 
ATOM      7  C   UNL     1       9.085  -1.432  23.615  0.00  0.00    +0.167 A 
ATOM      8  N   UNL     1       9.052  -1.684  22.295  0.00  0.00    -0.216 NA
ATOM      9  C   UNL     1       9.552  -0.633  21.605  0.00  0.00    +0.225 A 
ATOM     10  N   UNL     1      10.058   0.526  22.082  0.00  0.00    -0.219 NA
ATOM     11  C   UNL     1      10.102   0.704  23.421  0.00  0.00    +0.147 A 
ATOM     12  N   UNL     1      10.653   1.880  23.912  0.00  0.00    -0.341 N 
ATOM     13  H   UNL     1      10.365   2.105  24.857  0.00  0.00    +0.144 HD
ATOM     14  H   UNL     1      10.649   2.627  23.227  0.00  0.00    +0.144 HD
ATOM     15  C   UNL     1       9.578  -0.306  24.247  0.00  0.00    +0.147 A 
ATOM     16  N   UNL     1       9.439  -0.417  25.616  0.00  0.00    -0.231 NA
ATOM     17  C   UNL     1       8.868  -1.588  25.805  0.00  0.00    +0.203 A 
ENDBRANCH   4   6
BRANCH   2  18
ATOM     18  O   UNL     1       7.640  -4.995  27.410  0.00  0.00    -0.386 OA
ATOM     19  H   UNL     1       8.335  -5.503  27.862  0.00  0.00    +0.210 HD
ENDBRANCH   2  18
BRANCH   3  20
ATOM     20  O   UNL     1       9.506  -5.542  24.483  0.00  0.00    -0.385 OA
ATOM     21  H   UNL     1       9.912  -6.195  25.088  0.00  0.00    +0.210 HD
ENDBRANCH   3  20
BRANCH   1  22
ATOM     22  C   UNL     1       5.678  -5.768  24.360  0.00  0.00    +0.312 C 
BRANCH  22  24
ATOM     23  C   UNL     1       3.055  -6.518  24.076  0.00  0.00    +0.341 C 
ATOM     24  S   UNL     1       4.466  -6.923  25.139  0.00  0.00    -0.008 S 
BRANCH  24  25
ATOM     25  C   UNL     1       4.032  -5.841  26.519  0.00  0.00    +0.307 C 
BRANCH  25  26
ATOM     26  C   UNL     1       4.258  -6.378  27.917  0.00  0.00    +0.239 C 
BRANCH  26  27
ATOM     27  O   UNL     1       5.411  -7.226  27.770  0.00  0.00    -0.298 OA
BRANCH  27  28
ATOM     28  N   UNL     1       6.199  -7.216  28.987  0.00  0.00    -0.215 NA
ATOM     29  H   UNL     1       6.164  -8.203  29.250  0.00  0.00    +0.150 HD
ATOM     30  H   UNL     1       7.135  -7.086  28.594  0.00  0.00    +0.150 HD
ENDBRANCH  27  28
ENDBRANCH  26  27
ENDBRANCH  25  26
ENDBRANCH  24  25
ENDBRANCH  22  24
ENDBRANCH   1  22
TORSDOF 9
ENDMDL
MODEL 3
REMARK VINA RESULT:      -6.1      4.423      7.692
REMARK  Name = 
REMARK  10 active torsions:
REMARK  status: ('A' for Active; 'I' for Inactive)
REMARK    1  A    between atoms: C_1  and  S_2
REMARK    2  A    between atoms: S_2  and  C_3
REMARK    3  A    between atoms: S_2  and  C_7
REMARK    4  A    between atoms: C_3  and  C_4
REMARK    5  A    between atoms: C_4  and  O_5
REMARK    6  A    between atoms: O_5  and  N_6
REMARK    7  A    between atoms: C_7  and  C_8
REMARK    8  A    between atoms: C_11  and  N_19
REMARK    9  A    between atoms: C_13  and  O_15
REMARK   10  A    between atoms: C_16  and  O_18
REMARK                            x       y       z     vdW  Elec       q    Type
REMARK                         _______ _______ _______ _____ _____    ______ ____
ROOT
ATOM      1  C   UNL     1       8.952   2.976  23.479  0.00  0.00    +0.201 C 
ATOM      2  C   UNL     1      10.194   2.285  22.917  0.00  0.00    +0.181 C 
ATOM      3  C   UNL     1      10.154   0.867  23.471  0.00  0.00    +0.195 C 
ATOM      4  C   UNL     1       8.789   0.749  24.155  0.00  0.00    +0.253 C 
ATOM      5  O   UNL     1       8.034   1.937  23.878  0.00  0.00    -0.343 OA
ENDROOT
BRANCH   4   6
ATOM      6  N   UNL     1       8.052  -0.422  23.715  0.00  0.00    -0.286 N 
ATOM      7  C   UNL     1       8.462  -1.716  23.913  0.00  0.00    +0.167 A 
ATOM      8  N   UNL     1       9.573  -2.129  24.549  0.00  0.00    -0.216 NA
ATOM      9  C   UNL     1       9.630  -3.481  24.563  0.00  0.00    +0.225 A 
ATOM     10  N   UNL     1       8.766  -4.368  24.021  0.00  0.00    -0.219 NA
ATOM     11  C   UNL     1       7.688  -3.891  23.359  0.00  0.00    +0.147 A 
ATOM     12  N   UNL     1       6.818  -4.802  22.774  0.00  0.00    -0.341 N 
ATOM     13  H   UNL     1       5.893  -4.429  22.595  0.00  0.00    +0.144 HD
ATOM     14  H   UNL     1       6.883  -5.723  23.189  0.00  0.00    +0.144 HD
ATOM     15  C   UNL     1       7.498  -2.498  23.305  0.00  0.00    +0.147 A 
ATOM     16  N   UNL     1       6.509  -1.710  22.756  0.00  0.00    -0.231 NA
ATOM     17  C   UNL     1       6.867  -0.474  23.032  0.00  0.00    +0.203 A 
ENDBRANCH   4   6
BRANCH   2  18
ATOM     18  O   UNL     1      10.109   2.238  21.480  0.00  0.00    -0.386 OA
ATOM     19  H   UNL     1      10.963   2.500  21.097  0.00  0.00    +0.210 HD
ENDBRANCH   2  18
BRANCH   3  20
ATOM     20  O   UNL     1      11.201   0.660  24.425  0.00  0.00    -0.385 OA
ATOM     21  H   UNL     1      11.729   1.483  24.443  0.00  0.00    +0.210 HD
ENDBRANCH   3  20
BRANCH   1  22
ATOM     22  C   UNL     1       9.222   3.939  24.655  0.00  0.00    +0.312 C 
BRANCH  22  24
ATOM     23  C   UNL     1       7.776   5.414  22.850  0.00  0.00    +0.341 C 
ATOM     24  S   UNL     1       8.907   5.710  24.236  0.00  0.00    -0.008 S 
BRANCH  24  25
ATOM     25  C   UNL     1      10.408   5.945  23.260  0.00  0.00    +0.307 C 
BRANCH  25  26
ATOM     26  C   UNL     1      11.729   5.643  23.938  0.00  0.00    +0.239 C 
BRANCH  26  27
ATOM     27  O   UNL     1      12.507   5.022  22.898  0.00  0.00    -0.298 OA
BRANCH  27  28
ATOM     28  N   UNL     1      13.922   5.145  23.190  0.00  0.00    -0.215 NA
ATOM     29  H   UNL     1      13.940   6.032  23.698  0.00  0.00    +0.150 HD
ATOM     30  H   UNL     1      14.018   4.429  23.915  0.00  0.00    +0.150 HD
ENDBRANCH  27  28
ENDBRANCH  26  27
ENDBRANCH  25  26
ENDBRANCH  24  25
ENDBRANCH  22  24
ENDBRANCH   1  22
TORSDOF 9
ENDMDL
MODEL 4
REMARK VINA RESULT:      -6.1      2.776      4.084
REMARK  Name = 
REMARK  10 active torsions:
REMARK  status: ('A' for Active; 'I' for Inactive)
REMARK    1  A    between atoms: C_1  and  S_2
REMARK    2  A    between atoms: S_2  and  C_3
REMARK    3  A    between atoms: S_2  and  C_7
REMARK    4  A    between atoms: C_3  and  C_4
REMARK    5  A    between atoms: C_4  and  O_5
REMARK    6  A    between atoms: O_5  and  N_6
REMARK    7  A    between atoms: C_7  and  C_8
REMARK    8  A    between atoms: C_11  and  N_19
REMARK    9  A    between atoms: C_13  and  O_15
REMARK   10  A    between atoms: C_16  and  O_18
REMARK                            x       y       z     vdW  Elec       q    Type
REMARK                         _______ _______ _______ _____ _____    ______ ____
ROOT
ATOM      1  C   UNL     1       7.771  -2.221  23.544  0.00  0.00    +0.201 C 
ATOM      2  C   UNL     1       9.286  -2.409  23.479  0.00  0.00    +0.181 C 
ATOM      3  C   UNL     1       9.813  -1.189  22.735  0.00  0.00    +0.195 C 
ATOM      4  C   UNL     1       8.603  -0.261  22.591  0.00  0.00    +0.253 C 
ATOM      5  O   UNL     1       7.508  -0.819  23.332  0.00  0.00    -0.343 OA
ENDROOT
BRANCH   4   6
ATOM      6  N   UNL     1       8.883   1.086  23.055  0.00  0.00    -0.286 N 
ATOM      7  C   UNL     1       8.098   2.178  22.787  0.00  0.00    +0.167 A 
ATOM      8  N   UNL     1       6.950   2.202  22.087  0.00  0.00    -0.216 NA
ATOM      9  C   UNL     1       6.450   3.460  22.050  0.00  0.00    +0.225 A 
ATOM     10  N   UNL     1       6.968   4.589  22.580  0.00  0.00    -0.219 NA
ATOM     11  C   UNL     1       8.146   4.508  23.238  0.00  0.00    +0.147 A 
ATOM     12  N   UNL     1       8.694   5.675  23.755  0.00  0.00    -0.341 N 
ATOM     13  H   UNL     1       9.368   5.520  24.496  0.00  0.00    +0.144 HD
ATOM     14  H   UNL     1       8.003   6.403  23.890  0.00  0.00    +0.144 HD
ATOM     15  C   UNL     1       8.750   3.245  23.375  0.00  0.00    +0.147 A 
ATOM     16  N   UNL     1       9.903   2.824  24.004  0.00  0.00    -0.231 NA
ATOM     17  C   UNL     1       9.943   1.523  23.803  0.00  0.00    +0.203 A 
ENDBRANCH   4   6
BRANCH   2  18
ATOM     18  O   UNL     1       9.827  -2.424  24.813  0.00  0.00    -0.386 OA
ATOM     19  H   UNL     1       9.913  -3.344  25.116  0.00  0.00    +0.210 HD
ENDBRANCH   2  18
BRANCH   3  20
ATOM     20  O   UNL     1      10.311  -1.551  21.443  0.00  0.00    -0.385 OA
ATOM     21  H   UNL     1       9.554  -1.491  20.825  0.00  0.00    +0.210 HD
ENDBRANCH   3  20
BRANCH   1  22
ATOM     22  C   UNL     1       6.968  -3.078  22.543  0.00  0.00    +0.312 C 
BRANCH  22  24
ATOM     23  C   UNL     1       5.590  -5.424  22.185  0.00  0.00    +0.341 C 
ATOM     24  S   UNL     1       7.224  -4.894  22.766  0.00  0.00    -0.008 S 
BRANCH  24  25
ATOM     25  C   UNL     1       6.859  -4.922  24.535  0.00  0.00    +0.307 C 
BRANCH  25  26
ATOM     26  C   UNL     1       7.975  -5.353  25.465  0.00  0.00    +0.239 C 
BRANCH  26  27
ATOM     27  O   UNL     1       9.110  -5.486  24.590  0.00  0.00    -0.298 OA
BRANCH  27  28
ATOM     28  N   UNL     1      10.340  -5.467  25.360  0.00  0.00    -0.215 NA
ATOM     29  H   UNL     1      10.798  -6.313  25.014  0.00  0.00    +0.150 HD
ATOM     30  H   UNL     1      10.830  -4.698  24.895  0.00  0.00    +0.150 HD
ENDBRANCH  27  28
ENDBRANCH  26  27
ENDBRANCH  25  26
ENDBRANCH  24  25
ENDBRANCH  22  24
ENDBRANCH   1  22
TORSDOF 9
ENDMDL
MODEL 5
REMARK VINA RESULT:      -6.0      2.356      2.712
REMARK  Name = 
REMARK  10 active torsions:
REMARK  status: ('A' for Active; 'I' for Inactive)
REMARK    1  A    between atoms: C_1  and  S_2
REMARK    2  A    between atoms: S_2  and  C_3
REMARK    3  A    between atoms: S_2  and  C_7
REMARK    4  A    between atoms: C_3  and  C_4
REMARK    5  A    between atoms: C_4  and  O_5
REMARK    6  A    between atoms: O_5  and  N_6
REMARK    7  A    between atoms: C_7  and  C_8
REMARK    8  A    between atoms: C_11  and  N_19
REMARK    9  A    between atoms: C_13  and  O_15
REMARK   10  A    between atoms: C_16  and  O_18
REMARK                            x       y       z     vdW  Elec       q    Type
REMARK                         _______ _______ _______ _____ _____    ______ ____
ROOT
ATOM      1  C   UNL     1       7.555  -4.305  25.597  0.00  0.00    +0.201 C 
ATOM      2  C   UNL     1       8.020  -5.119  24.390  0.00  0.00    +0.181 C 
ATOM      3  C   UNL     1       7.926  -4.170  23.202  0.00  0.00    +0.195 C 
ATOM      4  C   UNL     1       7.610  -2.802  23.814  0.00  0.00    +0.253 C 
ATOM      5  O   UNL     1       7.679  -2.913  25.242  0.00  0.00    -0.343 OA
ENDROOT
BRANCH   4   6
ATOM      6  N   UNL     1       8.518  -1.769  23.349  0.00  0.00    -0.286 N 
ATOM      7  C   UNL     1       8.129  -0.512  22.960  0.00  0.00    +0.167 A 
ATOM      8  N   UNL     1       6.881  -0.012  22.956  0.00  0.00    -0.216 NA
ATOM      9  C   UNL     1       6.891   1.271  22.524  0.00  0.00    +0.225 A 
ATOM     10  N   UNL     1       7.942   2.013  22.110  0.00  0.00    -0.219 NA
ATOM     11  C   UNL     1       9.167   1.441  22.098  0.00  0.00    +0.147 A 
ATOM     12  N   UNL     1      10.241   2.194  21.642  0.00  0.00    -0.341 N 
ATOM     13  H   UNL     1      11.143   1.856  21.958  0.00  0.00    +0.144 HD
ATOM     14  H   UNL     1      10.066   3.190  21.690  0.00  0.00    +0.144 HD
ATOM     15  C   UNL     1       9.292   0.119  22.559  0.00  0.00    +0.147 A 
ATOM     16  N   UNL     1      10.376  -0.721  22.709  0.00  0.00    -0.231 NA
ATOM     17  C   UNL     1       9.876  -1.837  23.196  0.00  0.00    +0.203 A 
ENDBRANCH   4   6
BRANCH   2  18
ATOM     18  O   UNL     1       9.392  -5.514  24.577  0.00  0.00    -0.386 OA
ATOM     19  H   UNL     1       9.661  -6.101  23.850  0.00  0.00    +0.210 HD
ENDBRANCH   2  18
BRANCH   3  20
ATOM     20  O   UNL     1       6.877  -4.565  22.312  0.00  0.00    -0.385 OA
ATOM     21  H   UNL     1       7.272  -4.614  21.419  0.00  0.00    +0.210 HD
ENDBRANCH   3  20
BRANCH   1  22
ATOM     22  C   UNL     1       6.120  -4.615  26.073  0.00  0.00    +0.312 C 
BRANCH  22  24
ATOM     23  C   UNL     1       4.090  -5.277  24.350  0.00  0.00    +0.341 C 
ATOM     24  S   UNL     1       5.397  -6.119  25.282  0.00  0.00    -0.008 S 
BRANCH  24  25
ATOM     25  C   UNL     1       4.388  -6.613  26.696  0.00  0.00    +0.307 C 
BRANCH  25  26
ATOM     26  C   UNL     1       4.942  -6.323  28.077  0.00  0.00    +0.239 C 
BRANCH  26  27
ATOM     27  O   UNL     1       5.660  -7.526  28.410  0.00  0.00    -0.298 OA
BRANCH  27  28
ATOM     28  N   UNL     1       6.691  -7.238  29.389  0.00  0.00    -0.215 NA
ATOM     29  H   UNL     1       6.640  -6.217  29.430  0.00  0.00    +0.150 HD
ATOM     30  H   UNL     1       6.222  -7.555  30.241  0.00  0.00    +0.150 HD
ENDBRANCH  27  28
ENDBRANCH  26  27
ENDBRANCH  25  26
ENDBRANCH  24  25
ENDBRANCH  22  24
ENDBRANCH   1  22
TORSDOF 9
ENDMDL
MODEL 6
REMARK VINA RESULT:      -6.0      1.853      2.738
REMARK  Name = 
REMARK  10 active torsions:
REMARK  status: ('A' for Active; 'I' for Inactive)
REMARK    1  A    between atoms: C_1  and  S_2
REMARK    2  A    between atoms: S_2  and  C_3
REMARK    3  A    between atoms: S_2  and  C_7
REMARK    4  A    between atoms: C_3  and  C_4
REMARK    5  A    between atoms: C_4  and  O_5
REMARK    6  A    between atoms: O_5  and  N_6
REMARK    7  A    between atoms: C_7  and  C_8
REMARK    8  A    between atoms: C_11  and  N_19
REMARK    9  A    between atoms: C_13  and  O_15
REMARK   10  A    between atoms: C_16  and  O_18
REMARK                            x       y       z     vdW  Elec       q    Type
REMARK                         _______ _______ _______ _____ _____    ______ ____
ROOT
ATOM      1  C   UNL     1       6.170  -3.901  24.389  0.00  0.00    +0.201 C 
ATOM      2  C   UNL     1       6.540  -4.657  23.113  0.00  0.00    +0.181 C 
ATOM      3  C   UNL     1       6.708  -3.586  22.043  0.00  0.00    +0.195 C 
ATOM      4  C   UNL     1       6.629  -2.256  22.799  0.00  0.00    +0.253 C 
ATOM      5  O   UNL     1       6.587  -2.532  24.206  0.00  0.00    -0.343 OA
ENDROOT
BRANCH   4   6
ATOM      6  N   UNL     1       7.749  -1.383  22.496  0.00  0.00    -0.286 N 
ATOM      7  C   UNL     1       7.710  -0.015  22.578  0.00  0.00    +0.167 A 
ATOM      8  N   UNL     1       6.672   0.748  22.962  0.00  0.00    -0.216 NA
ATOM      9  C   UNL     1       7.016   2.057  22.936  0.00  0.00    +0.225 A 
ATOM     10  N   UNL     1       8.190   2.613  22.566  0.00  0.00    -0.219 NA
ATOM     11  C   UNL     1       9.184   1.796  22.150  0.00  0.00    +0.147 A 
ATOM     12  N   UNL     1      10.380   2.370  21.739  0.00  0.00    -0.341 N 
ATOM     13  H   UNL     1      11.170   1.736  21.762  0.00  0.00    +0.144 HD
ATOM     14  H   UNL     1      10.512   3.302  22.112  0.00  0.00    +0.144 HD
ATOM     15  C   UNL     1       8.960   0.408  22.166  0.00  0.00    +0.147 A 
ATOM     16  N   UNL     1       9.758  -0.672  21.849  0.00  0.00    -0.231 NA
ATOM     17  C   UNL     1       9.003  -1.728  22.071  0.00  0.00    +0.203 A 
ENDBRANCH   4   6
BRANCH   2  18
ATOM     18  O   UNL     1       7.794  -5.338  23.305  0.00  0.00    -0.386 OA
ATOM     19  H   UNL     1       8.269  -5.385  22.458  0.00  0.00    +0.210 HD
ENDBRANCH   2  18
BRANCH   3  20
ATOM     20  O   UNL     1       5.659  -3.663  21.072  0.00  0.00    -0.385 OA
ATOM     21  H   UNL     1       5.592  -4.602  20.807  0.00  0.00    +0.210 HD
ENDBRANCH   3  20
BRANCH   1  22
ATOM     22  C   UNL     1       4.675  -3.964  24.769  0.00  0.00    +0.312 C 
BRANCH  22  24
ATOM     23  C   UNL     1       4.771  -3.427  27.457  0.00  0.00    +0.341 C 
ATOM     24  S   UNL     1       4.366  -4.823  26.374  0.00  0.00    -0.008 S 
BRANCH  24  25
ATOM     25  C   UNL     1       5.967  -5.653  26.459  0.00  0.00    +0.307 C 
BRANCH  25  26
ATOM     26  C   UNL     1       6.773  -5.476  27.730  0.00  0.00    +0.239 C 
BRANCH  26  27
ATOM     27  O   UNL     1       8.029  -4.951  27.262  0.00  0.00    -0.298 OA
BRANCH  27  28
ATOM     28  N   UNL     1       8.585  -5.817  26.241  0.00  0.00    -0.215 NA
ATOM     29  H   UNL     1       7.733  -6.209  25.833  0.00  0.00    +0.150 HD
ATOM     30  H   UNL     1       8.898  -5.117  25.563  0.00  0.00    +0.150 HD
ENDBRANCH  27  28
ENDBRANCH  26  27
ENDBRANCH  25  26
ENDBRANCH  24  25
ENDBRANCH  22  24
ENDBRANCH   1  22
TORSDOF 9
ENDMDL
MODEL 7
REMARK VINA RESULT:      -6.0      3.203      6.185
REMARK  Name = 
REMARK  10 active torsions:
REMARK  status: ('A' for Active; 'I' for Inactive)
REMARK    1  A    between atoms: C_1  and  S_2
REMARK    2  A    between atoms: S_2  and  C_3
REMARK    3  A    between atoms: S_2  and  C_7
REMARK    4  A    between atoms: C_3  and  C_4
REMARK    5  A    between atoms: C_4  and  O_5
REMARK    6  A    between atoms: O_5  and  N_6
REMARK    7  A    between atoms: C_7  and  C_8
REMARK    8  A    between atoms: C_11  and  N_19
REMARK    9  A    between atoms: C_13  and  O_15
REMARK   10  A    between atoms: C_16  and  O_18
REMARK                            x       y       z     vdW  Elec       q    Type
REMARK                         _______ _______ _______ _____ _____    ______ ____
ROOT
ATOM      1  C   UNL     1       8.890  -0.360  23.140  0.00  0.00    +0.201 C 
ATOM      2  C   UNL     1       9.806  -1.498  22.688  0.00  0.00    +0.181 C 
ATOM      3  C   UNL     1       9.179  -2.768  23.249  0.00  0.00    +0.195 C 
ATOM      4  C   UNL     1       7.828  -2.324  23.817  0.00  0.00    +0.253 C 
ATOM      5  O   UNL     1       7.615  -0.949  23.469  0.00  0.00    -0.343 OA
ENDROOT
BRANCH   4   6
ATOM      6  N   UNL     1       6.730  -3.138  23.327  0.00  0.00    -0.286 N 
ATOM      7  C   UNL     1       6.224  -4.232  23.980  0.00  0.00    +0.167 A 
ATOM      8  N   UNL     1       6.620  -4.727  25.166  0.00  0.00    -0.216 NA
ATOM      9  C   UNL     1       5.871  -5.805  25.498  0.00  0.00    +0.225 A 
ATOM     10  N   UNL     1       4.875  -6.388  24.797  0.00  0.00    -0.219 NA
ATOM     11  C   UNL     1       4.549  -5.869  23.591  0.00  0.00    +0.147 A 
ATOM     12  N   UNL     1       3.547  -6.489  22.856  0.00  0.00    -0.341 N 
ATOM     13  H   UNL     1       3.126  -5.894  22.153  0.00  0.00    +0.144 HD
ATOM     14  H   UNL     1       2.931  -7.048  23.433  0.00  0.00    +0.144 HD
ATOM     15  C   UNL     1       5.234  -4.723  23.150  0.00  0.00    +0.147 A 
ATOM     16  N   UNL     1       5.120  -3.945  22.017  0.00  0.00    -0.231 NA
ATOM     17  C   UNL     1       6.023  -2.998  22.163  0.00  0.00    +0.203 A 
ENDBRANCH   4   6
BRANCH   2  18
ATOM     18  O   UNL     1       9.815  -1.565  21.250  0.00  0.00    -0.386 OA
ATOM     19  H   UNL     1       9.162  -2.222  20.954  0.00  0.00    +0.210 HD
ENDBRANCH   2  18
BRANCH   3  20
ATOM     20  O   UNL     1       9.991  -3.324  24.288  0.00  0.00    -0.385 OA
ATOM     21  H   UNL     1      10.193  -2.594  24.906  0.00  0.00    +0.210 HD
ENDBRANCH   3  20
BRANCH   1  22
ATOM     22  C   UNL     1       9.425   0.470  24.326  0.00  0.00    +0.312 C 
BRANCH  22  24
ATOM     23  C   UNL     1       8.631   3.029  24.917  0.00  0.00    +0.341 C 
ATOM     24  S   UNL     1       9.858   2.206  23.866  0.00  0.00    -0.008 S 
BRANCH  24  25
ATOM     25  C   UNL     1       8.906   2.240  22.332  0.00  0.00    +0.307 C 
BRANCH  25  26
ATOM     26  C   UNL     1       7.619   3.040  22.333  0.00  0.00    +0.239 C 
BRANCH  26  27
ATOM     27  O   UNL     1       6.625   2.079  21.930  0.00  0.00    -0.298 OA
BRANCH  27  28
ATOM     28  N   UNL     1       5.891   1.604  23.087  0.00  0.00    -0.215 NA
ATOM     29  H   UNL     1       5.025   1.284  22.649  0.00  0.00    +0.150 HD
ATOM     30  H   UNL     1       6.412   0.747  23.291  0.00  0.00    +0.150 HD
ENDBRANCH  27  28
ENDBRANCH  26  27
ENDBRANCH  25  26
ENDBRANCH  24  25
ENDBRANCH  22  24
ENDBRANCH   1  22
TORSDOF 9
ENDMDL
MODEL 8
REMARK VINA RESULT:      -5.9      1.853      2.298
REMARK  Name = 
REMARK  10 active torsions:
REMARK  status: ('A' for Active; 'I' for Inactive)
REMARK    1  A    between atoms: C_1  and  S_2
REMARK    2  A    between atoms: S_2  and  C_3
REMARK    3  A    between atoms: S_2  and  C_7
REMARK    4  A    between atoms: C_3  and  C_4
REMARK    5  A    between atoms: C_4  and  O_5
REMARK    6  A    between atoms: O_5  and  N_6
REMARK    7  A    between atoms: C_7  and  C_8
REMARK    8  A    between atoms: C_11  and  N_19
REMARK    9  A    between atoms: C_13  and  O_15
REMARK   10  A    between atoms: C_16  and  O_18
REMARK                            x       y       z     vdW  Elec       q    Type
REMARK                         _______ _______ _______ _____ _____    ______ ____
ROOT
ATOM      1  C   UNL     1       7.104  -3.712  25.315  0.00  0.00    +0.201 C 
ATOM      2  C   UNL     1       8.479  -3.637  25.978  0.00  0.00    +0.181 C 
ATOM      3  C   UNL     1       9.467  -3.428  24.838  0.00  0.00    +0.195 C 
ATOM      4  C   UNL     1       8.596  -3.186  23.601  0.00  0.00    +0.253 C 
ATOM      5  O   UNL     1       7.226  -3.097  24.016  0.00  0.00    -0.343 OA
ENDROOT
BRANCH   4   6
ATOM      6  N   UNL     1       8.979  -1.983  22.884  0.00  0.00    -0.286 N 
ATOM      7  C   UNL     1       9.419  -0.830  23.484  0.00  0.00    +0.167 A 
ATOM      8  N   UNL     1       9.592  -0.613  24.799  0.00  0.00    -0.216 NA
ATOM      9  C   UNL     1      10.059   0.641  25.010  0.00  0.00    +0.225 A 
ATOM     10  N   UNL     1      10.314   1.609  24.103  0.00  0.00    -0.219 NA
ATOM     11  C   UNL     1      10.081   1.344  22.798  0.00  0.00    +0.147 A 
ATOM     12  N   UNL     1      10.313   2.351  21.870  0.00  0.00    -0.341 N 
ATOM     13  H   UNL     1      10.445   2.014  20.923  0.00  0.00    +0.144 HD
ATOM     14  H   UNL     1      10.952   3.057  22.213  0.00  0.00    +0.144 HD
ATOM     15  C   UNL     1       9.627   0.060  22.447  0.00  0.00    +0.147 A 
ATOM     16  N   UNL     1       9.337  -0.530  21.234  0.00  0.00    -0.231 NA
ATOM     17  C   UNL     1       8.965  -1.757  21.535  0.00  0.00    +0.203 A 
ENDBRANCH   4   6
BRANCH   2  18
ATOM     18  O   UNL     1       8.524  -2.501  26.862  0.00  0.00    -0.386 OA
ATOM     19  H   UNL     1       9.152  -2.679  27.584  0.00  0.00    +0.210 HD
ENDBRANCH   2  18
BRANCH   3  20
ATOM     20  O   UNL     1      10.282  -4.588  24.647  0.00  0.00    -0.385 OA
ATOM     21  H   UNL     1      11.211  -4.296  24.744  0.00  0.00    +0.210 HD
ENDBRANCH   3  20
BRANCH   1  22
ATOM     22  C   UNL     1       6.523  -5.136  25.186  0.00  0.00    +0.312 C 
BRANCH  22  24
ATOM     23  C   UNL     1       4.765  -6.718  26.576  0.00  0.00    +0.341 C 
ATOM     24  S   UNL     1       4.715  -5.223  25.551  0.00  0.00    -0.008 S 
BRANCH  24  25
ATOM     25  C   UNL     1       4.246  -6.023  24.002  0.00  0.00    +0.307 C 
BRANCH  25  26
ATOM     26  C   UNL     1       5.026  -5.640  22.760  0.00  0.00    +0.239 C 
BRANCH  26  27
ATOM     27  O   UNL     1       4.491  -4.350  22.412  0.00  0.00    -0.298 OA
BRANCH  27  28
ATOM     28  N   UNL     1       5.490  -3.567  21.711  0.00  0.00    -0.215 NA
ATOM     29  H   UNL     1       4.927  -2.776  21.390  0.00  0.00    +0.150 HD
ATOM     30  H   UNL     1       6.022  -3.201  22.505  0.00  0.00    +0.150 HD
ENDBRANCH  27  28
ENDBRANCH  26  27
ENDBRANCH  25  26
ENDBRANCH  24  25
ENDBRANCH  22  24
ENDBRANCH   1  22
TORSDOF 9
ENDMDL
MODEL 9
REMARK VINA RESULT:      -5.8      3.057      6.213
REMARK  Name = 
REMARK  10 active torsions:
REMARK  status: ('A' for Active; 'I' for Inactive)
REMARK    1  A    between atoms: C_1  and  S_2
REMARK    2  A    between atoms: S_2  and  C_3
REMARK    3  A    between atoms: S_2  and  C_7
REMARK    4  A    between atoms: C_3  and  C_4
REMARK    5  A    between atoms: C_4  and  O_5
REMARK    6  A    between atoms: O_5  and  N_6
REMARK    7  A    between atoms: C_7  and  C_8
REMARK    8  A    between atoms: C_11  and  N_19
REMARK    9  A    between atoms: C_13  and  O_15
REMARK   10  A    between atoms: C_16  and  O_18
REMARK                            x       y       z     vdW  Elec       q    Type
REMARK                         _______ _______ _______ _____ _____    ______ ____
ROOT
ATOM      1  C   UNL     1       8.142  -2.443  25.350  0.00  0.00    +0.201 C 
ATOM      2  C   UNL     1       9.074  -3.562  24.887  0.00  0.00    +0.181 C 
ATOM      3  C   UNL     1       8.852  -4.705  25.868  0.00  0.00    +0.195 C 
ATOM      4  C   UNL     1       7.658  -4.267  26.721  0.00  0.00    +0.253 C 
ATOM      5  O   UNL     1       7.128  -3.051  26.176  0.00  0.00    -0.343 OA
ENDROOT
BRANCH   4   6
ATOM      6  N   UNL     1       6.621  -5.282  26.779  0.00  0.00    -0.286 N 
ATOM      7  C   UNL     1       5.864  -5.679  25.706  0.00  0.00    +0.167 A 
ATOM      8  N   UNL     1       5.951  -5.234  24.440  0.00  0.00    -0.216 NA
ATOM      9  C   UNL     1       5.052  -5.874  23.656  0.00  0.00    +0.225 A 
ATOM     10  N   UNL     1       4.143  -6.810  24.005  0.00  0.00    -0.219 NA
ATOM     11  C   UNL     1       4.075  -7.187  25.302  0.00  0.00    +0.147 A 
ATOM     12  N   UNL     1       3.119  -8.125  25.666  0.00  0.00    -0.341 N 
ATOM     13  H   UNL     1       3.323  -8.604  26.536  0.00  0.00    +0.144 HD
ATOM     14  H   UNL     1       2.803  -8.683  24.883  0.00  0.00    +0.144 HD
ATOM     15  C   UNL     1       4.984  -6.618  26.212  0.00  0.00    +0.147 A 
ATOM     16  N   UNL     1       5.200  -6.808  27.561  0.00  0.00    -0.231 NA
ATOM     17  C   UNL     1       6.196  -6.001  27.863  0.00  0.00    +0.203 A 
ENDBRANCH   4   6
BRANCH   2  18
ATOM     18  O   UNL     1       8.694  -3.987  23.565  0.00  0.00    -0.386 OA
ATOM     19  H   UNL     1       8.065  -4.726  23.633  0.00  0.00    +0.210 HD
ENDBRANCH   2  18
BRANCH   3  20
ATOM     20  O   UNL     1      10.003  -4.901  26.696  0.00  0.00    -0.385 OA
ATOM     21  H   UNL     1      10.226  -5.852  26.644  0.00  0.00    +0.210 HD
ENDBRANCH   3  20
BRANCH   1  22
ATOM     22  C   UNL     1       8.838  -1.293  26.109  0.00  0.00    +0.312 C 
BRANCH  22  24
ATOM     23  C   UNL     1       6.944   0.083  24.678  0.00  0.00    +0.341 C 
ATOM     24  S   UNL     1       8.627   0.352  25.296  0.00  0.00    -0.008 S 
BRANCH  24  25
ATOM     25  C   UNL     1       9.502  -0.074  23.775  0.00  0.00    +0.307 C 
BRANCH  25  26
ATOM     26  C   UNL     1       8.693  -0.095  22.493  0.00  0.00    +0.239 C 
BRANCH  26  27
ATOM     27  O   UNL     1       8.873  -1.437  22.004  0.00  0.00    -0.298 OA
BRANCH  27  28
ATOM     28  N   UNL     1      10.287  -1.746  21.898  0.00  0.00    -0.215 NA
ATOM     29  H   UNL     1      10.265  -2.535  21.248  0.00  0.00    +0.150 HD
ATOM     30  H   UNL     1      10.601  -0.953  21.333  0.00  0.00    +0.150 HD
ENDBRANCH  27  28
ENDBRANCH  26  27
ENDBRANCH  25  26
ENDBRANCH  24  25
ENDBRANCH  22  24
ENDBRANCH   1  22
TORSDOF 9
ENDMDL
