MODEL 1
REMARK VINA RESULT:      -7.0      0.000      0.000
REMARK  Name = 
REMARK  5 active torsions:
REMARK  status: ('A' for Active; 'I' for Inactive)
REMARK    1  A    between atoms: C_2  and  C_3
REMARK    2  A    between atoms: N_7  and  C_8
REMARK    3  A    between atoms: N_16  and  C_17
REMARK    4  A    between atoms: C_17  and  C_18
REMARK    5  A    between atoms: C_18  and  C_19
REMARK                            x       y       z     vdW  Elec       q    Type
REMARK                         _______ _______ _______ _____ _____    ______ ____
ROOT
ATOM      1  C   UNL     1       7.766  -4.995  26.600  0.00  0.00    +0.116 A 
ATOM      2  C   UNL     1       9.085  -4.497  26.506  0.00  0.00    +0.156 A 
ATOM      3  N   UNL     1       9.304  -3.810  25.374  0.00  0.00    -0.169 NA
ATOM      4  N   UNL     1       8.106  -3.895  24.744  0.00  0.00    -0.182 N 
ATOM      5  C   UNL     1       7.794  -3.281  23.523  0.00  0.00    +0.221 A 
ATOM      6  N   UNL     1       8.761  -2.557  22.848  0.00  0.00    -0.313 N 
ATOM      7  H   UNL     1       9.669  -2.498  23.308  0.00  0.00    +0.149 HD
ATOM      8  N   UNL     1       6.577  -3.397  23.072  0.00  0.00    -0.181 NA
ATOM      9  C   UNL     1       5.644  -4.134  23.780  0.00  0.00    +0.224 A 
ATOM     10  N   UNL     1       4.436  -4.231  23.145  0.00  0.00    -0.283 N 
ATOM     11  H   UNL     1       4.438  -3.884  22.199  0.00  0.00    +0.155 HD
ATOM     12  N   UNL     1       5.903  -4.705  24.927  0.00  0.00    -0.194 NA
ATOM     13  C   UNL     1       7.150  -4.581  25.440  0.00  0.00    +0.180 A 
ENDROOT
BRANCH  10  14
ATOM     14  C   UNL     1       3.255  -4.848  23.580  0.00  0.00    +0.034 A 
ATOM     15  C   UNL     1       2.920  -6.111  23.067  0.00  0.00    +0.023 A 
ATOM     16  C   UNL     1       1.794  -6.801  23.527  0.00  0.00    +0.002 A 
ATOM     17  C   UNL     1       0.983  -6.237  24.508  0.00  0.00    +0.000 A 
ATOM     18  C   UNL     1       1.296  -4.984  25.024  0.00  0.00    +0.002 A 
ATOM     19  C   UNL     1       2.424  -4.300  24.564  0.00  0.00    +0.023 A 
ENDBRANCH  10  14
BRANCH   1  21
ATOM     20  N   UNL     1       6.744  -6.368  28.541  0.00  0.00    -0.191 NA
ATOM     21  C   UNL     1       7.185  -5.752  27.659  0.00  0.00    +0.104 C 
ENDBRANCH   1  21
BRANCH   6  22
ATOM     22  C   UNL     1       8.369  -1.438  22.002  0.00  0.00    +0.110 C 
BRANCH  22  23
ATOM     23  C   UNL     1       9.557  -0.646  21.453  0.00  0.00    +0.073 C 
BRANCH  23  24
ATOM     24  C   UNL     1       9.943   0.530  22.278  0.00  0.00    +0.037 A 
ATOM     25  N   UNL     1       9.972   1.823  21.812  0.00  0.00    -0.348 N 
ATOM     26  H   UNL     1       9.759   2.137  20.876  0.00  0.00    +0.166 HD
ATOM     27  C   UNL     1      10.347   2.627  22.851  0.00  0.00    +0.196 A 
ATOM     28  N   UNL     1      10.554   1.935  23.946  0.00  0.00    -0.244 NA
ATOM     29  C   UNL     1      10.307   0.632  23.604  0.00  0.00    +0.133 A 
ENDBRANCH  23  24
ENDBRANCH  22  23
ENDBRANCH   6  22
TORSDOF 5
ENDMDL
MODEL 2
REMARK VINA RESULT:      -6.6      3.323      4.480
REMARK  Name = 
REMARK  5 active torsions:
REMARK  status: ('A' for Active; 'I' for Inactive)
REMARK    1  A    between atoms: C_2  and  C_3
REMARK    2  A    between atoms: N_7  and  C_8
REMARK    3  A    between atoms: N_16  and  C_17
REMARK    4  A    between atoms: C_17  and  C_18
REMARK    5  A    between atoms: C_18  and  C_19
REMARK                            x       y       z     vdW  Elec       q    Type
REMARK                         _______ _______ _______ _____ _____    ______ ____
ROOT
ATOM      1  C   UNL     1       5.752  -0.449  26.381  0.00  0.00    +0.116 A 
ATOM      2  C   UNL     1       6.252   0.684  27.061  0.00  0.00    +0.156 A 
ATOM      3  N   UNL     1       7.515   0.983  26.718  0.00  0.00    -0.169 NA
ATOM      4  N   UNL     1       7.812   0.011  25.820  0.00  0.00    -0.182 N 
ATOM      5  C   UNL     1       9.019  -0.088  25.113  0.00  0.00    +0.221 A 
ATOM      6  N   UNL     1      10.032   0.825  25.344  0.00  0.00    -0.313 N 
ATOM      7  H   UNL     1       9.822   1.553  26.028  0.00  0.00    +0.149 HD
ATOM      8  N   UNL     1       9.135  -1.041  24.231  0.00  0.00    -0.181 NA
ATOM      9  C   UNL     1       8.097  -1.934  24.036  0.00  0.00    +0.224 A 
ATOM     10  N   UNL     1       8.393  -2.922  23.138  0.00  0.00    -0.283 N 
ATOM     11  H   UNL     1       9.362  -2.948  22.860  0.00  0.00    +0.155 HD
ATOM     12  N   UNL     1       6.956  -1.856  24.670  0.00  0.00    -0.194 NA
ATOM     13  C   UNL     1       6.789  -0.861  25.573  0.00  0.00    +0.180 A 
ENDROOT
BRANCH  10  14
ATOM     14  C   UNL     1       7.579  -3.957  22.660  0.00  0.00    +0.034 A 
ATOM     15  C   UNL     1       6.639  -3.673  21.657  0.00  0.00    +0.023 A 
ATOM     16  C   UNL     1       5.857  -4.686  21.092  0.00  0.00    +0.002 A 
ATOM     17  C   UNL     1       6.003  -6.001  21.524  0.00  0.00    +0.000 A 
ATOM     18  C   UNL     1       6.925  -6.301  22.522  0.00  0.00    +0.002 A 
ATOM     19  C   UNL     1       7.705  -5.286  23.080  0.00  0.00    +0.023 A 
ENDBRANCH  10  14
BRANCH   1  21
ATOM     20  N   UNL     1       3.401  -1.519  26.538  0.00  0.00    -0.191 NA
ATOM     21  C   UNL     1       4.460  -1.040  26.488  0.00  0.00    +0.104 C 
ENDBRANCH   1  21
BRANCH   6  22
ATOM     22  C   UNL     1      10.960   1.165  24.275  0.00  0.00    +0.110 C 
BRANCH  22  23
ATOM     23  C   UNL     1      10.667   2.516  23.622  0.00  0.00    +0.073 C 
BRANCH  23  24
ATOM     24  C   UNL     1       9.349   2.592  22.934  0.00  0.00    +0.037 A 
ATOM     25  N   UNL     1       9.083   2.023  21.712  0.00  0.00    -0.348 N 
ATOM     26  H   UNL     1       9.727   1.510  21.127  0.00  0.00    +0.166 HD
ATOM     27  C   UNL     1       7.774   2.278  21.415  0.00  0.00    +0.196 A 
ATOM     28  N   UNL     1       7.189   2.964  22.368  0.00  0.00    -0.244 NA
ATOM     29  C   UNL     1       8.155   3.166  23.317  0.00  0.00    +0.133 A 
ENDBRANCH  23  24
ENDBRANCH  22  23
ENDBRANCH   6  22
TORSDOF 5
ENDMDL
MODEL 3
REMARK VINA RESULT:      -6.5      3.483      4.327
REMARK  Name = 
REMARK  5 active torsions:
REMARK  status: ('A' for Active; 'I' for Inactive)
REMARK    1  A    between atoms: C_2  and  C_3
REMARK    2  A    between atoms: N_7  and  C_8
REMARK    3  A    between atoms: N_16  and  C_17
REMARK    4  A    between atoms: C_17  and  C_18
REMARK    5  A    between atoms: C_18  and  C_19
REMARK                            x       y       z     vdW  Elec       q    Type
REMARK                         _______ _______ _______ _____ _____    ______ ____
ROOT
ATOM      1  C   UNL     1       8.363  -4.468  26.100  0.00  0.00    +0.116 A 
ATOM      2  C   UNL     1       9.407  -4.811  25.214  0.00  0.00    +0.156 A 
ATOM      3  N   UNL     1       9.763  -3.797  24.410  0.00  0.00    -0.169 NA
ATOM      4  N   UNL     1       8.917  -2.809  24.792  0.00  0.00    -0.182 N 
ATOM      5  C   UNL     1       8.923  -1.503  24.283  0.00  0.00    +0.221 A 
ATOM      6  N   UNL     1       9.813  -1.156  23.282  0.00  0.00    -0.313 N 
ATOM      7  H   UNL     1      10.446  -1.897  22.980  0.00  0.00    +0.149 HD
ATOM      8  N   UNL     1       8.091  -0.641  24.797  0.00  0.00    -0.181 NA
ATOM      9  C   UNL     1       7.216  -1.034  25.794  0.00  0.00    +0.224 A 
ATOM     10  N   UNL     1       6.353  -0.045  26.178  0.00  0.00    -0.283 N 
ATOM     11  H   UNL     1       6.375   0.773  25.589  0.00  0.00    +0.155 HD
ATOM     12  N   UNL     1       7.198  -2.241  26.297  0.00  0.00    -0.194 NA
ATOM     13  C   UNL     1       8.069  -3.154  25.808  0.00  0.00    +0.180 A 
ENDROOT
BRANCH  10  14
ATOM     14  C   UNL     1       5.376  -0.064  27.182  0.00  0.00    +0.034 A 
ATOM     15  C   UNL     1       5.700   0.433  28.454  0.00  0.00    +0.023 A 
ATOM     16  C   UNL     1       4.738   0.508  29.467  0.00  0.00    +0.002 A 
ATOM     17  C   UNL     1       3.435   0.085  29.223  0.00  0.00    +0.000 A 
ATOM     18  C   UNL     1       3.097  -0.417  27.970  0.00  0.00    +0.002 A 
ATOM     19  C   UNL     1       4.060  -0.486  26.961  0.00  0.00    +0.023 A 
ENDBRANCH  10  14
BRANCH   1  21
ATOM     20  N   UNL     1       7.209  -5.942  27.887  0.00  0.00    -0.191 NA
ATOM     21  C   UNL     1       7.746  -5.286  27.091  0.00  0.00    +0.104 C 
ENDBRANCH   1  21
BRANCH   6  22
ATOM     22  C   UNL     1      10.297   0.213  23.185  0.00  0.00    +0.110 C 
BRANCH  22  23
ATOM     23  C   UNL     1       9.861   0.924  21.903  0.00  0.00    +0.073 C 
BRANCH  23  24
ATOM     24  C   UNL     1       8.696   1.833  22.072  0.00  0.00    +0.037 A 
ATOM     25  N   UNL     1       8.797   3.189  22.269  0.00  0.00    -0.348 N 
ATOM     26  H   UNL     1       9.647   3.731  22.343  0.00  0.00    +0.166 HD
ATOM     27  C   UNL     1       7.529   3.690  22.356  0.00  0.00    +0.196 A 
ATOM     28  N   UNL     1       6.628   2.746  22.221  0.00  0.00    -0.244 NA
ATOM     29  C   UNL     1       7.339   1.588  22.044  0.00  0.00    +0.133 A 
ENDBRANCH  23  24
ENDBRANCH  22  23
ENDBRANCH   6  22
TORSDOF 5
ENDMDL
MODEL 4
REMARK VINA RESULT:      -6.3      2.946      4.482
REMARK  Name = 
REMARK  5 active torsions:
REMARK  status: ('A' for Active; 'I' for Inactive)
REMARK    1  A    between atoms: C_2  and  C_3
REMARK    2  A    between atoms: N_7  and  C_8
REMARK    3  A    between atoms: N_16  and  C_17
REMARK    4  A    between atoms: C_17  and  C_18
REMARK    5  A    between atoms: C_18  and  C_19
REMARK                            x       y       z     vdW  Elec       q    Type
REMARK                         _______ _______ _______ _____ _____    ______ ____
ROOT
ATOM      1  C   UNL     1       5.602  -0.044  26.449  0.00  0.00    +0.116 A 
ATOM      2  C   UNL     1       6.136   1.165  26.949  0.00  0.00    +0.156 A 
ATOM      3  N   UNL     1       7.413   1.360  26.587  0.00  0.00    -0.169 NA
ATOM      4  N   UNL     1       7.685   0.247  25.861  0.00  0.00    -0.182 N 
ATOM      5  C   UNL     1       8.897  -0.008  25.203  0.00  0.00    +0.221 A 
ATOM      6  N   UNL     1       9.940   0.894  25.305  0.00  0.00    -0.313 N 
ATOM      7  H   UNL     1       9.749   1.729  25.858  0.00  0.00    +0.149 HD
ATOM      8  N   UNL     1       8.988  -1.093  24.487  0.00  0.00    -0.181 NA
ATOM      9  C   UNL     1       7.919  -1.968  24.417  0.00  0.00    +0.224 A 
ATOM     10  N   UNL     1       8.189  -3.098  23.695  0.00  0.00    -0.283 N 
ATOM     11  H   UNL     1       9.160  -3.203  23.443  0.00  0.00    +0.155 HD
ATOM     12  N   UNL     1       6.774  -1.749  25.009  0.00  0.00    -0.194 NA
ATOM     13  C   UNL     1       6.633  -0.617  25.738  0.00  0.00    +0.180 A 
ENDROOT
BRANCH  10  14
ATOM     14  C   UNL     1       7.342  -4.167  23.373  0.00  0.00    +0.034 A 
ATOM     15  C   UNL     1       6.663  -4.830  24.406  0.00  0.00    +0.023 A 
ATOM     16  C   UNL     1       5.747  -5.851  24.130  0.00  0.00    +0.002 A 
ATOM     17  C   UNL     1       5.498  -6.225  22.813  0.00  0.00    +0.000 A 
ATOM     18  C   UNL     1       6.167  -5.584  21.775  0.00  0.00    +0.002 A 
ATOM     19  C   UNL     1       7.077  -4.563  22.057  0.00  0.00    +0.023 A 
ENDBRANCH  10  14
BRANCH   1  21
ATOM     20  N   UNL     1       3.199  -0.953  26.764  0.00  0.00    -0.191 NA
ATOM     21  C   UNL     1       4.287  -0.563  26.625  0.00  0.00    +0.104 C 
ENDBRANCH   1  21
BRANCH   6  22
ATOM     22  C   UNL     1      10.895   1.024  24.212  0.00  0.00    +0.110 C 
BRANCH  22  23
ATOM     23  C   UNL     1      10.417   1.952  23.094  0.00  0.00    +0.073 C 
BRANCH  23  24
ATOM     24  C   UNL     1      10.530   3.402  23.410  0.00  0.00    +0.037 A 
ATOM     25  N   UNL     1      11.651   4.158  23.169  0.00  0.00    -0.348 N 
ATOM     26  H   UNL     1      12.527   3.840  22.777  0.00  0.00    +0.166 HD
ATOM     27  C   UNL     1      11.378   5.438  23.563  0.00  0.00    +0.196 A 
ATOM     28  N   UNL     1      10.158   5.547  24.031  0.00  0.00    -0.244 NA
ATOM     29  C   UNL     1       9.620   4.291  23.942  0.00  0.00    +0.133 A 
ENDBRANCH  23  24
ENDBRANCH  22  23
ENDBRANCH   6  22
TORSDOF 5
ENDMDL
MODEL 5
REMARK VINA RESULT:      -6.3      2.662      7.294
REMARK  Name = 
REMARK  5 active torsions:
REMARK  status: ('A' for Active; 'I' for Inactive)
REMARK    1  A    between atoms: C_2  and  C_3
REMARK    2  A    between atoms: N_7  and  C_8
REMARK    3  A    between atoms: N_16  and  C_17
REMARK    4  A    between atoms: C_17  and  C_18
REMARK    5  A    between atoms: C_18  and  C_19
REMARK                            x       y       z     vdW  Elec       q    Type
REMARK                         _______ _______ _______ _____ _____    ______ ____
ROOT
ATOM      1  C   UNL     1       5.613  -5.844  23.294  0.00  0.00    +0.116 A 
ATOM      2  C   UNL     1       4.775  -6.792  23.920  0.00  0.00    +0.156 A 
ATOM      3  N   UNL     1       4.824  -6.728  25.260  0.00  0.00    -0.169 NA
ATOM      4  N   UNL     1       5.721  -5.732  25.472  0.00  0.00    -0.182 N 
ATOM      5  C   UNL     1       6.085  -5.234  26.731  0.00  0.00    +0.221 A 
ATOM      6  N   UNL     1       5.551  -5.795  27.877  0.00  0.00    -0.313 N 
ATOM      7  H   UNL     1       4.885  -6.553  27.727  0.00  0.00    +0.149 HD
ATOM      8  N   UNL     1       6.912  -4.227  26.775  0.00  0.00    -0.181 NA
ATOM      9  C   UNL     1       7.424  -3.701  25.602  0.00  0.00    +0.224 A 
ATOM     10  N   UNL     1       8.336  -2.702  25.810  0.00  0.00    -0.283 N 
ATOM     11  H   UNL     1       8.614  -2.592  26.772  0.00  0.00    +0.155 HD
ATOM     12  N   UNL     1       7.090  -4.136  24.416  0.00  0.00    -0.194 NA
ATOM     13  C   UNL     1       6.211  -5.162  24.331  0.00  0.00    +0.180 A 
ENDROOT
BRANCH  10  14
ATOM     14  C   UNL     1       9.013  -1.913  24.870  0.00  0.00    +0.034 A 
ATOM     15  C   UNL     1       9.096  -0.528  25.080  0.00  0.00    +0.023 A 
ATOM     16  C   UNL     1       9.827   0.291  24.213  0.00  0.00    +0.002 A 
ATOM     17  C   UNL     1      10.486  -0.264  23.120  0.00  0.00    +0.000 A 
ATOM     18  C   UNL     1      10.410  -1.634  22.892  0.00  0.00    +0.002 A 
ATOM     19  C   UNL     1       9.682  -2.448  23.763  0.00  0.00    +0.023 A 
ENDBRANCH  10  14
BRANCH   1  21
ATOM     20  N   UNL     1       5.980  -5.469  20.760  0.00  0.00    -0.191 NA
ATOM     21  C   UNL     1       5.802  -5.622  21.899  0.00  0.00    +0.104 C 
ENDBRANCH   1  21
BRANCH   6  22
ATOM     22  C   UNL     1       5.372  -4.978  29.069  0.00  0.00    +0.110 C 
BRANCH  22  23
ATOM     23  C   UNL     1       4.008  -4.291  29.136  0.00  0.00    +0.073 C 
BRANCH  23  24
ATOM     24  C   UNL     1       3.805  -3.228  28.114  0.00  0.00    +0.037 A 
ATOM     25  N   UNL     1       4.673  -2.184  27.905  0.00  0.00    -0.348 N 
ATOM     26  H   UNL     1       5.526  -1.991  28.411  0.00  0.00    +0.166 HD
ATOM     27  C   UNL     1       4.173  -1.431  26.880  0.00  0.00    +0.196 A 
ATOM     28  N   UNL     1       3.051  -1.930  26.419  0.00  0.00    -0.244 NA
ATOM     29  C   UNL     1       2.811  -3.046  27.176  0.00  0.00    +0.133 A 
ENDBRANCH  23  24
ENDBRANCH  22  23
ENDBRANCH   6  22
TORSDOF 5
ENDMDL
MODEL 6
REMARK VINA RESULT:      -6.3      3.136      8.401
REMARK  Name = 
REMARK  5 active torsions:
REMARK  status: ('A' for Active; 'I' for Inactive)
REMARK    1  A    between atoms: C_2  and  C_3
REMARK    2  A    between atoms: N_7  and  C_8
REMARK    3  A    between atoms: N_16  and  C_17
REMARK    4  A    between atoms: C_17  and  C_18
REMARK    5  A    between atoms: C_18  and  C_19
REMARK                            x       y       z     vdW  Elec       q    Type
REMARK                         _______ _______ _______ _____ _____    ______ ____
ROOT
ATOM      1  C   UNL     1       6.828   1.129  27.317  0.00  0.00    +0.116 A 
ATOM      2  C   UNL     1       6.089  -0.063  27.479  0.00  0.00    +0.156 A 
ATOM      3  N   UNL     1       6.137  -0.858  26.399  0.00  0.00    -0.169 NA
ATOM      4  N   UNL     1       6.908  -0.142  25.543  0.00  0.00    -0.182 N 
ATOM      5  C   UNL     1       7.309  -0.573  24.270  0.00  0.00    +0.221 A 
ATOM      6  N   UNL     1       6.878  -1.795  23.787  0.00  0.00    -0.313 N 
ATOM      7  H   UNL     1       6.287  -2.335  24.419  0.00  0.00    +0.149 HD
ATOM      8  N   UNL     1       8.107   0.199  23.587  0.00  0.00    -0.181 NA
ATOM      9  C   UNL     1       8.510   1.415  24.109  0.00  0.00    +0.224 A 
ATOM     10  N   UNL     1       9.281   2.146  23.247  0.00  0.00    -0.283 N 
ATOM     11  H   UNL     1       9.324   1.770  22.313  0.00  0.00    +0.155 HD
ATOM     12  N   UNL     1       8.163   1.834  25.298  0.00  0.00    -0.194 NA
ATOM     13  C   UNL     1       7.357   1.046  26.048  0.00  0.00    +0.180 A 
ENDROOT
BRANCH  10  14
ATOM     14  C   UNL     1       9.901   3.386  23.450  0.00  0.00    +0.034 A 
ATOM     15  C   UNL     1      11.297   3.475  23.328  0.00  0.00    +0.023 A 
ATOM     16  C   UNL     1      11.955   4.703  23.443  0.00  0.00    +0.002 A 
ATOM     17  C   UNL     1      11.226   5.864  23.686  0.00  0.00    +0.000 A 
ATOM     18  C   UNL     1       9.843   5.795  23.816  0.00  0.00    +0.002 A 
ATOM     19  C   UNL     1       9.190   4.566  23.696  0.00  0.00    +0.023 A 
ENDBRANCH  10  14
BRANCH   1  21
ATOM     20  N   UNL     1       7.189   3.045  29.018  0.00  0.00    -0.191 NA
ATOM     21  C   UNL     1       7.006   2.188  28.254  0.00  0.00    +0.104 C 
ENDBRANCH   1  21
BRANCH   6  22
ATOM     22  C   UNL     1       7.712  -2.541  22.855  0.00  0.00    +0.110 C 
BRANCH  22  23
ATOM     23  C   UNL     1       7.599  -4.057  23.017  0.00  0.00    +0.073 C 
BRANCH  23  24
ATOM     24  C   UNL     1       7.949  -4.557  24.374  0.00  0.00    +0.037 A 
ATOM     25  N   UNL     1       9.144  -4.305  25.004  0.00  0.00    -0.348 N 
ATOM     26  H   UNL     1       9.926  -3.781  24.637  0.00  0.00    +0.166 HD
ATOM     27  C   UNL     1       9.096  -4.900  26.233  0.00  0.00    +0.196 A 
ATOM     28  N   UNL     1       7.950  -5.507  26.430  0.00  0.00    -0.244 NA
ATOM     29  C   UNL     1       7.229  -5.302  25.284  0.00  0.00    +0.133 A 
ENDBRANCH  23  24
ENDBRANCH  22  23
ENDBRANCH   6  22
TORSDOF 5
ENDMDL
MODEL 7
REMARK VINA RESULT:      -6.2      2.696      3.233
REMARK  Name = 
REMARK  5 active torsions:
REMARK  status: ('A' for Active; 'I' for Inactive)
REMARK    1  A    between atoms: C_2  and  C_3
REMARK    2  A    between atoms: N_7  and  C_8
REMARK    3  A    between atoms: N_16  and  C_17
REMARK    4  A    between atoms: C_17  and  C_18
REMARK    5  A    between atoms: C_18  and  C_19
REMARK                            x       y       z     vdW  Elec       q    Type
REMARK                         _______ _______ _______ _____ _____    ______ ____
ROOT
ATOM      1  C   UNL     1       6.466  -0.529  26.874  0.00  0.00    +0.116 A 
ATOM      2  C   UNL     1       7.375   0.541  26.723  0.00  0.00    +0.156 A 
ATOM      3  N   UNL     1       8.371   0.262  25.867  0.00  0.00    -0.169 NA
ATOM      4  N   UNL     1       8.086  -1.009  25.489  0.00  0.00    -0.182 N 
ATOM      5  C   UNL     1       8.810  -1.748  24.544  0.00  0.00    +0.221 A 
ATOM      6  N   UNL     1       9.935  -1.202  23.954  0.00  0.00    -0.313 N 
ATOM      7  H   UNL     1      10.165  -0.250  24.241  0.00  0.00    +0.149 HD
ATOM      8  N   UNL     1       8.375  -2.937  24.233  0.00  0.00    -0.181 NA
ATOM      9  C   UNL     1       7.246  -3.445  24.851  0.00  0.00    +0.224 A 
ATOM     10  N   UNL     1       6.957  -4.730  24.482  0.00  0.00    -0.283 N 
ATOM     11  H   UNL     1       7.677  -5.172  23.933  0.00  0.00    +0.155 HD
ATOM     12  N   UNL     1       6.544  -2.772  25.725  0.00  0.00    -0.194 NA
ATOM     13  C   UNL     1       6.950  -1.522  26.051  0.00  0.00    +0.180 A 
ENDROOT
BRANCH  10  14
ATOM     14  C   UNL     1       5.876  -5.538  24.859  0.00  0.00    +0.034 A 
ATOM     15  C   UNL     1       4.961  -5.949  23.879  0.00  0.00    +0.023 A 
ATOM     16  C   UNL     1       3.910  -6.819  24.190  0.00  0.00    +0.002 A 
ATOM     17  C   UNL     1       3.759  -7.289  25.492  0.00  0.00    +0.000 A 
ATOM     18  C   UNL     1       4.653  -6.888  26.478  0.00  0.00    +0.002 A 
ATOM     19  C   UNL     1       5.702  -6.022  26.161  0.00  0.00    +0.023 A 
ENDBRANCH  10  14
BRANCH   1  21
ATOM     20  N   UNL     1       4.362  -0.629  28.377  0.00  0.00    -0.191 NA
ATOM     21  C   UNL     1       5.295  -0.581  27.685  0.00  0.00    +0.104 C 
ENDBRANCH   1  21
BRANCH   6  22
ATOM     22  C   UNL     1      10.311  -1.598  22.604  0.00  0.00    +0.110 C 
BRANCH  22  23
ATOM     23  C   UNL     1       9.709  -0.706  21.518  0.00  0.00    +0.073 C 
BRANCH  23  24
ATOM     24  C   UNL     1       9.276   0.635  21.996  0.00  0.00    +0.037 A 
ATOM     25  N   UNL     1       8.008   0.923  22.441  0.00  0.00    -0.348 N 
ATOM     26  H   UNL     1       7.221   0.291  22.485  0.00  0.00    +0.166 HD
ATOM     27  C   UNL     1       7.991   2.237  22.817  0.00  0.00    +0.196 A 
ATOM     28  N   UNL     1       9.163   2.801  22.647  0.00  0.00    -0.244 NA
ATOM     29  C   UNL     1       9.970   1.818  22.138  0.00  0.00    +0.133 A 
ENDBRANCH  23  24
ENDBRANCH  22  23
ENDBRANCH   6  22
TORSDOF 5
ENDMDL
MODEL 8
REMARK VINA RESULT:      -6.2      2.338      4.276
REMARK  Name = 
REMARK  5 active torsions:
REMARK  status: ('A' for Active; 'I' for Inactive)
REMARK    1  A    between atoms: C_2  and  C_3
REMARK    2  A    between atoms: N_7  and  C_8
REMARK    3  A    between atoms: N_16  and  C_17
REMARK    4  A    between atoms: C_17  and  C_18
REMARK    5  A    between atoms: C_18  and  C_19
REMARK                            x       y       z     vdW  Elec       q    Type
REMARK                         _______ _______ _______ _____ _____    ______ ____
ROOT
ATOM      1  C   UNL     1       3.877  -5.745  29.212  0.00  0.00    +0.116 A 
ATOM      2  C   UNL     1       4.993  -5.458  30.029  0.00  0.00    +0.156 A 
ATOM      3  N   UNL     1       6.153  -5.481  29.353  0.00  0.00    -0.169 NA
ATOM      4  N   UNL     1       5.754  -5.801  28.097  0.00  0.00    -0.182 N 
ATOM      5  C   UNL     1       6.601  -5.895  26.984  0.00  0.00    +0.221 A 
ATOM      6  N   UNL     1       7.962  -5.698  27.133  0.00  0.00    -0.313 N 
ATOM      7  H   UNL     1       8.273  -5.468  28.077  0.00  0.00    +0.149 HD
ATOM      8  N   UNL     1       6.062  -6.148  25.824  0.00  0.00    -0.181 NA
ATOM      9  C   UNL     1       4.696  -6.342  25.723  0.00  0.00    +0.224 A 
ATOM     10  N   UNL     1       4.288  -6.675  24.461  0.00  0.00    -0.283 N 
ATOM     11  H   UNL     1       5.042  -6.874  23.823  0.00  0.00    +0.155 HD
ATOM     12  N   UNL     1       3.882  -6.246  26.741  0.00  0.00    -0.194 NA
ATOM     13  C   UNL     1       4.403  -5.956  27.957  0.00  0.00    +0.180 A 
ENDROOT
BRANCH  10  14
ATOM     14  C   UNL     1       2.990  -6.893  23.979  0.00  0.00    +0.034 A 
ATOM     15  C   UNL     1       2.357  -5.875  23.248  0.00  0.00    +0.023 A 
ATOM     16  C   UNL     1       1.095  -6.072  22.680  0.00  0.00    +0.002 A 
ATOM     17  C   UNL     1       0.443  -7.293  22.836  0.00  0.00    +0.000 A 
ATOM     18  C   UNL     1       1.052  -8.311  23.563  0.00  0.00    +0.002 A 
ATOM     19  C   UNL     1       2.314  -8.110  24.125  0.00  0.00    +0.023 A 
ENDBRANCH  10  14
BRANCH   1  21
ATOM     20  N   UNL     1       1.377  -5.868  29.871  0.00  0.00    -0.191 NA
ATOM     21  C   UNL     1       2.503  -5.796  29.588  0.00  0.00    +0.104 C 
ENDBRANCH   1  21
BRANCH   6  22
ATOM     22  C   UNL     1       8.742  -5.161  26.027  0.00  0.00    +0.110 C 
BRANCH  22  23
ATOM     23  C   UNL     1       8.749  -3.633  25.971  0.00  0.00    +0.073 C 
BRANCH  23  24
ATOM     24  C   UNL     1       8.760  -3.070  24.594  0.00  0.00    +0.037 A 
ATOM     25  N   UNL     1       9.690  -2.167  24.138  0.00  0.00    -0.348 N 
ATOM     26  H   UNL     1      10.454  -1.763  24.662  0.00  0.00    +0.166 HD
ATOM     27  C   UNL     1       9.397  -1.899  22.830  0.00  0.00    +0.196 A 
ATOM     28  N   UNL     1       8.349  -2.574  22.423  0.00  0.00    -0.244 NA
ATOM     29  C   UNL     1       7.943  -3.305  23.508  0.00  0.00    +0.133 A 
ENDBRANCH  23  24
ENDBRANCH  22  23
ENDBRANCH   6  22
TORSDOF 5
ENDMDL
MODEL 9
REMARK VINA RESULT:      -6.1      3.573      7.093
REMARK  Name = 
REMARK  5 active torsions:
REMARK  status: ('A' for Active; 'I' for Inactive)
REMARK    1  A    between atoms: C_2  and  C_3
REMARK    2  A    between atoms: N_7  and  C_8
REMARK    3  A    between atoms: N_16  and  C_17
REMARK    4  A    between atoms: C_17  and  C_18
REMARK    5  A    between atoms: C_18  and  C_19
REMARK                            x       y       z     vdW  Elec       q    Type
REMARK                         _______ _______ _______ _____ _____    ______ ____
ROOT
ATOM      1  C   UNL     1       9.310   1.759  23.023  0.00  0.00    +0.116 A 
ATOM      2  C   UNL     1       9.818   1.140  21.860  0.00  0.00    +0.156 A 
ATOM      3  N   UNL     1       9.486  -0.158  21.773  0.00  0.00    -0.169 NA
ATOM      4  N   UNL     1       8.771  -0.354  22.908  0.00  0.00    -0.182 N 
ATOM      5  C   UNL     1       8.142  -1.556  23.264  0.00  0.00    +0.221 A 
ATOM      6  N   UNL     1       8.266  -2.667  22.451  0.00  0.00    -0.313 N 
ATOM      7  H   UNL     1       8.813  -2.532  21.600  0.00  0.00    +0.149 HD
ATOM      8  N   UNL     1       7.433  -1.574  24.357  0.00  0.00    -0.181 NA
ATOM      9  C   UNL     1       7.340  -0.438  25.142  0.00  0.00    +0.224 A 
ATOM     10  N   UNL     1       6.628  -0.632  26.294  0.00  0.00    -0.283 N 
ATOM     11  H   UNL     1       6.399  -1.596  26.480  0.00  0.00    +0.155 HD
ATOM     12  N   UNL     1       7.904   0.698  24.826  0.00  0.00    -0.194 NA
ATOM     13  C   UNL     1       8.625   0.763  23.683  0.00  0.00    +0.180 A 
ENDROOT
BRANCH  10  14
ATOM     14  C   UNL     1       6.289   0.292  27.291  0.00  0.00    +0.034 A 
ATOM     15  C   UNL     1       4.967   0.756  27.366  0.00  0.00    +0.023 A 
ATOM     16  C   UNL     1       4.560   1.618  28.389  0.00  0.00    +0.002 A 
ATOM     17  C   UNL     1       5.474   2.032  29.355  0.00  0.00    +0.000 A 
ATOM     18  C   UNL     1       6.791   1.589  29.293  0.00  0.00    +0.002 A 
ATOM     19  C   UNL     1       7.190   0.725  28.271  0.00  0.00    +0.023 A 
ENDBRANCH  10  14
BRANCH   1  21
ATOM     20  N   UNL     1       9.596   4.231  23.735  0.00  0.00    -0.191 NA
ATOM     21  C   UNL     1       9.456   3.117  23.432  0.00  0.00    +0.104 C 
ENDBRANCH   1  21
BRANCH   6  22
ATOM     22  C   UNL     1       7.197  -3.654  22.405  0.00  0.00    +0.110 C 
BRANCH  22  23
ATOM     23  C   UNL     1       7.568  -4.985  23.061  0.00  0.00    +0.073 C 
BRANCH  23  24
ATOM     24  C   UNL     1       7.967  -4.873  24.490  0.00  0.00    +0.037 A 
ATOM     25  N   UNL     1       7.107  -4.535  25.507  0.00  0.00    -0.348 N 
ATOM     26  H   UNL     1       6.126  -4.307  25.424  0.00  0.00    +0.166 HD
ATOM     27  C   UNL     1       7.818  -4.557  26.674  0.00  0.00    +0.196 A 
ATOM     28  N   UNL     1       9.070  -4.891  26.468  0.00  0.00    -0.244 NA
ATOM     29  C   UNL     1       9.176  -5.090  25.117  0.00  0.00    +0.133 A 
ENDBRANCH  23  24
ENDBRANCH  22  23
ENDBRANCH   6  22
TORSDOF 5
ENDMDL
