MODEL 1
REMARK VINA RESULT:      -7.5      0.000      0.000
REMARK  Name = 
REMARK  5 active torsions:
REMARK  status: ('A' for Active; 'I' for Inactive)
REMARK    1  A    between atoms: O_1  and  C_2
REMARK    2  A    between atoms: C_5  and  N_6
REMARK    3  A    between atoms: C_9  and  O_10
REMARK    4  A    between atoms: O_10  and  C_11
REMARK    5  A    between atoms: C_11  and  C_12
REMARK                            x       y       z     vdW  Elec       q    Type
REMARK                         _______ _______ _______ _____ _____    ______ ____
ROOT
ATOM      1  N   UNL     1       9.739  -2.675  24.115  0.00  0.00    -0.283 N 
ATOM      2  H   UNL     1      10.368  -2.847  24.884  0.00  0.00    +0.155 HD
ATOM      3  C   UNL     1       8.621  -3.514  24.162  0.00  0.00    +0.225 A 
ATOM      4  N   UNL     1       7.812  -3.518  23.082  0.00  0.00    -0.195 NA
ATOM      5  C   UNL     1       6.787  -4.354  23.199  0.00  0.00    +0.167 A 
ATOM      6  C   UNL     1       6.477  -5.163  24.270  0.00  0.00    +0.169 A 
ATOM      7  N   UNL     1       5.323  -5.874  24.014  0.00  0.00    -0.229 NA
ATOM      8  C   UNL     1       4.957  -5.506  22.804  0.00  0.00    +0.199 A 
ATOM      9  C   UNL     1       7.367  -5.099  25.341  0.00  0.00    +0.248 A 
ATOM     10  N   UNL     1       5.825  -4.598  22.264  0.00  0.00    -0.329 N 
ATOM     11  H   UNL     1       5.786  -4.183  21.346  0.00  0.00    +0.168 HD
ATOM     12  N   UNL     1       8.459  -4.282  25.273  0.00  0.00    -0.177 NA
ENDROOT
BRANCH   1  16
ATOM     13  C   UNL     1      10.007   1.067  22.185  0.00  0.00    +0.117 A 
ATOM     14  C   UNL     1       9.648  -0.067  21.465  0.00  0.00    +0.047 A 
ATOM     15  C   UNL     1       9.577  -1.309  22.111  0.00  0.00    +0.027 A 
ATOM     16  C   UNL     1       9.859  -1.425  23.478  0.00  0.00    +0.034 A 
ATOM     17  C   UNL     1      10.193  -0.256  24.181  0.00  0.00    +0.027 A 
ATOM     18  C   UNL     1      10.279   0.984  23.542  0.00  0.00    +0.047 A 
BRANCH  13  19
ATOM     19  O   UNL     1      10.083   2.254  21.518  0.00  0.00    -0.507 OA
ATOM     20  H   UNL     1      10.778   2.184  20.842  0.00  0.00    +0.292 HD
ENDBRANCH  13  19
ENDBRANCH   1  16
BRANCH   9  21
ATOM     21  O   UNL     1       7.200  -5.971  26.392  0.00  0.00    -0.475 OA
BRANCH  21  22
ATOM     22  C   UNL     1       6.982  -5.377  27.671  0.00  0.00    +0.234 C 
BRANCH  22  23
ATOM     23  C   UNL     1       5.978  -6.292  28.414  0.00  0.00    +0.027 C 
ATOM     24  C   UNL     1       4.777  -6.702  27.551  0.00  0.00    +0.007 C 
ATOM     25  C   UNL     1       3.785  -5.562  27.327  0.00  0.00    +0.000 C 
ATOM     26  C   UNL     1       3.338  -4.923  28.639  0.00  0.00    +0.000 C 
ATOM     27  C   UNL     1       4.517  -4.514  29.517  0.00  0.00    +0.000 C 
ATOM     28  C   UNL     1       5.486  -5.672  29.736  0.00  0.00    +0.007 C 
ENDBRANCH  22  23
ENDBRANCH  21  22
ENDBRANCH   9  21
TORSDOF 5
ENDMDL
MODEL 2
REMARK VINA RESULT:      -7.3      3.631      5.769
REMARK  Name = 
REMARK  5 active torsions:
REMARK  status: ('A' for Active; 'I' for Inactive)
REMARK    1  A    between atoms: O_1  and  C_2
REMARK    2  A    between atoms: C_5  and  N_6
REMARK    3  A    between atoms: C_9  and  O_10
REMARK    4  A    between atoms: O_10  and  C_11
REMARK    5  A    between atoms: C_11  and  C_12
REMARK                            x       y       z     vdW  Elec       q    Type
REMARK                         _______ _______ _______ _____ _____    ______ ____
ROOT
ATOM      1  N   UNL     1       8.603   3.025  23.299  0.00  0.00    -0.283 N 
ATOM      2  H   UNL     1       8.086   3.175  22.446  0.00  0.00    +0.155 HD
ATOM      3  C   UNL     1       8.390   1.742  23.816  0.00  0.00    +0.225 A 
ATOM      4  N   UNL     1       8.865   1.494  25.054  0.00  0.00    -0.195 NA
ATOM      5  C   UNL     1       8.604   0.262  25.477  0.00  0.00    +0.167 A 
ATOM      6  C   UNL     1       7.945  -0.740  24.799  0.00  0.00    +0.169 A 
ATOM      7  N   UNL     1       7.888  -1.882  25.571  0.00  0.00    -0.229 NA
ATOM      8  C   UNL     1       8.492  -1.564  26.696  0.00  0.00    +0.199 A 
ATOM      9  C   UNL     1       7.485  -0.396  23.529  0.00  0.00    +0.248 A 
ATOM     10  N   UNL     1       8.927  -0.268  26.691  0.00  0.00    -0.329 N 
ATOM     11  H   UNL     1       9.393   0.227  27.437  0.00  0.00    +0.168 HD
ATOM     12  N   UNL     1       7.693   0.864  23.046  0.00  0.00    -0.177 NA
ENDROOT
BRANCH   1  16
ATOM     13  C   UNL     1      11.909   5.580  23.881  0.00  0.00    +0.117 A 
ATOM     14  C   UNL     1      12.097   4.295  23.384  0.00  0.00    +0.047 A 
ATOM     15  C   UNL     1      10.995   3.447  23.209  0.00  0.00    +0.027 A 
ATOM     16  C   UNL     1       9.699   3.878  23.523  0.00  0.00    +0.034 A 
ATOM     17  C   UNL     1       9.542   5.191  23.999  0.00  0.00    +0.027 A 
ATOM     18  C   UNL     1      10.638   6.038  24.188  0.00  0.00    +0.047 A 
BRANCH  13  19
ATOM     19  O   UNL     1      13.007   6.369  24.054  0.00  0.00    -0.507 OA
ATOM     20  H   UNL     1      13.649   6.163  23.353  0.00  0.00    +0.292 HD
ENDBRANCH  13  19
ENDBRANCH   1  16
BRANCH   9  21
ATOM     21  O   UNL     1       6.705  -1.298  22.841  0.00  0.00    -0.475 OA
BRANCH  21  22
ATOM     22  C   UNL     1       7.380  -2.440  22.317  0.00  0.00    +0.234 C 
BRANCH  22  23
ATOM     23  C   UNL     1       6.280  -3.457  21.925  0.00  0.00    +0.027 C 
ATOM     24  C   UNL     1       5.125  -3.522  22.933  0.00  0.00    +0.007 C 
ATOM     25  C   UNL     1       5.506  -4.223  24.235  0.00  0.00    +0.000 C 
ATOM     26  C   UNL     1       6.108  -5.604  23.989  0.00  0.00    +0.000 C 
ATOM     27  C   UNL     1       7.255  -5.565  22.983  0.00  0.00    +0.000 C 
ATOM     28  C   UNL     1       6.846  -4.871  21.687  0.00  0.00    +0.007 C 
ENDBRANCH  22  23
ENDBRANCH  21  22
ENDBRANCH   9  21
TORSDOF 5
ENDMDL
MODEL 3
REMARK VINA RESULT:      -7.2      1.302      1.962
REMARK  Name = 
REMARK  5 active torsions:
REMARK  status: ('A' for Active; 'I' for Inactive)
REMARK    1  A    between atoms: O_1  and  C_2
REMARK    2  A    between atoms: C_5  and  N_6
REMARK    3  A    between atoms: C_9  and  O_10
REMARK    4  A    between atoms: O_10  and  C_11
REMARK    5  A    between atoms: C_11  and  C_12
REMARK                            x       y       z     vdW  Elec       q    Type
REMARK                         _______ _______ _______ _____ _____    ______ ____
ROOT
ATOM      1  N   UNL     1       9.822  -1.410  24.174  0.00  0.00    -0.283 N 
ATOM      2  H   UNL     1      10.449  -1.543  24.954  0.00  0.00    +0.155 HD
ATOM      3  C   UNL     1       8.970  -2.506  24.000  0.00  0.00    +0.225 A 
ATOM      4  N   UNL     1       8.229  -2.533  22.873  0.00  0.00    -0.195 NA
ATOM      5  C   UNL     1       7.464  -3.615  22.776  0.00  0.00    +0.167 A 
ATOM      6  C   UNL     1       7.349  -4.649  23.678  0.00  0.00    +0.169 A 
ATOM      7  N   UNL     1       6.438  -5.581  23.224  0.00  0.00    -0.229 NA
ATOM      8  C   UNL     1       6.027  -5.117  22.063  0.00  0.00    +0.199 A 
ATOM      9  C   UNL     1       8.152  -4.542  24.812  0.00  0.00    +0.248 A 
ATOM     10  N   UNL     1       6.635  -3.935  21.743  0.00  0.00    -0.329 N 
ATOM     11  H   UNL     1       6.516  -3.392  20.901  0.00  0.00    +0.168 HD
ATOM     12  N   UNL     1       8.985  -3.470  24.960  0.00  0.00    -0.177 NA
ENDROOT
BRANCH   1  16
ATOM     13  C   UNL     1       9.271   2.601  22.987  0.00  0.00    +0.117 A 
ATOM     14  C   UNL     1       8.800   2.166  24.220  0.00  0.00    +0.047 A 
ATOM     15  C   UNL     1       8.973   0.828  24.600  0.00  0.00    +0.027 A 
ATOM     16  C   UNL     1       9.622  -0.082  23.754  0.00  0.00    +0.034 A 
ATOM     17  C   UNL     1      10.108   0.397  22.527  0.00  0.00    +0.027 A 
ATOM     18  C   UNL     1       9.928   1.727  22.135  0.00  0.00    +0.047 A 
BRANCH  13  19
ATOM     19  O   UNL     1       9.069   3.905  22.645  0.00  0.00    -0.507 OA
ATOM     20  H   UNL     1       9.934   4.341  22.568  0.00  0.00    +0.292 HD
ENDBRANCH  13  19
ENDBRANCH   1  16
BRANCH   9  21
ATOM     21  O   UNL     1       8.192  -5.596  25.697  0.00  0.00    -0.475 OA
BRANCH  21  22
ATOM     22  C   UNL     1       7.592  -5.368  26.971  0.00  0.00    +0.234 C 
BRANCH  22  23
ATOM     23  C   UNL     1       6.094  -5.080  26.705  0.00  0.00    +0.027 C 
ATOM     24  C   UNL     1       5.476  -4.100  27.712  0.00  0.00    +0.007 C 
ATOM     25  C   UNL     1       5.256  -4.719  29.090  0.00  0.00    +0.000 C 
ATOM     26  C   UNL     1       4.458  -6.018  29.016  0.00  0.00    +0.000 C 
ATOM     27  C   UNL     1       5.051  -7.006  28.014  0.00  0.00    +0.000 C 
ATOM     28  C   UNL     1       5.250  -6.367  26.643  0.00  0.00    +0.007 C 
ENDBRANCH  22  23
ENDBRANCH  21  22
ENDBRANCH   9  21
TORSDOF 5
ENDMDL
MODEL 4
REMARK VINA RESULT:      -7.1      2.477      3.684
REMARK  Name = 
REMARK  5 active torsions:
REMARK  status: ('A' for Active; 'I' for Inactive)
REMARK    1  A    between atoms: O_1  and  C_2
REMARK    2  A    between atoms: C_5  and  N_6
REMARK    3  A    between atoms: C_9  and  O_10
REMARK    4  A    between atoms: O_10  and  C_11
REMARK    5  A    between atoms: C_11  and  C_12
REMARK                            x       y       z     vdW  Elec       q    Type
REMARK                         _______ _______ _______ _____ _____    ______ ____
ROOT
ATOM      1  N   UNL     1       7.294  -0.176  23.067  0.00  0.00    -0.283 N 
ATOM      2  H   UNL     1       6.447   0.021  22.555  0.00  0.00    +0.155 HD
ATOM      3  C   UNL     1       7.452  -1.547  23.299  0.00  0.00    +0.225 A 
ATOM      4  N   UNL     1       8.436  -1.916  24.145  0.00  0.00    -0.195 NA
ATOM      5  C   UNL     1       8.505  -3.230  24.326  0.00  0.00    +0.167 A 
ATOM      6  C   UNL     1       7.719  -4.202  23.749  0.00  0.00    +0.169 A 
ATOM      7  N   UNL     1       8.113  -5.453  24.178  0.00  0.00    -0.229 NA
ATOM      8  C   UNL     1       9.109  -5.230  25.009  0.00  0.00    +0.199 A 
ATOM      9  C   UNL     1       6.725  -3.733  22.891  0.00  0.00    +0.248 A 
ATOM     10  N   UNL     1       9.371  -3.895  25.142  0.00  0.00    -0.329 N 
ATOM     11  H   UNL     1      10.062  -3.461  25.735  0.00  0.00    +0.168 HD
ATOM     12  N   UNL     1       6.580  -2.391  22.685  0.00  0.00    -0.177 NA
ENDROOT
BRANCH   1  16
ATOM     13  C   UNL     1      10.321   2.763  23.040  0.00  0.00    +0.117 A 
ATOM     14  C   UNL     1       9.444   2.672  24.115  0.00  0.00    +0.047 A 
ATOM     15  C   UNL     1       8.431   1.703  24.109  0.00  0.00    +0.027 A 
ATOM     16  C   UNL     1       8.291   0.817  23.032  0.00  0.00    +0.034 A 
ATOM     17  C   UNL     1       9.209   0.920  21.975  0.00  0.00    +0.027 A 
ATOM     18  C   UNL     1      10.214   1.892  21.967  0.00  0.00    +0.047 A 
BRANCH  13  19
ATOM     19  O   UNL     1      11.281   3.730  23.075  0.00  0.00    -0.507 OA
ATOM     20  H   UNL     1      12.140   3.318  22.879  0.00  0.00    +0.292 HD
ENDBRANCH  13  19
ENDBRANCH   1  16
BRANCH   9  21
ATOM     21  O   UNL     1       5.816  -4.630  22.378  0.00  0.00    -0.475 OA
BRANCH  21  22
ATOM     22  C   UNL     1       4.478  -4.509  22.856  0.00  0.00    +0.234 C 
BRANCH  22  23
ATOM     23  C   UNL     1       3.952  -5.951  23.061  0.00  0.00    +0.027 C 
ATOM     24  C   UNL     1       2.446  -6.012  23.351  0.00  0.00    +0.007 C 
ATOM     25  C   UNL     1       2.088  -5.532  24.755  0.00  0.00    +0.000 C 
ATOM     26  C   UNL     1       2.893  -6.255  25.832  0.00  0.00    +0.000 C 
ATOM     27  C   UNL     1       4.394  -6.213  25.561  0.00  0.00    +0.000 C 
ATOM     28  C   UNL     1       4.727  -6.708  24.156  0.00  0.00    +0.007 C 
ENDBRANCH  22  23
ENDBRANCH  21  22
ENDBRANCH   9  21
TORSDOF 5
ENDMDL
MODEL 5
REMARK VINA RESULT:      -7.0      2.656      7.922
REMARK  Name = 
REMARK  5 active torsions:
REMARK  status: ('A' for Active; 'I' for Inactive)
REMARK    1  A    between atoms: O_1  and  C_2
REMARK    2  A    between atoms: C_5  and  N_6
REMARK    3  A    between atoms: C_9  and  O_10
REMARK    4  A    between atoms: O_10  and  C_11
REMARK    5  A    between atoms: C_11  and  C_12
REMARK                            x       y       z     vdW  Elec       q    Type
REMARK                         _______ _______ _______ _____ _____    ______ ____
ROOT
ATOM      1  N   UNL     1       4.595  -4.657  23.340  0.00  0.00    -0.283 N 
ATOM      2  H   UNL     1       4.304  -4.186  22.497  0.00  0.00    +0.155 HD
ATOM      3  C   UNL     1       5.948  -4.438  23.617  0.00  0.00    +0.225 A 
ATOM      4  N   UNL     1       6.501  -5.176  24.602  0.00  0.00    -0.195 NA
ATOM      5  C   UNL     1       7.791  -4.921  24.786  0.00  0.00    +0.167 A 
ATOM      6  C   UNL     1       8.574  -4.010  24.114  0.00  0.00    +0.169 A 
ATOM      7  N   UNL     1       9.863  -4.030  24.607  0.00  0.00    -0.229 NA
ATOM      8  C   UNL     1       9.852  -4.949  25.549  0.00  0.00    +0.199 A 
ATOM      9  C   UNL     1       7.925  -3.293  23.110  0.00  0.00    +0.248 A 
ATOM     10  N   UNL     1       8.621  -5.528  25.681  0.00  0.00    -0.329 N 
ATOM     11  H   UNL     1       8.357  -6.273  26.309  0.00  0.00    +0.168 HD
ATOM     12  N   UNL     1       6.606  -3.528  22.848  0.00  0.00    -0.177 NA
ENDROOT
BRANCH   1  16
ATOM     13  C   UNL     1       1.591  -5.782  26.082  0.00  0.00    +0.117 A 
ATOM     14  C   UNL     1       2.118  -6.718  25.199  0.00  0.00    +0.047 A 
ATOM     15  C   UNL     1       3.104  -6.332  24.280  0.00  0.00    +0.027 A 
ATOM     16  C   UNL     1       3.574  -5.012  24.242  0.00  0.00    +0.034 A 
ATOM     17  C   UNL     1       3.038  -4.099  25.165  0.00  0.00    +0.027 A 
ATOM     18  C   UNL     1       2.046  -4.472  26.075  0.00  0.00    +0.047 A 
BRANCH  13  19
ATOM     19  O   UNL     1       0.621  -6.191  26.948  0.00  0.00    -0.507 OA
ATOM     20  H   UNL     1       0.393  -5.446  27.529  0.00  0.00    +0.292 HD
ENDBRANCH  13  19
ENDBRANCH   1  16
BRANCH   9  21
ATOM     21  O   UNL     1       8.668  -2.458  22.306  0.00  0.00    -0.475 OA
BRANCH  21  22
ATOM     22  C   UNL     1       8.437  -1.060  22.471  0.00  0.00    +0.234 C 
BRANCH  22  23
ATOM     23  C   UNL     1       9.827  -0.378  22.432  0.00  0.00    +0.027 C 
ATOM     24  C   UNL     1      10.504  -0.303  23.807  0.00  0.00    +0.007 C 
ATOM     25  C   UNL     1       9.867   0.732  24.732  0.00  0.00    +0.000 C 
ATOM     26  C   UNL     1       9.778   2.109  24.078  0.00  0.00    +0.000 C 
ATOM     27  C   UNL     1       9.114   2.057  22.705  0.00  0.00    +0.000 C 
ATOM     28  C   UNL     1       9.775   1.025  21.797  0.00  0.00    +0.007 C 
ENDBRANCH  22  23
ENDBRANCH  21  22
ENDBRANCH   9  21
TORSDOF 5
ENDMDL
MODEL 6
REMARK VINA RESULT:      -6.9      1.961      7.865
REMARK  Name = 
REMARK  5 active torsions:
REMARK  status: ('A' for Active; 'I' for Inactive)
REMARK    1  A    between atoms: O_1  and  C_2
REMARK    2  A    between atoms: C_5  and  N_6
REMARK    3  A    between atoms: C_9  and  O_10
REMARK    4  A    between atoms: O_10  and  C_11
REMARK    5  A    between atoms: C_11  and  C_12
REMARK                            x       y       z     vdW  Elec       q    Type
REMARK                         _______ _______ _______ _____ _____    ______ ____
ROOT
ATOM      1  N   UNL     1       5.558  -3.846  26.584  0.00  0.00    -0.283 N 
ATOM      2  H   UNL     1       5.924  -2.975  26.938  0.00  0.00    +0.155 HD
ATOM      3  C   UNL     1       6.026  -4.119  25.294  0.00  0.00    +0.225 A 
ATOM      4  N   UNL     1       5.451  -5.148  24.638  0.00  0.00    -0.195 NA
ATOM      5  C   UNL     1       5.937  -5.327  23.416  0.00  0.00    +0.167 A 
ATOM      6  C   UNL     1       6.933  -4.610  22.792  0.00  0.00    +0.169 A 
ATOM      7  N   UNL     1       7.166  -5.113  21.528  0.00  0.00    -0.229 NA
ATOM      8  C   UNL     1       6.312  -6.106  21.394  0.00  0.00    +0.199 A 
ATOM      9  C   UNL     1       7.470  -3.562  23.539  0.00  0.00    +0.248 A 
ATOM     10  N   UNL     1       5.535  -6.261  22.508  0.00  0.00    -0.329 N 
ATOM     11  H   UNL     1       4.791  -6.928  22.649  0.00  0.00    +0.168 HD
ATOM     12  N   UNL     1       6.993  -3.305  24.793  0.00  0.00    -0.177 NA
ENDROOT
BRANCH   1  16
ATOM     13  C   UNL     1       4.170  -6.535  29.524  0.00  0.00    +0.117 A 
ATOM     14  C   UNL     1       5.533  -6.413  29.275  0.00  0.00    +0.047 A 
ATOM     15  C   UNL     1       5.984  -5.529  28.285  0.00  0.00    +0.027 A 
ATOM     16  C   UNL     1       5.080  -4.758  27.543  0.00  0.00    +0.034 A 
ATOM     17  C   UNL     1       3.713  -4.887  27.838  0.00  0.00    +0.027 A 
ATOM     18  C   UNL     1       3.253  -5.775  28.814  0.00  0.00    +0.047 A 
BRANCH  13  19
ATOM     19  O   UNL     1       3.769  -7.418  30.482  0.00  0.00    -0.507 OA
ATOM     20  H   UNL     1       4.482  -8.062  30.625  0.00  0.00    +0.292 HD
ENDBRANCH  13  19
ENDBRANCH   1  16
BRANCH   9  21
ATOM     21  O   UNL     1       8.376  -2.718  22.939  0.00  0.00    -0.475 OA
BRANCH  21  22
ATOM     22  C   UNL     1       8.624  -1.485  23.613  0.00  0.00    +0.234 C 
BRANCH  22  23
ATOM     23  C   UNL     1       9.964  -0.943  23.055  0.00  0.00    +0.027 C 
ATOM     24  C   UNL     1      10.615   0.112  23.961  0.00  0.00    +0.007 C 
ATOM     25  C   UNL     1       9.895   1.458  23.926  0.00  0.00    +0.000 C 
ATOM     26  C   UNL     1       9.719   1.978  22.501  0.00  0.00    +0.000 C 
ATOM     27  C   UNL     1       9.079   0.943  21.581  0.00  0.00    +0.000 C 
ATOM     28  C   UNL     1       9.823  -0.388  21.625  0.00  0.00    +0.007 C 
ENDBRANCH  22  23
ENDBRANCH  21  22
ENDBRANCH   9  21
TORSDOF 5
ENDMDL
MODEL 7
REMARK VINA RESULT:      -6.9      2.902      7.894
REMARK  Name = 
REMARK  5 active torsions:
REMARK  status: ('A' for Active; 'I' for Inactive)
REMARK    1  A    between atoms: O_1  and  C_2
REMARK    2  A    between atoms: C_5  and  N_6
REMARK    3  A    between atoms: C_9  and  O_10
REMARK    4  A    between atoms: O_10  and  C_11
REMARK    5  A    between atoms: C_11  and  C_12
REMARK                            x       y       z     vdW  Elec       q    Type
REMARK                         _______ _______ _______ _____ _____    ______ ____
ROOT
ATOM      1  N   UNL     1       7.728  -4.314  25.342  0.00  0.00    -0.283 N 
ATOM      2  H   UNL     1       8.630  -4.530  24.946  0.00  0.00    +0.155 HD
ATOM      3  C   UNL     1       7.641  -2.975  25.735  0.00  0.00    +0.225 A 
ATOM      4  N   UNL     1       6.561  -2.617  26.460  0.00  0.00    -0.195 NA
ATOM      5  C   UNL     1       6.566  -1.335  26.809  0.00  0.00    +0.167 A 
ATOM      6  C   UNL     1       7.511  -0.382  26.502  0.00  0.00    +0.169 A 
ATOM      7  N   UNL     1       7.150   0.839  27.034  0.00  0.00    -0.229 NA
ATOM      8  C   UNL     1       6.015   0.615  27.661  0.00  0.00    +0.199 A 
ATOM      9  C   UNL     1       8.595  -0.838  25.753  0.00  0.00    +0.248 A 
ATOM     10  N   UNL     1       5.631  -0.693  27.565  0.00  0.00    -0.329 N 
ATOM     11  H   UNL     1       4.818  -1.126  27.977  0.00  0.00    +0.168 HD
ATOM     12  N   UNL     1       8.667  -2.152  25.387  0.00  0.00    -0.177 NA
ENDROOT
BRANCH   1  16
ATOM     13  C   UNL     1       4.516  -6.888  24.413  0.00  0.00    +0.117 A 
ATOM     14  C   UNL     1       4.908  -6.707  25.735  0.00  0.00    +0.047 A 
ATOM     15  C   UNL     1       5.986  -5.863  26.033  0.00  0.00    +0.027 A 
ATOM     16  C   UNL     1       6.676  -5.191  25.016  0.00  0.00    +0.034 A 
ATOM     17  C   UNL     1       6.238  -5.376  23.694  0.00  0.00    +0.027 A 
ATOM     18  C   UNL     1       5.172  -6.226  23.387  0.00  0.00    +0.047 A 
BRANCH  13  19
ATOM     19  O   UNL     1       3.475  -7.731  24.161  0.00  0.00    -0.507 OA
ATOM     20  H   UNL     1       3.303  -7.731  23.204  0.00  0.00    +0.292 HD
ENDBRANCH  13  19
ENDBRANCH   1  16
BRANCH   9  21
ATOM     21  O   UNL     1       9.645   0.021  25.516  0.00  0.00    -0.475 OA
BRANCH  21  22
ATOM     22  C   UNL     1      10.118   0.076  24.172  0.00  0.00    +0.234 C 
BRANCH  22  23
ATOM     23  C   UNL     1      10.198   1.577  23.796  0.00  0.00    +0.027 C 
ATOM     24  C   UNL     1       9.045   2.408  24.375  0.00  0.00    +0.007 C 
ATOM     25  C   UNL     1       7.714   2.158  23.669  0.00  0.00    +0.000 C 
ATOM     26  C   UNL     1       7.824   2.334  22.157  0.00  0.00    +0.000 C 
ATOM     27  C   UNL     1       8.969   1.521  21.561  0.00  0.00    +0.000 C 
ATOM     28  C   UNL     1      10.289   1.797  22.274  0.00  0.00    +0.007 C 
ENDBRANCH  22  23
ENDBRANCH  21  22
ENDBRANCH   9  21
TORSDOF 5
ENDMDL
MODEL 8
REMARK VINA RESULT:      -6.8      1.937      2.686
REMARK  Name = 
REMARK  5 active torsions:
REMARK  status: ('A' for Active; 'I' for Inactive)
REMARK    1  A    between atoms: O_1  and  C_2
REMARK    2  A    between atoms: C_5  and  N_6
REMARK    3  A    between atoms: C_9  and  O_10
REMARK    4  A    between atoms: O_10  and  C_11
REMARK    5  A    between atoms: C_11  and  C_12
REMARK                            x       y       z     vdW  Elec       q    Type
REMARK                         _______ _______ _______ _____ _____    ______ ____
ROOT
ATOM      1  N   UNL     1       7.136  -1.035  24.294  0.00  0.00    -0.283 N 
ATOM      2  H   UNL     1       6.637  -0.627  25.069  0.00  0.00    +0.155 HD
ATOM      3  C   UNL     1       6.501  -2.187  23.817  0.00  0.00    +0.225 A 
ATOM      4  N   UNL     1       7.176  -2.932  22.917  0.00  0.00    -0.195 NA
ATOM      5  C   UNL     1       6.512  -4.016  22.532  0.00  0.00    +0.167 A 
ATOM      6  C   UNL     1       5.258  -4.421  22.929  0.00  0.00    +0.169 A 
ATOM      7  N   UNL     1       4.909  -5.594  22.291  0.00  0.00    -0.229 NA
ATOM      8  C   UNL     1       5.945  -5.891  21.535  0.00  0.00    +0.199 A 
ATOM      9  C   UNL     1       4.633  -3.595  23.862  0.00  0.00    +0.248 A 
ATOM     10  N   UNL     1       6.948  -4.971  21.662  0.00  0.00    -0.329 N 
ATOM     11  H   UNL     1       7.852  -4.982  21.215  0.00  0.00    +0.168 HD
ATOM     12  N   UNL     1       5.273  -2.481  24.324  0.00  0.00    -0.177 NA
ENDROOT
BRANCH   1  16
ATOM     13  C   UNL     1       9.743   1.583  22.257  0.00  0.00    +0.117 A 
ATOM     14  C   UNL     1       8.392   1.547  21.930  0.00  0.00    +0.047 A 
ATOM     15  C   UNL     1       7.536   0.662  22.600  0.00  0.00    +0.027 A 
ATOM     16  C   UNL     1       8.021  -0.186  23.604  0.00  0.00    +0.034 A 
ATOM     17  C   UNL     1       9.386  -0.105  23.927  0.00  0.00    +0.027 A 
ATOM     18  C   UNL     1      10.249   0.765  23.254  0.00  0.00    +0.047 A 
BRANCH  13  19
ATOM     19  O   UNL     1      10.547   2.444  21.571  0.00  0.00    -0.507 OA
ATOM     20  H   UNL     1      10.059   3.271  21.423  0.00  0.00    +0.292 HD
ENDBRANCH  13  19
ENDBRANCH   1  16
BRANCH   9  21
ATOM     21  O   UNL     1       3.435  -3.999  24.406  0.00  0.00    -0.475 OA
BRANCH  21  22
ATOM     22  C   UNL     1       3.346  -3.954  25.829  0.00  0.00    +0.234 C 
BRANCH  22  23
ATOM     23  C   UNL     1       2.832  -5.343  26.281  0.00  0.00    +0.027 C 
ATOM     24  C   UNL     1       2.799  -5.511  27.806  0.00  0.00    +0.007 C 
ATOM     25  C   UNL     1       4.188  -5.670  28.421  0.00  0.00    +0.000 C 
ATOM     26  C   UNL     1       4.986  -6.787  27.754  0.00  0.00    +0.000 C 
ATOM     27  C   UNL     1       5.027  -6.644  26.236  0.00  0.00    +0.000 C 
ATOM     28  C   UNL     1       3.627  -6.499  25.645  0.00  0.00    +0.007 C 
ENDBRANCH  22  23
ENDBRANCH  21  22
ENDBRANCH   9  21
TORSDOF 5
ENDMDL
MODEL 9
REMARK VINA RESULT:      -6.7      3.323      5.034
REMARK  Name = 
REMARK  5 active torsions:
REMARK  status: ('A' for Active; 'I' for Inactive)
REMARK    1  A    between atoms: O_1  and  C_2
REMARK    2  A    between atoms: C_5  and  N_6
REMARK    3  A    between atoms: C_9  and  O_10
REMARK    4  A    between atoms: O_10  and  C_11
REMARK    5  A    between atoms: C_11  and  C_12
REMARK                            x       y       z     vdW  Elec       q    Type
REMARK                         _______ _______ _______ _____ _____    ______ ____
ROOT
ATOM      1  N   UNL     1       8.367   2.771  25.122  0.00  0.00    -0.283 N 
ATOM      2  H   UNL     1       7.998   2.857  26.056  0.00  0.00    +0.155 HD
ATOM      3  C   UNL     1       8.723   1.451  24.824  0.00  0.00    +0.225 A 
ATOM      4  N   UNL     1       9.413   1.244  23.683  0.00  0.00    -0.195 NA
ATOM      5  C   UNL     1       9.727  -0.031  23.485  0.00  0.00    +0.167 A 
ATOM      6  C   UNL     1       9.417  -1.109  24.285  0.00  0.00    +0.169 A 
ATOM      7  N   UNL     1       9.909  -2.273  23.730  0.00  0.00    -0.229 NA
ATOM      8  C   UNL     1      10.514  -1.894  22.625  0.00  0.00    +0.199 A 
ATOM      9  C   UNL     1       8.706  -0.805  25.444  0.00  0.00    +0.248 A 
ATOM     10  N   UNL     1      10.444  -0.541  22.444  0.00  0.00    -0.329 N 
ATOM     11  H   UNL     1      10.849   0.001  21.695  0.00  0.00    +0.168 HD
ATOM     12  N   UNL     1       8.377   0.491  25.723  0.00  0.00    -0.177 NA
ENDROOT
BRANCH   1  16
ATOM     13  C   UNL     1       7.462   5.846  22.379  0.00  0.00    +0.117 A 
ATOM     14  C   UNL     1       8.628   5.903  23.133  0.00  0.00    +0.047 A 
ATOM     15  C   UNL     1       8.913   4.885  24.053  0.00  0.00    +0.027 A 
ATOM     16  C   UNL     1       8.040   3.803  24.223  0.00  0.00    +0.034 A 
ATOM     17  C   UNL     1       6.883   3.764  23.426  0.00  0.00    +0.027 A 
ATOM     18  C   UNL     1       6.585   4.781  22.516  0.00  0.00    +0.047 A 
BRANCH  13  19
ATOM     19  O   UNL     1       7.210   6.863  21.506  0.00  0.00    -0.507 OA
ATOM     20  H   UNL     1       6.247   6.976  21.434  0.00  0.00    +0.292 HD
ENDBRANCH  13  19
ENDBRANCH   1  16
BRANCH   9  21
ATOM     21  O   UNL     1       8.472  -1.807  26.359  0.00  0.00    -0.475 OA
BRANCH  21  22
ATOM     22  C   UNL     1       7.328  -2.624  26.114  0.00  0.00    +0.234 C 
BRANCH  22  23
ATOM     23  C   UNL     1       7.853  -4.069  25.931  0.00  0.00    +0.027 C 
ATOM     24  C   UNL     1       7.414  -4.711  24.608  0.00  0.00    +0.007 C 
ATOM     25  C   UNL     1       5.936  -5.096  24.591  0.00  0.00    +0.000 C 
ATOM     26  C   UNL     1       5.556  -5.967  25.786  0.00  0.00    +0.000 C 
ATOM     27  C   UNL     1       5.990  -5.352  27.113  0.00  0.00    +0.000 C 
ATOM     28  C   UNL     1       7.471  -4.987  27.109  0.00  0.00    +0.007 C 
ENDBRANCH  22  23
ENDBRANCH  21  22
ENDBRANCH   9  21
TORSDOF 5
ENDMDL
