MODEL 1
REMARK VINA RESULT:      -6.0      0.000      0.000
REMARK  Name = 
REMARK  17 active torsions:
REMARK  status: ('A' for Active; 'I' for Inactive)
REMARK    1  A    between atoms: C_1  and  C_2
REMARK    2  A    between atoms: C_5  and  C_6
REMARK    3  A    between atoms: C_6  and  O_7
REMARK    4  A    between atoms: O_7  and  P_8
REMARK    5  A    between atoms: P_8  and  O_9
REMARK    6  A    between atoms: P_8  and  O_10
REMARK    7  A    between atoms: C_12  and  C_13
REMARK    8  A    between atoms: C_13  and  N_14
REMARK    9  A    between atoms: N_14  and  C_15
REMARK   10  A    between atoms: C_15  and  C_16
REMARK   11  A    between atoms: C_15  and  C_17
REMARK   12  A    between atoms: C_15  and  C_22
REMARK   13  A    between atoms: C_17  and  C_18
REMARK   14  A    between atoms: C_18  and  C_19
REMARK   15  A    between atoms: C_19  and  O_20
REMARK   16  A    between atoms: C_22  and  O_23
REMARK   17  A    between atoms: C_25  and  O_26
REMARK                            x       y       z     vdW  Elec       q    Type
REMARK                         _______ _______ _______ _____ _____    ______ ____
ROOT
ATOM      1  C   UNL     1      10.883   0.168  24.316  0.00  0.00    +0.069 C 
ATOM      2  C   UNL     1       9.702  -0.667  23.919  0.00  0.00    +0.080 A 
ATOM      3  C   UNL     1       8.731  -1.044  24.856  0.00  0.00    +0.142 A 
ATOM      4  C   UNL     1       7.653  -1.865  24.471  0.00  0.00    +0.016 A 
ATOM      5  C   UNL     1       7.596  -2.262  23.111  0.00  0.00    +0.005 A 
ATOM      6  C   UNL     1       8.627  -1.841  22.261  0.00  0.00    +0.117 A 
ATOM      7  N   UNL     1       9.659  -1.060  22.627  0.00  0.00    -0.256 NA
ENDROOT
BRANCH   3   8
ATOM      8  O   UNL     1       8.902  -0.622  26.148  0.00  0.00    -0.505 OA
ATOM      9  H   UNL     1       8.630  -1.325  26.759  0.00  0.00    +0.292 HD
ENDBRANCH   3   8
BRANCH   4  10
ATOM     10  C   UNL     1       6.672  -2.389  25.511  0.00  0.00    +0.121 C 
BRANCH  10  11
ATOM     11  N   UNL     1       7.281  -3.347  26.467  0.00  0.00    -0.298 NA
ATOM     12  H   UNL     1       7.442  -2.801  27.325  0.00  0.00    +0.123 HD
BRANCH  11  13
ATOM     13  C   UNL     1       6.363  -4.499  26.846  0.00  0.00    +0.115 C 
ATOM     14  C   UNL     1       5.341  -4.074  27.912  0.00  0.00    +0.039 C 
BRANCH  13  15
ATOM     15  C   UNL     1       7.248  -5.616  27.483  0.00  0.00    +0.325 C 
ATOM     16  O   UNL     1       6.989  -6.220  28.514  0.00  0.00    -0.249 OA
BRANCH  15  17
ATOM     17  O   UNL     1       8.337  -5.898  26.725  0.00  0.00    -0.479 OA
ATOM     18  H   UNL     1       9.068  -5.301  27.004  0.00  0.00    +0.295 HD
ENDBRANCH  15  17
ENDBRANCH  13  15
BRANCH  13  19
ATOM     19  C   UNL     1       5.694  -5.121  25.589  0.00  0.00    +0.044 C 
BRANCH  19  20
ATOM     20  C   UNL     1       4.267  -5.645  25.816  0.00  0.00    +0.123 C 
BRANCH  20  21
ATOM     21  C   UNL     1       4.093  -7.043  25.258  0.00  0.00    +0.305 C 
ATOM     22  O   UNL     1       4.523  -7.414  24.176  0.00  0.00    -0.251 OA
BRANCH  21  23
ATOM     23  O   UNL     1       3.353  -7.838  26.057  0.00  0.00    -0.481 OA
ATOM     24  H   UNL     1       2.618  -8.301  25.610  0.00  0.00    +0.295 HD
ENDBRANCH  21  23
ENDBRANCH  20  21
ENDBRANCH  19  20
ENDBRANCH  13  19
ENDBRANCH  11  13
ENDBRANCH  10  11
ENDBRANCH   4  10
BRANCH   5  25
ATOM     25  C   UNL     1       6.583  -3.199  22.506  0.00  0.00    +0.209 C 
BRANCH  25  26
ATOM     26  O   UNL     1       7.188  -4.396  22.060  0.00  0.00    -0.282 OA
BRANCH  26  27
ATOM     27  P   UNL     1       6.169  -5.472  21.465  0.00  0.00    +0.473 P 
ATOM     28  O   UNL     1       5.999  -5.520  19.989  0.00  0.00    -0.228 OA
BRANCH  27  29
ATOM     29  O   UNL     1       4.814  -5.123  22.234  0.00  0.00    -0.303 OA
ATOM     30  H   UNL     1       5.012  -4.658  23.070  0.00  0.00    +0.222 HD
ENDBRANCH  27  29
BRANCH  27  31
ATOM     31  O   UNL     1       6.559  -6.837  22.184  0.00  0.00    -0.303 OA
ATOM     32  H   UNL     1       7.500  -6.845  22.431  0.00  0.00    +0.222 HD
ENDBRANCH  27  31
ENDBRANCH  26  27
ENDBRANCH  25  26
ENDBRANCH   5  25
TORSDOF 15
ENDMDL
MODEL 2
REMARK VINA RESULT:      -5.9      2.830      7.179
REMARK  Name = 
REMARK  17 active torsions:
REMARK  status: ('A' for Active; 'I' for Inactive)
REMARK    1  A    between atoms: C_1  and  C_2
REMARK    2  A    between atoms: C_5  and  C_6
REMARK    3  A    between atoms: C_6  and  O_7
REMARK    4  A    between atoms: O_7  and  P_8
REMARK    5  A    between atoms: P_8  and  O_9
REMARK    6  A    between atoms: P_8  and  O_10
REMARK    7  A    between atoms: C_12  and  C_13
REMARK    8  A    between atoms: C_13  and  N_14
REMARK    9  A    between atoms: N_14  and  C_15
REMARK   10  A    between atoms: C_15  and  C_16
REMARK   11  A    between atoms: C_15  and  C_17
REMARK   12  A    between atoms: C_15  and  C_22
REMARK   13  A    between atoms: C_17  and  C_18
REMARK   14  A    between atoms: C_18  and  C_19
REMARK   15  A    between atoms: C_19  and  O_20
REMARK   16  A    between atoms: C_22  and  O_23
REMARK   17  A    between atoms: C_25  and  O_26
REMARK                            x       y       z     vdW  Elec       q    Type
REMARK                         _______ _______ _______ _____ _____    ______ ____
ROOT
ATOM      1  C   UNL     1       6.246  -5.800  21.109  0.00  0.00    +0.069 C 
ATOM      2  C   UNL     1       6.132  -5.293  22.517  0.00  0.00    +0.080 A 
ATOM      3  C   UNL     1       6.587  -4.016  22.868  0.00  0.00    +0.142 A 
ATOM      4  C   UNL     1       6.510  -3.578  24.205  0.00  0.00    +0.016 A 
ATOM      5  C   UNL     1       5.942  -4.472  25.147  0.00  0.00    +0.005 A 
ATOM      6  C   UNL     1       5.532  -5.731  24.692  0.00  0.00    +0.117 A 
ATOM      7  N   UNL     1       5.608  -6.154  23.417  0.00  0.00    -0.256 NA
ENDROOT
BRANCH   3   8
ATOM      8  O   UNL     1       7.141  -3.248  21.879  0.00  0.00    -0.505 OA
ATOM      9  H   UNL     1       6.436  -2.834  21.356  0.00  0.00    +0.292 HD
ENDBRANCH   3   8
BRANCH   4  10
ATOM     10  C   UNL     1       7.127  -2.248  24.617  0.00  0.00    +0.121 C 
BRANCH  10  11
ATOM     11  N   UNL     1       8.579  -2.155  24.326  0.00  0.00    -0.298 NA
ATOM     12  H   UNL     1       8.777  -2.949  23.701  0.00  0.00    +0.123 HD
BRANCH  11  13
ATOM     13  C   UNL     1       8.970  -0.894  23.570  0.00  0.00    +0.115 C 
ATOM     14  C   UNL     1       7.740  -0.193  22.974  0.00  0.00    +0.039 C 
BRANCH  13  15
ATOM     15  C   UNL     1       9.872  -1.327  22.370  0.00  0.00    +0.325 C 
ATOM     16  O   UNL     1      10.920  -1.950  22.464  0.00  0.00    -0.249 OA
BRANCH  15  17
ATOM     17  O   UNL     1       9.332  -0.980  21.175  0.00  0.00    -0.479 OA
ATOM     18  H   UNL     1       8.649  -0.290  21.335  0.00  0.00    +0.295 HD
ENDBRANCH  15  17
ENDBRANCH  13  15
BRANCH  13  19
ATOM     19  C   UNL     1       9.829   0.049  24.457  0.00  0.00    +0.044 C 
BRANCH  19  20
ATOM     20  C   UNL     1      10.822   0.929  23.680  0.00  0.00    +0.123 C 
BRANCH  20  21
ATOM     21  C   UNL     1      10.153   2.175  23.136  0.00  0.00    +0.305 C 
ATOM     22  O   UNL     1       9.575   3.004  23.822  0.00  0.00    -0.251 OA
BRANCH  21  23
ATOM     23  O   UNL     1      10.208   2.254  21.792  0.00  0.00    -0.481 OA
ATOM     24  H   UNL     1       9.630   2.936  21.395  0.00  0.00    +0.295 HD
ENDBRANCH  21  23
ENDBRANCH  20  21
ENDBRANCH  19  20
ENDBRANCH  13  19
ENDBRANCH  11  13
ENDBRANCH  10  11
ENDBRANCH   4  10
BRANCH   5  25
ATOM     25  C   UNL     1       5.838  -4.240  26.633  0.00  0.00    +0.209 C 
BRANCH  25  26
ATOM     26  O   UNL     1       5.155  -5.299  27.274  0.00  0.00    -0.282 OA
BRANCH  26  27
ATOM     27  P   UNL     1       5.969  -5.989  28.462  0.00  0.00    +0.473 P 
ATOM     28  O   UNL     1       5.913  -5.348  29.802  0.00  0.00    -0.228 OA
BRANCH  27  29
ATOM     29  O   UNL     1       7.450  -6.057  27.868  0.00  0.00    -0.303 OA
ATOM     30  H   UNL     1       8.057  -5.522  28.414  0.00  0.00    +0.222 HD
ENDBRANCH  27  29
BRANCH  27  31
ATOM     31  O   UNL     1       5.564  -7.526  28.388  0.00  0.00    -0.303 OA
ATOM     32  H   UNL     1       5.629  -7.947  29.263  0.00  0.00    +0.222 HD
ENDBRANCH  27  31
ENDBRANCH  26  27
ENDBRANCH  25  26
ENDBRANCH   5  25
TORSDOF 15
ENDMDL
MODEL 3
REMARK VINA RESULT:      -5.9      2.474      4.860
REMARK  Name = 
REMARK  17 active torsions:
REMARK  status: ('A' for Active; 'I' for Inactive)
REMARK    1  A    between atoms: C_1  and  C_2
REMARK    2  A    between atoms: C_5  and  C_6
REMARK    3  A    between atoms: C_6  and  O_7
REMARK    4  A    between atoms: O_7  and  P_8
REMARK    5  A    between atoms: P_8  and  O_9
REMARK    6  A    between atoms: P_8  and  O_10
REMARK    7  A    between atoms: C_12  and  C_13
REMARK    8  A    between atoms: C_13  and  N_14
REMARK    9  A    between atoms: N_14  and  C_15
REMARK   10  A    between atoms: C_15  and  C_16
REMARK   11  A    between atoms: C_15  and  C_17
REMARK   12  A    between atoms: C_15  and  C_22
REMARK   13  A    between atoms: C_17  and  C_18
REMARK   14  A    between atoms: C_18  and  C_19
REMARK   15  A    between atoms: C_19  and  O_20
REMARK   16  A    between atoms: C_22  and  O_23
REMARK   17  A    between atoms: C_25  and  O_26
REMARK                            x       y       z     vdW  Elec       q    Type
REMARK                         _______ _______ _______ _____ _____    ______ ____
ROOT
ATOM      1  C   UNL     1       9.970  -0.406  24.665  0.00  0.00    +0.069 C 
ATOM      2  C   UNL     1       9.081  -1.443  25.287  0.00  0.00    +0.080 A 
ATOM      3  C   UNL     1       9.103  -2.774  24.851  0.00  0.00    +0.142 A 
ATOM      4  C   UNL     1       8.229  -3.722  25.419  0.00  0.00    +0.016 A 
ATOM      5  C   UNL     1       7.362  -3.269  26.446  0.00  0.00    +0.005 A 
ATOM      6  C   UNL     1       7.411  -1.914  26.795  0.00  0.00    +0.117 A 
ATOM      7  N   UNL     1       8.242  -1.006  26.252  0.00  0.00    -0.256 NA
ENDROOT
BRANCH   3   8
ATOM      8  O   UNL     1       9.965  -3.093  23.836  0.00  0.00    -0.505 OA
ATOM      9  H   UNL     1       9.489  -3.085  22.990  0.00  0.00    +0.292 HD
ENDBRANCH   3   8
BRANCH   4  10
ATOM     10  C   UNL     1       8.152  -5.135  24.856  0.00  0.00    +0.121 C 
BRANCH  10  11
ATOM     11  N   UNL     1       8.155  -5.181  23.374  0.00  0.00    -0.298 NA
ATOM     12  H   UNL     1       8.511  -6.118  23.137  0.00  0.00    +0.123 HD
BRANCH  11  13
ATOM     13  C   UNL     1       6.770  -5.069  22.756  0.00  0.00    +0.115 C 
ATOM     14  C   UNL     1       6.588  -6.067  21.602  0.00  0.00    +0.039 C 
BRANCH  13  15
ATOM     15  C   UNL     1       6.640  -3.638  22.146  0.00  0.00    +0.325 C 
ATOM     16  O   UNL     1       7.562  -2.850  21.991  0.00  0.00    -0.249 OA
BRANCH  15  17
ATOM     17  O   UNL     1       5.374  -3.370  21.739  0.00  0.00    -0.479 OA
ATOM     18  H   UNL     1       4.752  -3.811  22.360  0.00  0.00    +0.295 HD
ENDBRANCH  15  17
ENDBRANCH  13  15
BRANCH  13  19
ATOM     19  C   UNL     1       5.661  -5.195  23.839  0.00  0.00    +0.044 C 
BRANCH  19  20
ATOM     20  C   UNL     1       4.502  -6.131  23.462  0.00  0.00    +0.123 C 
BRANCH  20  21
ATOM     21  C   UNL     1       4.162  -7.079  24.595  0.00  0.00    +0.305 C 
ATOM     22  O   UNL     1       4.577  -6.965  25.738  0.00  0.00    -0.251 OA
BRANCH  21  23
ATOM     23  O   UNL     1       3.391  -8.112  24.200  0.00  0.00    -0.481 OA
ATOM     24  H   UNL     1       2.721  -8.398  24.852  0.00  0.00    +0.295 HD
ENDBRANCH  21  23
ENDBRANCH  20  21
ENDBRANCH  19  20
ENDBRANCH  13  19
ENDBRANCH  11  13
ENDBRANCH  10  11
ENDBRANCH   4  10
BRANCH   5  25
ATOM     25  C   UNL     1       6.298  -4.089  27.128  0.00  0.00    +0.209 C 
BRANCH  25  26
ATOM     26  O   UNL     1       6.865  -5.065  27.980  0.00  0.00    -0.282 OA
BRANCH  26  27
ATOM     27  P   UNL     1       5.816  -5.807  28.928  0.00  0.00    +0.473 P 
ATOM     28  O   UNL     1       5.970  -5.637  30.396  0.00  0.00    -0.228 OA
BRANCH  27  29
ATOM     29  O   UNL     1       5.951  -7.328  28.462  0.00  0.00    -0.303 OA
ATOM     30  H   UNL     1       5.346  -7.508  27.716  0.00  0.00    +0.222 HD
ENDBRANCH  27  29
BRANCH  27  31
ATOM     31  O   UNL     1       4.393  -5.448  28.312  0.00  0.00    -0.303 OA
ATOM     32  H   UNL     1       4.437  -4.631  27.785  0.00  0.00    +0.222 HD
ENDBRANCH  27  31
ENDBRANCH  26  27
ENDBRANCH  25  26
ENDBRANCH   5  25
TORSDOF 15
ENDMDL
MODEL 4
REMARK VINA RESULT:      -5.8      1.556      2.772
REMARK  Name = 
REMARK  17 active torsions:
REMARK  status: ('A' for Active; 'I' for Inactive)
REMARK    1  A    between atoms: C_1  and  C_2
REMARK    2  A    between atoms: C_5  and  C_6
REMARK    3  A    between atoms: C_6  and  O_7
REMARK    4  A    between atoms: O_7  and  P_8
REMARK    5  A    between atoms: P_8  and  O_9
REMARK    6  A    between atoms: P_8  and  O_10
REMARK    7  A    between atoms: C_12  and  C_13
REMARK    8  A    between atoms: C_13  and  N_14
REMARK    9  A    between atoms: N_14  and  C_15
REMARK   10  A    between atoms: C_15  and  C_16
REMARK   11  A    between atoms: C_15  and  C_17
REMARK   12  A    between atoms: C_15  and  C_22
REMARK   13  A    between atoms: C_17  and  C_18
REMARK   14  A    between atoms: C_18  and  C_19
REMARK   15  A    between atoms: C_19  and  O_20
REMARK   16  A    between atoms: C_22  and  O_23
REMARK   17  A    between atoms: C_25  and  O_26
REMARK                            x       y       z     vdW  Elec       q    Type
REMARK                         _______ _______ _______ _____ _____    ______ ____
ROOT
ATOM      1  C   UNL     1       9.722   0.201  25.171  0.00  0.00    +0.069 C 
ATOM      2  C   UNL     1       8.590  -0.612  24.614  0.00  0.00    +0.080 A 
ATOM      3  C   UNL     1       7.553  -1.071  25.435  0.00  0.00    +0.142 A 
ATOM      4  C   UNL     1       6.523  -1.871  24.899  0.00  0.00    +0.016 A 
ATOM      5  C   UNL     1       6.585  -2.159  23.512  0.00  0.00    +0.005 A 
ATOM      6  C   UNL     1       7.674  -1.662  22.786  0.00  0.00    +0.117 A 
ATOM      7  N   UNL     1       8.660  -0.903  23.296  0.00  0.00    -0.256 NA
ENDROOT
BRANCH   3   8
ATOM      8  O   UNL     1       7.610  -0.751  26.765  0.00  0.00    -0.505 OA
ATOM      9  H   UNL     1       8.471  -1.015  27.127  0.00  0.00    +0.292 HD
ENDBRANCH   3   8
BRANCH   4  10
ATOM     10  C   UNL     1       5.470  -2.485  25.810  0.00  0.00    +0.121 C 
BRANCH  10  11
ATOM     11  N   UNL     1       6.037  -3.381  26.848  0.00  0.00    -0.298 NA
ATOM     12  H   UNL     1       5.461  -3.216  27.686  0.00  0.00    +0.123 HD
BRANCH  11  13
ATOM     13  C   UNL     1       5.909  -4.859  26.514  0.00  0.00    +0.115 C 
ATOM     14  C   UNL     1       4.569  -5.166  25.829  0.00  0.00    +0.039 C 
BRANCH  13  15
ATOM     15  C   UNL     1       5.923  -5.649  27.862  0.00  0.00    +0.325 C 
ATOM     16  O   UNL     1       6.090  -5.155  28.968  0.00  0.00    -0.249 OA
BRANCH  15  17
ATOM     17  O   UNL     1       5.666  -6.969  27.682  0.00  0.00    -0.479 OA
ATOM     18  H   UNL     1       4.902  -7.214  28.252  0.00  0.00    +0.295 HD
ENDBRANCH  15  17
ENDBRANCH  13  15
BRANCH  13  19
ATOM     19  C   UNL     1       7.132  -5.357  25.694  0.00  0.00    +0.044 C 
BRANCH  19  20
ATOM     20  C   UNL     1       8.464  -4.682  26.057  0.00  0.00    +0.123 C 
BRANCH  20  21
ATOM     21  C   UNL     1       9.454  -4.755  24.912  0.00  0.00    +0.305 C 
ATOM     22  O   UNL     1      10.058  -3.795  24.458  0.00  0.00    -0.251 OA
BRANCH  21  23
ATOM     23  O   UNL     1       9.565  -5.994  24.394  0.00  0.00    -0.481 OA
ATOM     24  H   UNL     1       9.941  -6.032  23.492  0.00  0.00    +0.295 HD
ENDBRANCH  21  23
ENDBRANCH  20  21
ENDBRANCH  19  20
ENDBRANCH  13  19
ENDBRANCH  11  13
ENDBRANCH  10  11
ENDBRANCH   4  10
BRANCH   5  25
ATOM     25  C   UNL     1       5.640  -3.056  22.754  0.00  0.00    +0.209 C 
BRANCH  25  26
ATOM     26  O   UNL     1       6.282  -3.671  21.655  0.00  0.00    -0.282 OA
BRANCH  26  27
ATOM     27  P   UNL     1       6.233  -5.268  21.669  0.00  0.00    +0.473 P 
ATOM     28  O   UNL     1       7.403  -5.990  22.234  0.00  0.00    -0.228 OA
BRANCH  27  29
ATOM     29  O   UNL     1       5.973  -5.615  20.132  0.00  0.00    -0.303 OA
ATOM     30  H   UNL     1       5.093  -6.026  20.024  0.00  0.00    +0.222 HD
ENDBRANCH  27  29
BRANCH  27  31
ATOM     31  O   UNL     1       4.810  -5.622  22.284  0.00  0.00    -0.303 OA
ATOM     32  H   UNL     1       4.223  -4.845  22.275  0.00  0.00    +0.222 HD
ENDBRANCH  27  31
ENDBRANCH  26  27
ENDBRANCH  25  26
ENDBRANCH   5  25
TORSDOF 15
ENDMDL
MODEL 5
REMARK VINA RESULT:      -5.8      2.875      6.804
REMARK  Name = 
REMARK  17 active torsions:
REMARK  status: ('A' for Active; 'I' for Inactive)
REMARK    1  A    between atoms: C_1  and  C_2
REMARK    2  A    between atoms: C_5  and  C_6
REMARK    3  A    between atoms: C_6  and  O_7
REMARK    4  A    between atoms: O_7  and  P_8
REMARK    5  A    between atoms: P_8  and  O_9
REMARK    6  A    between atoms: P_8  and  O_10
REMARK    7  A    between atoms: C_12  and  C_13
REMARK    8  A    between atoms: C_13  and  N_14
REMARK    9  A    between atoms: N_14  and  C_15
REMARK   10  A    between atoms: C_15  and  C_16
REMARK   11  A    between atoms: C_15  and  C_17
REMARK   12  A    between atoms: C_15  and  C_22
REMARK   13  A    between atoms: C_17  and  C_18
REMARK   14  A    between atoms: C_18  and  C_19
REMARK   15  A    between atoms: C_19  and  O_20
REMARK   16  A    between atoms: C_22  and  O_23
REMARK   17  A    between atoms: C_25  and  O_26
REMARK                            x       y       z     vdW  Elec       q    Type
REMARK                         _______ _______ _______ _____ _____    ______ ____
ROOT
ATOM      1  C   UNL     1       6.208  -5.582  21.519  0.00  0.00    +0.069 C 
ATOM      2  C   UNL     1       6.411  -5.192  22.954  0.00  0.00    +0.080 A 
ATOM      3  C   UNL     1       7.276  -4.149  23.307  0.00  0.00    +0.142 A 
ATOM      4  C   UNL     1       7.486  -3.828  24.664  0.00  0.00    +0.016 A 
ATOM      5  C   UNL     1       6.774  -4.589  25.625  0.00  0.00    +0.005 A 
ATOM      6  C   UNL     1       5.946  -5.620  25.164  0.00  0.00    +0.117 A 
ATOM      7  N   UNL     1       5.747  -5.930  23.871  0.00  0.00    -0.256 NA
ENDROOT
BRANCH   3   8
ATOM      8  O   UNL     1       7.930  -3.499  22.294  0.00  0.00    -0.505 OA
ATOM      9  H   UNL     1       7.322  -3.361  21.550  0.00  0.00    +0.292 HD
ENDBRANCH   3   8
BRANCH   4  10
ATOM     10  C   UNL     1       8.527  -2.789  25.058  0.00  0.00    +0.121 C 
BRANCH  10  11
ATOM     11  N   UNL     1       8.556  -1.611  24.157  0.00  0.00    -0.298 NA
ATOM     12  H   UNL     1       7.995  -1.888  23.339  0.00  0.00    +0.123 HD
BRANCH  11  13
ATOM     13  C   UNL     1       7.894  -0.375  24.745  0.00  0.00    +0.115 C 
ATOM     14  C   UNL     1       7.788  -0.470  26.275  0.00  0.00    +0.039 C 
BRANCH  13  15
ATOM     15  C   UNL     1       6.435  -0.313  24.190  0.00  0.00    +0.325 C 
ATOM     16  O   UNL     1       5.449  -0.776  24.744  0.00  0.00    -0.249 OA
BRANCH  15  17
ATOM     17  O   UNL     1       6.363   0.376  23.024  0.00  0.00    -0.479 OA
ATOM     18  H   UNL     1       7.146   0.139  22.478  0.00  0.00    +0.295 HD
ENDBRANCH  15  17
ENDBRANCH  13  15
BRANCH  13  19
ATOM     19  C   UNL     1       8.607   0.923  24.273  0.00  0.00    +0.044 C 
BRANCH  19  20
ATOM     20  C   UNL     1       9.933   0.690  23.532  0.00  0.00    +0.123 C 
BRANCH  20  21
ATOM     21  C   UNL     1       9.752   0.767  22.029  0.00  0.00    +0.305 C 
ATOM     22  O   UNL     1       9.508  -0.192  21.313  0.00  0.00    -0.251 OA
BRANCH  21  23
ATOM     23  O   UNL     1       9.947   2.007  21.540  0.00  0.00    -0.481 OA
ATOM     24  H   UNL     1       9.454   2.210  20.721  0.00  0.00    +0.295 HD
ENDBRANCH  21  23
ENDBRANCH  20  21
ENDBRANCH  19  20
ENDBRANCH  13  19
ENDBRANCH  11  13
ENDBRANCH  10  11
ENDBRANCH   4  10
BRANCH   5  25
ATOM     25  C   UNL     1       6.910  -4.470  27.121  0.00  0.00    +0.209 C 
BRANCH  25  26
ATOM     26  O   UNL     1       7.063  -5.738  27.728  0.00  0.00    -0.282 OA
BRANCH  26  27
ATOM     27  P   UNL     1       5.976  -6.071  28.849  0.00  0.00    +0.473 P 
ATOM     28  O   UNL     1       6.388  -5.941  30.272  0.00  0.00    -0.228 OA
BRANCH  27  29
ATOM     29  O   UNL     1       5.532  -7.556  28.465  0.00  0.00    -0.303 OA
ATOM     30  H   UNL     1       4.681  -7.774  28.892  0.00  0.00    +0.222 HD
ENDBRANCH  27  29
BRANCH  27  31
ATOM     31  O   UNL     1       4.679  -5.264  28.405  0.00  0.00    -0.303 OA
ATOM     32  H   UNL     1       4.648  -4.391  28.834  0.00  0.00    +0.222 HD
ENDBRANCH  27  31
ENDBRANCH  26  27
ENDBRANCH  25  26
ENDBRANCH   5  25
TORSDOF 15
ENDMDL
MODEL 6
REMARK VINA RESULT:      -5.6      2.662      4.857
REMARK  Name = 
REMARK  17 active torsions:
REMARK  status: ('A' for Active; 'I' for Inactive)
REMARK    1  A    between atoms: C_1  and  C_2
REMARK    2  A    between atoms: C_5  and  C_6
REMARK    3  A    between atoms: C_6  and  O_7
REMARK    4  A    between atoms: O_7  and  P_8
REMARK    5  A    between atoms: P_8  and  O_9
REMARK    6  A    between atoms: P_8  and  O_10
REMARK    7  A    between atoms: C_12  and  C_13
REMARK    8  A    between atoms: C_13  and  N_14
REMARK    9  A    between atoms: N_14  and  C_15
REMARK   10  A    between atoms: C_15  and  C_16
REMARK   11  A    between atoms: C_15  and  C_17
REMARK   12  A    between atoms: C_15  and  C_22
REMARK   13  A    between atoms: C_17  and  C_18
REMARK   14  A    between atoms: C_18  and  C_19
REMARK   15  A    between atoms: C_19  and  O_20
REMARK   16  A    between atoms: C_22  and  O_23
REMARK   17  A    between atoms: C_25  and  O_26
REMARK                            x       y       z     vdW  Elec       q    Type
REMARK                         _______ _______ _______ _____ _____    ______ ____
ROOT
ATOM      1  C   UNL     1      10.124   1.543  21.974  0.00  0.00    +0.069 C 
ATOM      2  C   UNL     1       9.647   0.668  23.095  0.00  0.00    +0.080 A 
ATOM      3  C   UNL     1       9.616  -0.726  22.965  0.00  0.00    +0.142 A 
ATOM      4  C   UNL     1       9.122  -1.527  24.014  0.00  0.00    +0.016 A 
ATOM      5  C   UNL     1       8.688  -0.860  25.187  0.00  0.00    +0.005 A 
ATOM      6  C   UNL     1       8.748   0.539  25.207  0.00  0.00    +0.117 A 
ATOM      7  N   UNL     1       9.215   1.306  24.205  0.00  0.00    -0.256 NA
ENDROOT
BRANCH   3   8
ATOM      8  O   UNL     1      10.038  -1.260  21.777  0.00  0.00    -0.505 OA
ATOM      9  H   UNL     1       9.330  -1.186  21.117  0.00  0.00    +0.292 HD
ENDBRANCH   3   8
BRANCH   4  10
ATOM     10  C   UNL     1       8.960  -3.030  23.827  0.00  0.00    +0.121 C 
BRANCH  10  11
ATOM     11  N   UNL     1       8.092  -3.391  22.680  0.00  0.00    -0.298 NA
ATOM     12  H   UNL     1       8.726  -3.818  21.990  0.00  0.00    +0.123 HD
BRANCH  11  13
ATOM     13  C   UNL     1       7.040  -4.438  23.015  0.00  0.00    +0.115 C 
ATOM     14  C   UNL     1       7.557  -5.859  22.744  0.00  0.00    +0.039 C 
BRANCH  13  15
ATOM     15  C   UNL     1       5.824  -4.206  22.062  0.00  0.00    +0.325 C 
ATOM     16  O   UNL     1       4.877  -3.469  22.293  0.00  0.00    -0.249 OA
BRANCH  15  17
ATOM     17  O   UNL     1       5.957  -4.882  20.894  0.00  0.00    -0.479 OA
ATOM     18  H   UNL     1       6.266  -4.249  20.206  0.00  0.00    +0.295 HD
ENDBRANCH  15  17
ENDBRANCH  13  15
BRANCH  13  19
ATOM     19  C   UNL     1       6.511  -4.258  24.465  0.00  0.00    +0.044 C 
BRANCH  19  20
ATOM     20  C   UNL     1       6.568  -5.528  25.329  0.00  0.00    +0.123 C 
BRANCH  20  21
ATOM     21  C   UNL     1       7.542  -5.374  26.480  0.00  0.00    +0.305 C 
ATOM     22  O   UNL     1       7.278  -4.829  27.540  0.00  0.00    -0.251 OA
BRANCH  21  23
ATOM     23  O   UNL     1       8.769  -5.854  26.195  0.00  0.00    -0.481 OA
ATOM     24  H   UNL     1       9.493  -5.201  26.263  0.00  0.00    +0.295 HD
ENDBRANCH  21  23
ENDBRANCH  20  21
ENDBRANCH  19  20
ENDBRANCH  13  19
ENDBRANCH  11  13
ENDBRANCH  10  11
ENDBRANCH   4  10
BRANCH   5  25
ATOM     25  C   UNL     1       8.054  -1.511  26.389  0.00  0.00    +0.209 C 
BRANCH  25  26
ATOM     26  O   UNL     1       7.120  -0.649  27.010  0.00  0.00    -0.282 OA
BRANCH  26  27
ATOM     27  P   UNL     1       5.595  -1.092  26.838  0.00  0.00    +0.473 P 
ATOM     28  O   UNL     1       4.947  -0.845  25.523  0.00  0.00    -0.228 OA
BRANCH  27  29
ATOM     29  O   UNL     1       4.878  -0.319  28.038  0.00  0.00    -0.303 OA
ATOM     30  H   UNL     1       4.544   0.546  27.730  0.00  0.00    +0.222 HD
ENDBRANCH  27  29
BRANCH  27  31
ATOM     31  O   UNL     1       5.544  -2.582  27.392  0.00  0.00    -0.303 OA
ATOM     32  H   UNL     1       5.457  -3.222  26.664  0.00  0.00    +0.222 HD
ENDBRANCH  27  31
ENDBRANCH  26  27
ENDBRANCH  25  26
ENDBRANCH   5  25
TORSDOF 15
ENDMDL
MODEL 7
REMARK VINA RESULT:      -5.6      3.057      6.818
REMARK  Name = 
REMARK  17 active torsions:
REMARK  status: ('A' for Active; 'I' for Inactive)
REMARK    1  A    between atoms: C_1  and  C_2
REMARK    2  A    between atoms: C_5  and  C_6
REMARK    3  A    between atoms: C_6  and  O_7
REMARK    4  A    between atoms: O_7  and  P_8
REMARK    5  A    between atoms: P_8  and  O_9
REMARK    6  A    between atoms: P_8  and  O_10
REMARK    7  A    between atoms: C_12  and  C_13
REMARK    8  A    between atoms: C_13  and  N_14
REMARK    9  A    between atoms: N_14  and  C_15
REMARK   10  A    between atoms: C_15  and  C_16
REMARK   11  A    between atoms: C_15  and  C_17
REMARK   12  A    between atoms: C_15  and  C_22
REMARK   13  A    between atoms: C_17  and  C_18
REMARK   14  A    between atoms: C_18  and  C_19
REMARK   15  A    between atoms: C_19  and  O_20
REMARK   16  A    between atoms: C_22  and  O_23
REMARK   17  A    between atoms: C_25  and  O_26
REMARK                            x       y       z     vdW  Elec       q    Type
REMARK                         _______ _______ _______ _____ _____    ______ ____
ROOT
ATOM      1  C   UNL     1       2.250  -5.215  23.358  0.00  0.00    +0.069 C 
ATOM      2  C   UNL     1       3.714  -4.894  23.446  0.00  0.00    +0.080 A 
ATOM      3  C   UNL     1       4.176  -3.824  24.223  0.00  0.00    +0.142 A 
ATOM      4  C   UNL     1       5.551  -3.513  24.256  0.00  0.00    +0.016 A 
ATOM      5  C   UNL     1       6.418  -4.335  23.494  0.00  0.00    +0.005 A 
ATOM      6  C   UNL     1       5.849  -5.370  22.741  0.00  0.00    +0.117 A 
ATOM      7  N   UNL     1       4.538  -5.667  22.705  0.00  0.00    -0.256 NA
ENDROOT
BRANCH   3   8
ATOM      8  O   UNL     1       3.244  -3.083  24.898  0.00  0.00    -0.505 OA
ATOM      9  H   UNL     1       2.497  -3.649  25.150  0.00  0.00    +0.292 HD
ENDBRANCH   3   8
BRANCH   4  10
ATOM     10  C   UNL     1       6.043  -2.271  24.987  0.00  0.00    +0.121 C 
BRANCH  10  11
ATOM     11  N   UNL     1       5.670  -1.003  24.314  0.00  0.00    -0.298 NA
ATOM     12  H   UNL     1       4.966  -0.571  24.930  0.00  0.00    +0.123 HD
BRANCH  11  13
ATOM     13  C   UNL     1       6.818  -0.012  24.198  0.00  0.00    +0.115 C 
ATOM     14  C   UNL     1       7.301   0.450  25.582  0.00  0.00    +0.039 C 
BRANCH  13  15
ATOM     15  C   UNL     1       6.276   1.253  23.460  0.00  0.00    +0.325 C 
ATOM     16  O   UNL     1       6.843   1.835  22.547  0.00  0.00    -0.249 OA
BRANCH  15  17
ATOM     17  O   UNL     1       5.049   1.619  23.909  0.00  0.00    -0.479 OA
ATOM     18  H   UNL     1       4.461   1.744  23.130  0.00  0.00    +0.295 HD
ENDBRANCH  15  17
ENDBRANCH  13  15
BRANCH  13  19
ATOM     19  C   UNL     1       7.966  -0.583  23.321  0.00  0.00    +0.044 C 
BRANCH  19  20
ATOM     20  C   UNL     1       9.367  -0.458  23.940  0.00  0.00    +0.123 C 
BRANCH  20  21
ATOM     21  C   UNL     1      10.076   0.795  23.465  0.00  0.00    +0.305 C 
ATOM     22  O   UNL     1      10.796   1.489  24.165  0.00  0.00    -0.251 OA
BRANCH  21  23
ATOM     23  O   UNL     1       9.784   1.109  22.187  0.00  0.00    -0.481 OA
ATOM     24  H   UNL     1       8.830   1.182  21.988  0.00  0.00    +0.295 HD
ENDBRANCH  21  23
ENDBRANCH  20  21
ENDBRANCH  19  20
ENDBRANCH  13  19
ENDBRANCH  11  13
ENDBRANCH  10  11
ENDBRANCH   4  10
BRANCH   5  25
ATOM     25  C   UNL     1       7.902  -4.133  23.323  0.00  0.00    +0.209 C 
BRANCH  25  26
ATOM     26  O   UNL     1       8.639  -5.176  23.929  0.00  0.00    -0.282 OA
BRANCH  26  27
ATOM     27  P   UNL     1       9.106  -4.874  25.426  0.00  0.00    +0.473 P 
ATOM     28  O   UNL     1       9.064  -3.463  25.891  0.00  0.00    -0.228 OA
BRANCH  27  29
ATOM     29  O   UNL     1      10.577  -5.494  25.457  0.00  0.00    -0.303 OA
ATOM     30  H   UNL     1      11.024  -5.346  24.601  0.00  0.00    +0.222 HD
ENDBRANCH  27  29
BRANCH  27  31
ATOM     31  O   UNL     1       8.330  -5.942  26.314  0.00  0.00    -0.303 OA
ATOM     32  H   UNL     1       7.373  -5.911  26.139  0.00  0.00    +0.222 HD
ENDBRANCH  27  31
ENDBRANCH  26  27
ENDBRANCH  25  26
ENDBRANCH   5  25
TORSDOF 15
ENDMDL
MODEL 8
REMARK VINA RESULT:      -5.6      3.091      6.635
REMARK  Name = 
REMARK  17 active torsions:
REMARK  status: ('A' for Active; 'I' for Inactive)
REMARK    1  A    between atoms: C_1  and  C_2
REMARK    2  A    between atoms: C_5  and  C_6
REMARK    3  A    between atoms: C_6  and  O_7
REMARK    4  A    between atoms: O_7  and  P_8
REMARK    5  A    between atoms: P_8  and  O_9
REMARK    6  A    between atoms: P_8  and  O_10
REMARK    7  A    between atoms: C_12  and  C_13
REMARK    8  A    between atoms: C_13  and  N_14
REMARK    9  A    between atoms: N_14  and  C_15
REMARK   10  A    between atoms: C_15  and  C_16
REMARK   11  A    between atoms: C_15  and  C_17
REMARK   12  A    between atoms: C_15  and  C_22
REMARK   13  A    between atoms: C_17  and  C_18
REMARK   14  A    between atoms: C_18  and  C_19
REMARK   15  A    between atoms: C_19  and  O_20
REMARK   16  A    between atoms: C_22  and  O_23
REMARK   17  A    between atoms: C_25  and  O_26
REMARK                            x       y       z     vdW  Elec       q    Type
REMARK                         _______ _______ _______ _____ _____    ______ ____
ROOT
ATOM      1  C   UNL     1       4.043   0.525  26.776  0.00  0.00    +0.069 C 
ATOM      2  C   UNL     1       5.265  -0.343  26.699  0.00  0.00    +0.080 A 
ATOM      3  C   UNL     1       6.482   0.158  26.221  0.00  0.00    +0.142 A 
ATOM      4  C   UNL     1       7.605  -0.686  26.115  0.00  0.00    +0.016 A 
ATOM      5  C   UNL     1       7.443  -2.033  26.528  0.00  0.00    +0.005 A 
ATOM      6  C   UNL     1       6.178  -2.434  26.976  0.00  0.00    +0.117 A 
ATOM      7  N   UNL     1       5.103  -1.631  27.074  0.00  0.00    -0.256 NA
ENDROOT
BRANCH   3   8
ATOM      8  O   UNL     1       6.516   1.469  25.828  0.00  0.00    -0.505 OA
ATOM      9  H   UNL     1       6.860   1.529  24.922  0.00  0.00    +0.292 HD
ENDBRANCH   3   8
BRANCH   4  10
ATOM     10  C   UNL     1       8.890  -0.184  25.470  0.00  0.00    +0.121 C 
BRANCH  10  11
ATOM     11  N   UNL     1       8.671   0.502  24.174  0.00  0.00    -0.298 NA
ATOM     12  H   UNL     1       7.944   1.206  24.364  0.00  0.00    +0.123 HD
BRANCH  11  13
ATOM     13  C   UNL     1       9.890   1.257  23.668  0.00  0.00    +0.115 C 
ATOM     14  C   UNL     1      11.154   0.872  24.453  0.00  0.00    +0.039 C 
BRANCH  13  15
ATOM     15  C   UNL     1       9.642   2.778  23.924  0.00  0.00    +0.325 C 
ATOM     16  O   UNL     1       8.840   3.237  24.724  0.00  0.00    -0.249 OA
BRANCH  15  17
ATOM     17  O   UNL     1      10.470   3.561  23.188  0.00  0.00    -0.479 OA
ATOM     18  H   UNL     1      10.026   4.427  23.044  0.00  0.00    +0.295 HD
ENDBRANCH  15  17
ENDBRANCH  13  15
BRANCH  13  19
ATOM     19  C   UNL     1      10.061   1.085  22.133  0.00  0.00    +0.044 C 
BRANCH  19  20
ATOM     20  C   UNL     1       8.997   0.199  21.466  0.00  0.00    +0.123 C 
BRANCH  20  21
ATOM     21  C   UNL     1       9.189  -1.262  21.821  0.00  0.00    +0.305 C 
ATOM     22  O   UNL     1       8.293  -2.009  22.183  0.00  0.00    -0.251 OA
BRANCH  21  23
ATOM     23  O   UNL     1      10.478  -1.652  21.753  0.00  0.00    -0.481 OA
ATOM     24  H   UNL     1      10.885  -1.879  22.612  0.00  0.00    +0.295 HD
ENDBRANCH  21  23
ENDBRANCH  20  21
ENDBRANCH  19  20
ENDBRANCH  13  19
ENDBRANCH  11  13
ENDBRANCH  10  11
ENDBRANCH   4  10
BRANCH   5  25
ATOM     25  C   UNL     1       8.482  -3.120  26.425  0.00  0.00    +0.209 C 
BRANCH  25  26
ATOM     26  O   UNL     1       7.974  -4.257  25.757  0.00  0.00    -0.282 OA
BRANCH  26  27
ATOM     27  P   UNL     1       8.890  -4.788  24.561  0.00  0.00    +0.473 P 
ATOM     28  O   UNL     1       8.212  -5.424  23.401  0.00  0.00    -0.228 OA
BRANCH  27  29
ATOM     29  O   UNL     1       9.893  -5.777  25.312  0.00  0.00    -0.303 OA
ATOM     30  H   UNL     1       9.626  -5.884  26.246  0.00  0.00    +0.222 HD
ENDBRANCH  27  29
BRANCH  27  31
ATOM     31  O   UNL     1       9.872  -3.579  24.240  0.00  0.00    -0.303 OA
ATOM     32  H   UNL     1      10.780  -3.780  24.528  0.00  0.00    +0.222 HD
ENDBRANCH  27  31
ENDBRANCH  26  27
ENDBRANCH  25  26
ENDBRANCH   5  25
TORSDOF 15
ENDMDL
MODEL 9
REMARK VINA RESULT:      -5.5      2.902      6.678
REMARK  Name = 
REMARK  17 active torsions:
REMARK  status: ('A' for Active; 'I' for Inactive)
REMARK    1  A    between atoms: C_1  and  C_2
REMARK    2  A    between atoms: C_5  and  C_6
REMARK    3  A    between atoms: C_6  and  O_7
REMARK    4  A    between atoms: O_7  and  P_8
REMARK    5  A    between atoms: P_8  and  O_9
REMARK    6  A    between atoms: P_8  and  O_10
REMARK    7  A    between atoms: C_12  and  C_13
REMARK    8  A    between atoms: C_13  and  N_14
REMARK    9  A    between atoms: N_14  and  C_15
REMARK   10  A    between atoms: C_15  and  C_16
REMARK   11  A    between atoms: C_15  and  C_17
REMARK   12  A    between atoms: C_15  and  C_22
REMARK   13  A    between atoms: C_17  and  C_18
REMARK   14  A    between atoms: C_18  and  C_19
REMARK   15  A    between atoms: C_19  and  O_20
REMARK   16  A    between atoms: C_22  and  O_23
REMARK   17  A    between atoms: C_25  and  O_26
REMARK                            x       y       z     vdW  Elec       q    Type
REMARK                         _______ _______ _______ _____ _____    ______ ____
ROOT
ATOM      1  C   UNL     1       4.164  -0.288  27.110  0.00  0.00    +0.069 C 
ATOM      2  C   UNL     1       4.957  -1.289  26.321  0.00  0.00    +0.080 A 
ATOM      3  C   UNL     1       5.497  -0.963  25.071  0.00  0.00    +0.142 A 
ATOM      4  C   UNL     1       6.201  -1.932  24.327  0.00  0.00    +0.016 A 
ATOM      5  C   UNL     1       6.344  -3.216  24.911  0.00  0.00    +0.005 A 
ATOM      6  C   UNL     1       5.752  -3.439  26.160  0.00  0.00    +0.117 A 
ATOM      7  N   UNL     1       5.076  -2.518  26.870  0.00  0.00    -0.256 NA
ENDROOT
BRANCH   3   8
ATOM      8  O   UNL     1       5.275   0.302  24.596  0.00  0.00    -0.505 OA
ATOM      9  H   UNL     1       6.095   0.657  24.218  0.00  0.00    +0.292 HD
ENDBRANCH   3   8
BRANCH   4  10
ATOM     10  C   UNL     1       6.671  -1.626  22.912  0.00  0.00    +0.121 C 
BRANCH  10  11
ATOM     11  N   UNL     1       7.224  -0.258  22.757  0.00  0.00    -0.298 NA
ATOM     12  H   UNL     1       6.995   0.224  23.638  0.00  0.00    +0.123 HD
BRANCH  11  13
ATOM     13  C   UNL     1       8.738  -0.222  22.618  0.00  0.00    +0.115 C 
ATOM     14  C   UNL     1       9.266  -1.481  21.914  0.00  0.00    +0.039 C 
BRANCH  13  15
ATOM     15  C   UNL     1       9.342  -0.218  24.059  0.00  0.00    +0.325 C 
ATOM     16  O   UNL     1       8.874   0.375  25.019  0.00  0.00    -0.249 OA
BRANCH  15  17
ATOM     17  O   UNL     1      10.441  -1.009  24.153  0.00  0.00    -0.479 OA
ATOM     18  H   UNL     1      10.199  -1.909  23.840  0.00  0.00    +0.295 HD
ENDBRANCH  15  17
ENDBRANCH  13  15
BRANCH  13  19
ATOM     19  C   UNL     1       9.209   1.091  21.933  0.00  0.00    +0.044 C 
BRANCH  19  20
ATOM     20  C   UNL     1       8.113   2.157  21.773  0.00  0.00    +0.123 C 
BRANCH  20  21
ATOM     21  C   UNL     1       8.017   3.044  22.998  0.00  0.00    +0.305 C 
ATOM     22  O   UNL     1       8.717   4.025  23.198  0.00  0.00    -0.251 OA
BRANCH  21  23
ATOM     23  O   UNL     1       7.108   2.606  23.892  0.00  0.00    -0.481 OA
ATOM     24  H   UNL     1       7.466   2.402  24.778  0.00  0.00    +0.295 HD
ENDBRANCH  21  23
ENDBRANCH  20  21
ENDBRANCH  19  20
ENDBRANCH  13  19
ENDBRANCH  11  13
ENDBRANCH  10  11
ENDBRANCH   4  10
BRANCH   5  25
ATOM     25  C   UNL     1       6.984  -4.415  24.260  0.00  0.00    +0.209 C 
BRANCH  25  26
ATOM     26  O   UNL     1       7.664  -5.215  25.206  0.00  0.00    -0.282 OA
BRANCH  26  27
ATOM     27  P   UNL     1       9.209  -4.857  25.389  0.00  0.00    +0.473 P 
ATOM     28  O   UNL     1       9.775  -3.782  24.532  0.00  0.00    -0.228 OA
BRANCH  27  29
ATOM     29  O   UNL     1       9.917  -6.270  25.160  0.00  0.00    -0.303 OA
ATOM     30  H   UNL     1      10.818  -6.142  24.806  0.00  0.00    +0.222 HD
ENDBRANCH  27  29
BRANCH  27  31
ATOM     31  O   UNL     1       9.402  -4.695  26.959  0.00  0.00    -0.303 OA
ATOM     32  H   UNL     1       8.553  -4.786  27.426  0.00  0.00    +0.222 HD
ENDBRANCH  27  31
ENDBRANCH  26  27
ENDBRANCH  25  26
ENDBRANCH   5  25
TORSDOF 15
ENDMDL
