MODEL 1
REMARK VINA RESULT:      -6.8      0.000      0.000
REMARK  Name = 
REMARK  8 active torsions:
REMARK  status: ('A' for Active; 'I' for Inactive)
REMARK    1  A    between atoms: C_2  and  C_3
REMARK    2  A    between atoms: C_6  and  C_8
REMARK    3  A    between atoms: C_8  and  C_9
REMARK    4  A    between atoms: C_8  and  O_10
REMARK    5  A    between atoms: C_8  and  C_11
REMARK    6  A    between atoms: C_15  and  C_17
REMARK    7  A    between atoms: C_20  and  C_22
REMARK    8  A    between atoms: C_25  and  C_28
REMARK                            x       y       z     vdW  Elec       q    Type
REMARK                         _______ _______ _______ _____ _____    ______ ____
ROOT
ATOM      1  C   UNL     1       7.117  -1.996  24.398  0.00  0.00    +0.091 C 
ATOM      2  N   UNL     1       8.184  -3.029  24.345  0.00  0.00    -0.291 N 
ATOM      3  C   UNL     1       8.153  -4.426  24.419  0.00  0.00    +0.247 C 
ATOM      4  O   UNL     1       9.184  -5.100  24.368  0.00  0.00    -0.270 OA
ATOM      5  C   UNL     1       9.502  -2.423  24.001  0.00  0.00    +0.130 C 
ATOM      6  C   UNL     1       9.429  -1.634  22.654  0.00  0.00    +0.090 C 
ATOM      7  C   UNL     1      10.816  -1.142  22.242  0.00  0.00    +0.029 C 
ATOM      8  N   UNL     1       8.288  -0.657  22.702  0.00  0.00    -0.293 N 
ATOM      9  C   UNL     1       8.433   0.730  22.683  0.00  0.00    +0.256 C 
ATOM     10  O   UNL     1       9.518   1.256  22.410  0.00  0.00    -0.272 OA
ATOM     11  C   UNL     1       7.028  -1.344  23.003  0.00  0.00    +0.130 C 
ATOM     12  C   UNL     1       5.720  -2.254  24.951  0.00  0.00    +0.029 C 
ENDROOT
BRANCH   3  13
ATOM     13  C   UNL     1       6.905  -5.209  24.594  0.00  0.00    +0.037 A 
ATOM     14  C   UNL     1       6.131  -5.494  23.461  0.00  0.00    +0.014 A 
ATOM     15  C   UNL     1       4.969  -6.252  23.564  0.00  0.00    +0.019 A 
ATOM     16  C   UNL     1       4.572  -6.739  24.808  0.00  0.00    +0.052 A 
ATOM     17  C   UNL     1       5.302  -6.405  25.951  0.00  0.00    +0.019 A 
ATOM     18  C   UNL     1       6.422  -5.578  25.847  0.00  0.00    +0.014 A 
BRANCH  16  19
ATOM     19  C   UNL     1       3.414  -7.567  24.918  0.00  0.00    +0.099 C 
ATOM     20  N   UNL     1       2.482  -8.253  24.995  0.00  0.00    -0.191 NA
ENDBRANCH  16  19
ENDBRANCH   3  13
BRANCH   9  21
ATOM     21  C   UNL     1       7.237   1.685  23.008  0.00  0.00    +0.234 C 
ATOM     22  C   UNL     1       7.376   3.049  22.321  0.00  0.00    +0.061 C 
BRANCH  21  23
ATOM     23  C   UNL     1       7.017   1.790  24.531  0.00  0.00    +0.427 C 
ATOM     24  F   UNL     1       5.897   1.143  24.932  0.00  0.00    -0.167 F 
ATOM     25  F   UNL     1       6.885   3.079  24.937  0.00  0.00    -0.167 F 
ATOM     26  F   UNL     1       8.037   1.263  25.249  0.00  0.00    -0.167 F 
ENDBRANCH  21  23
BRANCH  21  27
ATOM     27  O   UNL     1       6.042   1.140  22.367  0.00  0.00    -0.373 OA
ATOM     28  H   UNL     1       5.275   1.495  22.855  0.00  0.00    +0.211 HD
ENDBRANCH  21  27
ENDBRANCH   9  21
TORSDOF 5
ENDMDL
MODEL 2
REMARK VINA RESULT:      -6.8      3.531      7.636
REMARK  Name = 
REMARK  8 active torsions:
REMARK  status: ('A' for Active; 'I' for Inactive)
REMARK    1  A    between atoms: C_2  and  C_3
REMARK    2  A    between atoms: C_6  and  C_8
REMARK    3  A    between atoms: C_8  and  C_9
REMARK    4  A    between atoms: C_8  and  O_10
REMARK    5  A    between atoms: C_8  and  C_11
REMARK    6  A    between atoms: C_15  and  C_17
REMARK    7  A    between atoms: C_20  and  C_22
REMARK    8  A    between atoms: C_25  and  C_28
REMARK                            x       y       z     vdW  Elec       q    Type
REMARK                         _______ _______ _______ _____ _____    ______ ____
ROOT
ATOM      1  C   UNL     1       7.662  -2.211  24.175  0.00  0.00    +0.091 C 
ATOM      2  N   UNL     1       8.253  -1.968  25.516  0.00  0.00    -0.291 N 
ATOM      3  C   UNL     1       8.759  -0.818  26.133  0.00  0.00    +0.247 C 
ATOM      4  O   UNL     1       9.226  -0.847  27.273  0.00  0.00    -0.270 OA
ATOM      5  C   UNL     1       8.128  -3.173  26.385  0.00  0.00    +0.130 C 
ATOM      6  C   UNL     1       6.639  -3.629  26.511  0.00  0.00    +0.090 C 
ATOM      7  C   UNL     1       6.510  -4.773  27.516  0.00  0.00    +0.029 C 
ATOM      8  N   UNL     1       6.040  -3.785  25.141  0.00  0.00    -0.293 N 
ATOM      9  C   UNL     1       5.621  -4.997  24.595  0.00  0.00    +0.256 C 
ATOM     10  O   UNL     1       5.518  -6.012  25.292  0.00  0.00    -0.272 OA
ATOM     11  C   UNL     1       6.169  -2.541  24.374  0.00  0.00    +0.130 C 
ATOM     12  C   UNL     1       7.841  -1.268  22.990  0.00  0.00    +0.029 C 
ENDROOT
BRANCH   3  13
ATOM     13  C   UNL     1       8.808   0.510  25.474  0.00  0.00    +0.037 A 
ATOM     14  C   UNL     1       7.683   1.342  25.563  0.00  0.00    +0.014 A 
ATOM     15  C   UNL     1       7.688   2.610  24.992  0.00  0.00    +0.019 A 
ATOM     16  C   UNL     1       8.826   3.062  24.326  0.00  0.00    +0.052 A 
ATOM     17  C   UNL     1       9.926   2.215  24.177  0.00  0.00    +0.019 A 
ATOM     18  C   UNL     1       9.882   0.915  24.686  0.00  0.00    +0.014 A 
BRANCH  16  19
ATOM     19  C   UNL     1       8.864   4.383  23.786  0.00  0.00    +0.099 C 
ATOM     20  N   UNL     1       8.888   5.464  23.365  0.00  0.00    -0.191 NA
ENDBRANCH  16  19
ENDBRANCH   3  13
BRANCH   9  21
ATOM     21  C   UNL     1       5.263  -5.133  23.077  0.00  0.00    +0.234 C 
ATOM     22  C   UNL     1       4.203  -6.212  22.821  0.00  0.00    +0.061 C 
BRANCH  21  23
ATOM     23  C   UNL     1       6.537  -5.317  22.228  0.00  0.00    +0.427 C 
ATOM     24  F   UNL     1       6.839  -4.210  21.510  0.00  0.00    -0.167 F 
ATOM     25  F   UNL     1       6.409  -6.333  21.336  0.00  0.00    -0.167 F 
ATOM     26  F   UNL     1       7.632  -5.596  22.973  0.00  0.00    -0.167 F 
ENDBRANCH  21  23
BRANCH  21  27
ATOM     27  O   UNL     1       4.564  -3.916  22.671  0.00  0.00    -0.373 OA
ATOM     28  H   UNL     1       4.561  -3.905  21.695  0.00  0.00    +0.211 HD
ENDBRANCH  21  27
ENDBRANCH   9  21
TORSDOF 5
ENDMDL
MODEL 3
REMARK VINA RESULT:      -6.6      1.412      1.997
REMARK  Name = 
REMARK  8 active torsions:
REMARK  status: ('A' for Active; 'I' for Inactive)
REMARK    1  A    between atoms: C_2  and  C_3
REMARK    2  A    between atoms: C_6  and  C_8
REMARK    3  A    between atoms: C_8  and  C_9
REMARK    4  A    between atoms: C_8  and  O_10
REMARK    5  A    between atoms: C_8  and  C_11
REMARK    6  A    between atoms: C_15  and  C_17
REMARK    7  A    between atoms: C_20  and  C_22
REMARK    8  A    between atoms: C_25  and  C_28
REMARK                            x       y       z     vdW  Elec       q    Type
REMARK                         _______ _______ _______ _____ _____    ______ ____
ROOT
ATOM      1  C   UNL     1       7.547  -1.644  25.141  0.00  0.00    +0.091 C 
ATOM      2  N   UNL     1       8.434  -2.736  24.663  0.00  0.00    -0.291 N 
ATOM      3  C   UNL     1       8.417  -4.122  24.858  0.00  0.00    +0.247 C 
ATOM      4  O   UNL     1       9.281  -4.854  24.370  0.00  0.00    -0.270 OA
ATOM      5  C   UNL     1       9.428  -2.227  23.676  0.00  0.00    +0.130 C 
ATOM      6  C   UNL     1       8.723  -1.522  22.474  0.00  0.00    +0.090 C 
ATOM      7  C   UNL     1       9.742  -1.135  21.403  0.00  0.00    +0.029 C 
ATOM      8  N   UNL     1       7.768  -0.481  22.987  0.00  0.00    -0.293 N 
ATOM      9  C   UNL     1       7.910   0.891  22.786  0.00  0.00    +0.256 C 
ATOM     10  O   UNL     1       8.734   1.338  21.980  0.00  0.00    -0.272 OA
ATOM     11  C   UNL     1       6.801  -1.077  23.916  0.00  0.00    +0.130 C 
ATOM     12  C   UNL     1       6.591  -1.788  26.320  0.00  0.00    +0.029 C 
ENDROOT
BRANCH   3  13
ATOM     13  C   UNL     1       7.399  -4.821  25.678  0.00  0.00    +0.037 A 
ATOM     14  C   UNL     1       7.704  -5.111  27.016  0.00  0.00    +0.014 A 
ATOM     15  C   UNL     1       6.773  -5.736  27.839  0.00  0.00    +0.019 A 
ATOM     16  C   UNL     1       5.520  -6.074  27.331  0.00  0.00    +0.052 A 
ATOM     17  C   UNL     1       5.233  -5.849  25.983  0.00  0.00    +0.019 A 
ATOM     18  C   UNL     1       6.202  -5.293  25.145  0.00  0.00    +0.014 A 
BRANCH  16  19
ATOM     19  C   UNL     1       4.536  -6.662  28.181  0.00  0.00    +0.099 C 
ATOM     20  N   UNL     1       3.743  -7.129  28.888  0.00  0.00    -0.191 NA
ENDBRANCH  16  19
ENDBRANCH   3  13
BRANCH   9  21
ATOM     21  C   UNL     1       7.041   1.930  23.571  0.00  0.00    +0.234 C 
ATOM     22  C   UNL     1       6.887   3.254  22.811  0.00  0.00    +0.061 C 
BRANCH  21  23
ATOM     23  C   UNL     1       7.568   2.112  25.009  0.00  0.00    +0.427 C 
ATOM     24  F   UNL     1       7.726   3.416  25.335  0.00  0.00    -0.167 F 
ATOM     25  F   UNL     1       8.778   1.520  25.183  0.00  0.00    -0.167 F 
ATOM     26  F   UNL     1       6.743   1.584  25.944  0.00  0.00    -0.167 F 
ENDBRANCH  21  23
BRANCH  21  27
ATOM     27  O   UNL     1       5.668   1.433  23.600  0.00  0.00    -0.373 OA
ATOM     28  H   UNL     1       5.114   2.111  23.167  0.00  0.00    +0.211 HD
ENDBRANCH  21  27
ENDBRANCH   9  21
TORSDOF 5
ENDMDL
MODEL 4
REMARK VINA RESULT:      -6.5      3.130      7.364
REMARK  Name = 
REMARK  8 active torsions:
REMARK  status: ('A' for Active; 'I' for Inactive)
REMARK    1  A    between atoms: C_2  and  C_3
REMARK    2  A    between atoms: C_6  and  C_8
REMARK    3  A    between atoms: C_8  and  C_9
REMARK    4  A    between atoms: C_8  and  O_10
REMARK    5  A    between atoms: C_8  and  C_11
REMARK    6  A    between atoms: C_15  and  C_17
REMARK    7  A    between atoms: C_20  and  C_22
REMARK    8  A    between atoms: C_25  and  C_28
REMARK                            x       y       z     vdW  Elec       q    Type
REMARK                         _______ _______ _______ _____ _____    ______ ____
ROOT
ATOM      1  C   UNL     1       7.135  -1.924  24.413  0.00  0.00    +0.091 C 
ATOM      2  N   UNL     1       8.491  -2.016  23.813  0.00  0.00    -0.291 N 
ATOM      3  C   UNL     1       9.358  -1.054  23.283  0.00  0.00    +0.247 C 
ATOM      4  O   UNL     1      10.456  -1.362  22.811  0.00  0.00    -0.270 OA
ATOM      5  C   UNL     1       9.050  -3.390  23.957  0.00  0.00    +0.130 C 
ATOM      6  C   UNL     1       9.076  -3.837  25.455  0.00  0.00    +0.090 C 
ATOM      7  C   UNL     1       9.783  -5.184  25.603  0.00  0.00    +0.029 C 
ATOM      8  N   UNL     1       7.714  -3.653  26.061  0.00  0.00    -0.293 N 
ATOM      9  C   UNL     1       6.899  -4.693  26.506  0.00  0.00    +0.256 C 
ATOM     10  O   UNL     1       7.337  -5.842  26.626  0.00  0.00    -0.272 OA
ATOM     11  C   UNL     1       7.262  -2.265  25.912  0.00  0.00    +0.130 C 
ATOM     12  C   UNL     1       6.206  -0.730  24.220  0.00  0.00    +0.029 C 
ENDROOT
BRANCH   3  13
ATOM     13  C   UNL     1       9.032   0.391  23.210  0.00  0.00    +0.037 A 
ATOM     14  C   UNL     1       8.594   0.916  21.986  0.00  0.00    +0.014 A 
ATOM     15  C   UNL     1       8.244   2.257  21.871  0.00  0.00    +0.019 A 
ATOM     16  C   UNL     1       8.325   3.089  22.986  0.00  0.00    +0.052 A 
ATOM     17  C   UNL     1       8.822   2.589  24.191  0.00  0.00    +0.019 A 
ATOM     18  C   UNL     1       9.245   1.261  24.276  0.00  0.00    +0.014 A 
BRANCH  16  19
ATOM     19  C   UNL     1       7.912   4.452  22.895  0.00  0.00    +0.099 C 
ATOM     20  N   UNL     1       7.596   5.566  22.822  0.00  0.00    -0.191 NA
ENDBRANCH  16  19
ENDBRANCH   3  13
BRANCH   9  21
ATOM     21  C   UNL     1       5.395  -4.458  26.872  0.00  0.00    +0.234 C 
ATOM     22  C   UNL     1       4.870  -5.496  27.872  0.00  0.00    +0.061 C 
BRANCH  21  23
ATOM     23  C   UNL     1       4.532  -4.348  25.598  0.00  0.00    +0.427 C 
ATOM     24  F   UNL     1       4.081  -3.088  25.394  0.00  0.00    -0.167 F 
ATOM     25  F   UNL     1       3.435  -5.146  25.660  0.00  0.00    -0.167 F 
ATOM     26  F   UNL     1       5.202  -4.699  24.476  0.00  0.00    -0.167 F 
ENDBRANCH  21  23
BRANCH  21  27
ATOM     27  O   UNL     1       5.310  -3.220  27.643  0.00  0.00    -0.373 OA
ATOM     28  H   UNL     1       5.024  -3.470  28.543  0.00  0.00    +0.211 HD
ENDBRANCH  21  27
ENDBRANCH   9  21
TORSDOF 5
ENDMDL
MODEL 5
REMARK VINA RESULT:      -6.5      1.499      2.209
REMARK  Name = 
REMARK  8 active torsions:
REMARK  status: ('A' for Active; 'I' for Inactive)
REMARK    1  A    between atoms: C_2  and  C_3
REMARK    2  A    between atoms: C_6  and  C_8
REMARK    3  A    between atoms: C_8  and  C_9
REMARK    4  A    between atoms: C_8  and  O_10
REMARK    5  A    between atoms: C_8  and  C_11
REMARK    6  A    between atoms: C_15  and  C_17
REMARK    7  A    between atoms: C_20  and  C_22
REMARK    8  A    between atoms: C_25  and  C_28
REMARK                            x       y       z     vdW  Elec       q    Type
REMARK                         _______ _______ _______ _____ _____    ______ ____
ROOT
ATOM      1  C   UNL     1       6.990  -0.546  24.211  0.00  0.00    +0.091 C 
ATOM      2  N   UNL     1       8.288  -1.236  23.991  0.00  0.00    -0.291 N 
ATOM      3  C   UNL     1       8.634  -2.587  23.877  0.00  0.00    +0.247 C 
ATOM      4  O   UNL     1       9.803  -2.944  23.710  0.00  0.00    -0.270 OA
ATOM      5  C   UNL     1       9.373  -0.257  23.698  0.00  0.00    +0.130 C 
ATOM      6  C   UNL     1       9.010   0.642  22.472  0.00  0.00    +0.090 C 
ATOM      7  C   UNL     1      10.188   1.539  22.094  0.00  0.00    +0.029 C 
ATOM      8  N   UNL     1       7.656   1.259  22.681  0.00  0.00    -0.293 N 
ATOM      9  C   UNL     1       7.425   2.623  22.845  0.00  0.00    +0.256 C 
ATOM     10  O   UNL     1       8.312   3.454  22.616  0.00  0.00    -0.272 OA
ATOM     11  C   UNL     1       6.645   0.222  22.919  0.00  0.00    +0.130 C 
ATOM     12  C   UNL     1       5.749  -1.239  24.760  0.00  0.00    +0.029 C 
ENDROOT
BRANCH   3  13
ATOM     13  C   UNL     1       7.654  -3.694  23.978  0.00  0.00    +0.037 A 
ATOM     14  C   UNL     1       7.490  -4.331  25.216  0.00  0.00    +0.014 A 
ATOM     15  C   UNL     1       6.560  -5.354  25.375  0.00  0.00    +0.019 A 
ATOM     16  C   UNL     1       5.778  -5.748  24.291  0.00  0.00    +0.052 A 
ATOM     17  C   UNL     1       5.980  -5.164  23.039  0.00  0.00    +0.019 A 
ATOM     18  C   UNL     1       6.970  -4.193  22.872  0.00  0.00    +0.014 A 
BRANCH  16  19
ATOM     19  C   UNL     1       4.780  -6.755  24.455  0.00  0.00    +0.099 C 
ATOM     20  N   UNL     1       3.957  -7.560  24.598  0.00  0.00    -0.191 NA
ENDBRANCH  16  19
ENDBRANCH   3  13
BRANCH   9  21
ATOM     21  C   UNL     1       6.040   3.170  23.327  0.00  0.00    +0.234 C 
ATOM     22  C   UNL     1       5.795   4.616  22.877  0.00  0.00    +0.061 C 
BRANCH  21  23
ATOM     23  C   UNL     1       5.870   2.968  24.846  0.00  0.00    +0.427 C 
ATOM     24  F   UNL     1       5.470   4.101  25.471  0.00  0.00    -0.167 F 
ATOM     25  F   UNL     1       7.030   2.587  25.440  0.00  0.00    -0.167 F 
ATOM     26  F   UNL     1       4.952   2.022  25.153  0.00  0.00    -0.167 F 
ENDBRANCH  21  23
BRANCH  21  27
ATOM     27  O   UNL     1       4.997   2.445  22.605  0.00  0.00    -0.373 OA
ATOM     28  H   UNL     1       4.194   2.484  23.159  0.00  0.00    +0.211 HD
ENDBRANCH  21  27
ENDBRANCH   9  21
TORSDOF 5
ENDMDL
MODEL 6
REMARK VINA RESULT:      -6.3      2.912      7.410
REMARK  Name = 
REMARK  8 active torsions:
REMARK  status: ('A' for Active; 'I' for Inactive)
REMARK    1  A    between atoms: C_2  and  C_3
REMARK    2  A    between atoms: C_6  and  C_8
REMARK    3  A    between atoms: C_8  and  C_9
REMARK    4  A    between atoms: C_8  and  O_10
REMARK    5  A    between atoms: C_8  and  C_11
REMARK    6  A    between atoms: C_15  and  C_17
REMARK    7  A    between atoms: C_20  and  C_22
REMARK    8  A    between atoms: C_25  and  C_28
REMARK                            x       y       z     vdW  Elec       q    Type
REMARK                         _______ _______ _______ _____ _____    ______ ____
ROOT
ATOM      1  C   UNL     1       7.124  -1.451  24.024  0.00  0.00    +0.091 C 
ATOM      2  N   UNL     1       8.067  -1.904  22.969  0.00  0.00    -0.291 N 
ATOM      3  C   UNL     1       9.148  -1.281  22.334  0.00  0.00    +0.247 C 
ATOM      4  O   UNL     1       9.797  -1.850  21.454  0.00  0.00    -0.270 OA
ATOM      5  C   UNL     1       7.878  -3.351  22.665  0.00  0.00    +0.130 C 
ATOM      6  C   UNL     1       8.027  -4.225  23.952  0.00  0.00    +0.090 C 
ATOM      7  C   UNL     1       7.976  -5.712  23.602  0.00  0.00    +0.029 C 
ATOM      8  N   UNL     1       7.127  -3.694  25.031  0.00  0.00    -0.293 N 
ATOM      9  C   UNL     1       6.032  -4.378  25.555  0.00  0.00    +0.256 C 
ATOM     10  O   UNL     1       5.848  -5.575  25.311  0.00  0.00    -0.272 OA
ATOM     11  C   UNL     1       7.411  -2.278  25.294  0.00  0.00    +0.130 C 
ATOM     12  C   UNL     1       6.904   0.013  24.387  0.00  0.00    +0.029 C 
ENDROOT
BRANCH   3  13
ATOM     13  C   UNL     1       9.583   0.105  22.632  0.00  0.00    +0.037 A 
ATOM     14  C   UNL     1      10.368   0.328  23.772  0.00  0.00    +0.014 A 
ATOM     15  C   UNL     1      10.831   1.603  24.080  0.00  0.00    +0.019 A 
ATOM     16  C   UNL     1      10.515   2.672  23.244  0.00  0.00    +0.052 A 
ATOM     17  C   UNL     1       9.680   2.470  22.143  0.00  0.00    +0.019 A 
ATOM     18  C   UNL     1       9.156   1.201  21.886  0.00  0.00    +0.014 A 
BRANCH  16  19
ATOM     19  C   UNL     1      11.033   3.974  23.517  0.00  0.00    +0.099 C 
ATOM     20  N   UNL     1      11.461   5.033  23.720  0.00  0.00    -0.191 NA
ENDBRANCH  16  19
ENDBRANCH   3  13
BRANCH   9  21
ATOM     21  C   UNL     1       4.981  -3.666  26.473  0.00  0.00    +0.234 C 
ATOM     22  C   UNL     1       4.241  -4.652  27.385  0.00  0.00    +0.061 C 
BRANCH  21  23
ATOM     23  C   UNL     1       4.035  -2.780  25.639  0.00  0.00    +0.427 C 
ATOM     24  F   UNL     1       4.252  -1.460  25.849  0.00  0.00    -0.167 F 
ATOM     25  F   UNL     1       2.731  -3.010  25.937  0.00  0.00    -0.167 F 
ATOM     26  F   UNL     1       4.165  -2.978  24.306  0.00  0.00    -0.167 F 
ENDBRANCH  21  23
BRANCH  21  27
ATOM     27  O   UNL     1       5.713  -2.848  27.438  0.00  0.00    -0.373 OA
ATOM     28  H   UNL     1       6.587  -3.268  27.556  0.00  0.00    +0.211 HD
ENDBRANCH  21  27
ENDBRANCH   9  21
TORSDOF 5
ENDMDL
MODEL 7
REMARK VINA RESULT:      -6.3      2.892      7.342
REMARK  Name = 
REMARK  8 active torsions:
REMARK  status: ('A' for Active; 'I' for Inactive)
REMARK    1  A    between atoms: C_2  and  C_3
REMARK    2  A    between atoms: C_6  and  C_8
REMARK    3  A    between atoms: C_8  and  C_9
REMARK    4  A    between atoms: C_8  and  O_10
REMARK    5  A    between atoms: C_8  and  C_11
REMARK    6  A    between atoms: C_15  and  C_17
REMARK    7  A    between atoms: C_20  and  C_22
REMARK    8  A    between atoms: C_25  and  C_28
REMARK                            x       y       z     vdW  Elec       q    Type
REMARK                         _______ _______ _______ _____ _____    ______ ____
ROOT
ATOM      1  C   UNL     1       6.798  -1.595  23.999  0.00  0.00    +0.091 C 
ATOM      2  N   UNL     1       7.757  -1.934  22.916  0.00  0.00    -0.291 N 
ATOM      3  C   UNL     1       8.799  -1.218  22.316  0.00  0.00    +0.247 C 
ATOM      4  O   UNL     1       9.472  -1.698  21.401  0.00  0.00    -0.270 OA
ATOM      5  C   UNL     1       7.642  -3.368  22.526  0.00  0.00    +0.130 C 
ATOM      6  C   UNL     1       7.845  -4.308  23.757  0.00  0.00    +0.090 C 
ATOM      7  C   UNL     1       7.869  -5.772  23.319  0.00  0.00    +0.029 C 
ATOM      8  N   UNL     1       6.925  -3.891  24.869  0.00  0.00    -0.293 N 
ATOM      9  C   UNL     1       5.870  -4.662  25.355  0.00  0.00    +0.256 C 
ATOM     10  O   UNL     1       5.748  -5.851  25.040  0.00  0.00    -0.272 OA
ATOM     11  C   UNL     1       7.136  -2.481  25.216  0.00  0.00    +0.130 C 
ATOM     12  C   UNL     1       6.504  -0.169  24.450  0.00  0.00    +0.029 C 
ENDROOT
BRANCH   3  13
ATOM     13  C   UNL     1       9.163   0.169  22.696  0.00  0.00    +0.037 A 
ATOM     14  C   UNL     1       8.670   1.226  21.918  0.00  0.00    +0.014 A 
ATOM     15  C   UNL     1       8.954   2.547  22.249  0.00  0.00    +0.019 A 
ATOM     16  C   UNL     1       9.734   2.825  23.369  0.00  0.00    +0.052 A 
ATOM     17  C   UNL     1      10.284   1.776  24.111  0.00  0.00    +0.019 A 
ATOM     18  C   UNL     1      10.058   0.453  23.725  0.00  0.00    +0.014 A 
BRANCH  16  19
ATOM     19  C   UNL     1       9.984   4.177  23.752  0.00  0.00    +0.099 C 
ATOM     20  N   UNL     1      10.182   5.281  24.045  0.00  0.00    -0.191 NA
ENDBRANCH  16  19
ENDBRANCH   3  13
BRANCH   9  21
ATOM     21  C   UNL     1       4.790  -4.063  26.318  0.00  0.00    +0.234 C 
ATOM     22  C   UNL     1       4.099  -5.141  27.161  0.00  0.00    +0.061 C 
BRANCH  21  23
ATOM     23  C   UNL     1       3.801  -3.168  25.543  0.00  0.00    +0.427 C 
ATOM     24  F   UNL     1       3.960  -3.271  24.203  0.00  0.00    -0.167 F 
ATOM     25  F   UNL     1       3.958  -1.855  25.852  0.00  0.00    -0.167 F 
ATOM     26  F   UNL     1       2.506  -3.471  25.797  0.00  0.00    -0.167 F 
ENDBRANCH  21  23
BRANCH  21  27
ATOM     27  O   UNL     1       5.485  -3.278  27.335  0.00  0.00    -0.373 OA
ATOM     28  H   UNL     1       6.250  -3.810  27.626  0.00  0.00    +0.211 HD
ENDBRANCH  21  27
ENDBRANCH   9  21
TORSDOF 5
ENDMDL
MODEL 8
REMARK VINA RESULT:      -6.1      3.169      7.346
REMARK  Name = 
REMARK  8 active torsions:
REMARK  status: ('A' for Active; 'I' for Inactive)
REMARK    1  A    between atoms: C_2  and  C_3
REMARK    2  A    between atoms: C_6  and  C_8
REMARK    3  A    between atoms: C_8  and  C_9
REMARK    4  A    between atoms: C_8  and  O_10
REMARK    5  A    between atoms: C_8  and  C_11
REMARK    6  A    between atoms: C_15  and  C_17
REMARK    7  A    between atoms: C_20  and  C_22
REMARK    8  A    between atoms: C_25  and  C_28
REMARK                            x       y       z     vdW  Elec       q    Type
REMARK                         _______ _______ _______ _____ _____    ______ ____
ROOT
ATOM      1  C   UNL     1       6.755  -1.600  23.900  0.00  0.00    +0.091 C 
ATOM      2  N   UNL     1       7.770  -1.947  22.873  0.00  0.00    -0.291 N 
ATOM      3  C   UNL     1       8.838  -1.232  22.318  0.00  0.00    +0.247 C 
ATOM      4  O   UNL     1       9.560  -1.720  21.446  0.00  0.00    -0.270 OA
ATOM      5  C   UNL     1       7.685  -3.388  22.497  0.00  0.00    +0.130 C 
ATOM      6  C   UNL     1       7.829  -4.309  23.751  0.00  0.00    +0.090 C 
ATOM      7  C   UNL     1       7.885  -5.779  23.335  0.00  0.00    +0.029 C 
ATOM      8  N   UNL     1       6.850  -3.883  24.808  0.00  0.00    -0.293 N 
ATOM      9  C   UNL     1       5.776  -4.654  25.249  0.00  0.00    +0.256 C 
ATOM     10  O   UNL     1       5.677  -5.848  24.944  0.00  0.00    -0.272 OA
ATOM     11  C   UNL     1       7.034  -2.467  25.145  0.00  0.00    +0.130 C 
ATOM     12  C   UNL     1       6.428  -0.170  24.315  0.00  0.00    +0.029 C 
ENDROOT
BRANCH   3  13
ATOM     13  C   UNL     1       9.174   0.162  22.696  0.00  0.00    +0.037 A 
ATOM     14  C   UNL     1       8.690   1.206  21.896  0.00  0.00    +0.014 A 
ATOM     15  C   UNL     1       8.947   2.533  22.223  0.00  0.00    +0.019 A 
ATOM     16  C   UNL     1       9.691   2.830  23.364  0.00  0.00    +0.052 A 
ATOM     17  C   UNL     1      10.232   1.795  24.130  0.00  0.00    +0.019 A 
ATOM     18  C   UNL     1      10.034   0.466  23.748  0.00  0.00    +0.014 A 
BRANCH  16  19
ATOM     19  C   UNL     1       9.912   4.188  23.743  0.00  0.00    +0.099 C 
ATOM     20  N   UNL     1      10.112   5.289  24.048  0.00  0.00    -0.191 NA
ENDBRANCH  16  19
ENDBRANCH   3  13
BRANCH   9  21
ATOM     21  C   UNL     1       4.644  -4.050  26.145  0.00  0.00    +0.234 C 
ATOM     22  C   UNL     1       3.974  -2.832  25.497  0.00  0.00    +0.061 C 
BRANCH  21  23
ATOM     23  C   UNL     1       5.163  -3.773  27.571  0.00  0.00    +0.427 C 
ATOM     24  F   UNL     1       5.286  -2.448  27.822  0.00  0.00    -0.167 F 
ATOM     25  F   UNL     1       6.386  -4.322  27.780  0.00  0.00    -0.167 F 
ATOM     26  F   UNL     1       4.349  -4.267  28.534  0.00  0.00    -0.167 F 
ENDBRANCH  21  23
BRANCH  21  27
ATOM     27  O   UNL     1       3.547  -5.013  26.190  0.00  0.00    -0.373 OA
ATOM     28  H   UNL     1       3.681  -5.627  25.442  0.00  0.00    +0.211 HD
ENDBRANCH  21  27
ENDBRANCH   9  21
TORSDOF 5
ENDMDL
MODEL 9
REMARK VINA RESULT:      -6.1      2.165      2.901
REMARK  Name = 
REMARK  8 active torsions:
REMARK  status: ('A' for Active; 'I' for Inactive)
REMARK    1  A    between atoms: C_2  and  C_3
REMARK    2  A    between atoms: C_6  and  C_8
REMARK    3  A    between atoms: C_8  and  C_9
REMARK    4  A    between atoms: C_8  and  O_10
REMARK    5  A    between atoms: C_8  and  C_11
REMARK    6  A    between atoms: C_15  and  C_17
REMARK    7  A    between atoms: C_20  and  C_22
REMARK    8  A    between atoms: C_25  and  C_28
REMARK                            x       y       z     vdW  Elec       q    Type
REMARK                         _______ _______ _______ _____ _____    ______ ____
ROOT
ATOM      1  C   UNL     1       8.046  -0.358  25.314  0.00  0.00    +0.091 C 
ATOM      2  N   UNL     1       9.064  -1.159  24.588  0.00  0.00    -0.291 N 
ATOM      3  C   UNL     1       9.247  -2.538  24.430  0.00  0.00    +0.247 C 
ATOM      4  O   UNL     1      10.192  -2.996  23.784  0.00  0.00    -0.270 OA
ATOM      5  C   UNL     1       9.953  -0.286  23.769  0.00  0.00    +0.130 C 
ATOM      6  C   UNL     1       9.125   0.589  22.774  0.00  0.00    +0.090 C 
ATOM      7  C   UNL     1      10.053   1.370  21.844  0.00  0.00    +0.029 C 
ATOM      8  N   UNL     1       8.048   1.323  23.521  0.00  0.00    -0.293 N 
ATOM      9  C   UNL     1       7.992   2.708  23.670  0.00  0.00    +0.256 C 
ATOM     10  O   UNL     1       8.724   3.453  23.010  0.00  0.00    -0.272 OA
ATOM     11  C   UNL     1       7.198   0.384  24.261  0.00  0.00    +0.130 C 
ATOM     12  C   UNL     1       7.150  -0.924  26.410  0.00  0.00    +0.029 C 
ENDROOT
BRANCH   3  13
ATOM     13  C   UNL     1       8.358  -3.556  25.040  0.00  0.00    +0.037 A 
ATOM     14  C   UNL     1       8.755  -4.154  26.244  0.00  0.00    +0.014 A 
ATOM     15  C   UNL     1       7.943  -5.091  26.876  0.00  0.00    +0.019 A 
ATOM     16  C   UNL     1       6.719  -5.437  26.308  0.00  0.00    +0.052 A 
ATOM     17  C   UNL     1       6.346  -4.895  25.076  0.00  0.00    +0.019 A 
ATOM     18  C   UNL     1       7.203  -4.015  24.411  0.00  0.00    +0.014 A 
BRANCH  16  19
ATOM     19  C   UNL     1       5.851  -6.352  26.976  0.00  0.00    +0.099 C 
ATOM     20  N   UNL     1       5.137  -7.081  27.529  0.00  0.00    -0.191 NA
ENDBRANCH  16  19
ENDBRANCH   3  13
BRANCH   9  21
ATOM     21  C   UNL     1       7.006   3.386  24.680  0.00  0.00    +0.234 C 
ATOM     22  C   UNL     1       7.186   2.863  26.111  0.00  0.00    +0.061 C 
BRANCH  21  23
ATOM     23  C   UNL     1       5.552   3.290  24.175  0.00  0.00    +0.427 C 
ATOM     24  F   UNL     1       4.901   4.474  24.262  0.00  0.00    -0.167 F 
ATOM     25  F   UNL     1       4.825   2.396  24.893  0.00  0.00    -0.167 F 
ATOM     26  F   UNL     1       5.467   2.904  22.881  0.00  0.00    -0.167 F 
ENDBRANCH  21  23
BRANCH  21  27
ATOM     27  O   UNL     1       7.398   4.787  24.815  0.00  0.00    -0.373 OA
ATOM     28  H   UNL     1       7.529   4.951  25.769  0.00  0.00    +0.211 HD
ENDBRANCH  21  27
ENDBRANCH   9  21
TORSDOF 5
ENDMDL
