MODEL 1
REMARK VINA RESULT:      -6.1      0.000      0.000
REMARK  Name = 
REMARK  17 active torsions:
REMARK  status: ('A' for Active; 'I' for Inactive)
REMARK    1  A    between atoms: C_1  and  C_2
REMARK    2  A    between atoms: C_2  and  N_3
REMARK    3  A    between atoms: N_3  and  C_4
REMARK    4  A    between atoms: C_4  and  C_5
REMARK    5  A    between atoms: N_8  and  C_9
REMARK    6  A    between atoms: C_12  and  O_13
REMARK    7  A    between atoms: O_13  and  C_14
REMARK    8  A    between atoms: C_14  and  C_15
REMARK    9  A    between atoms: C_15  and  O_16
REMARK   10  A    between atoms: C_15  and  C_17
REMARK   11  A    between atoms: C_17  and  N_18
REMARK   12  A    between atoms: N_18  and  C_19
REMARK   13  A    between atoms: C_19  and  C_20
REMARK   14  A    between atoms: C_19  and  C_21
REMARK   15  A    between atoms: C_19  and  C_22
REMARK   16  A    between atoms: C_23  and  C_25
REMARK   17  A    between atoms: C_25  and  C_26
REMARK                            x       y       z     vdW  Elec       q    Type
REMARK                         _______ _______ _______ _____ _____    ______ ____
ROOT
ATOM      1  C   UNL     1      10.137   1.825  23.174  0.00  0.00    +0.036 A 
ATOM      2  C   UNL     1       9.580   1.195  24.282  0.00  0.00    +0.038 A 
ATOM      3  C   UNL     1       8.615   0.188  24.110  0.00  0.00    +0.060 A 
ATOM      4  C   UNL     1       8.288  -0.270  22.824  0.00  0.00    +0.131 A 
ATOM      5  C   UNL     1       8.884   0.350  21.721  0.00  0.00    +0.048 A 
ATOM      6  C   UNL     1       9.784   1.405  21.892  0.00  0.00    +0.027 A 
ENDROOT
BRANCH   1   9
ATOM      7  N   UNL     1      11.639   5.097  23.838  0.00  0.00    -0.286 N 
ATOM      8  C   UNL     1      10.617   4.156  23.709  0.00  0.00    +0.306 C 
ATOM      9  N   UNL     1      11.044   2.883  23.385  0.00  0.00    -0.269 N 
ATOM     10  H   UNL     1      11.911   2.630  23.834  0.00  0.00    +0.156 HD
ATOM     11  O   UNL     1       9.438   4.439  23.910  0.00  0.00    -0.252 OA
BRANCH   7  13
ATOM     12  C   UNL     1      12.204   6.975  25.374  0.00  0.00    +0.024 C 
ATOM     13  C   UNL     1      11.258   6.430  24.314  0.00  0.00    +0.106 C 
ENDBRANCH   7  13
BRANCH   7  14
ATOM     14  C   UNL     1      13.005   4.916  23.328  0.00  0.00    +0.106 C 
ATOM     15  C   UNL     1      13.295   5.688  22.048  0.00  0.00    +0.024 C 
ENDBRANCH   7  14
ENDBRANCH   1   9
BRANCH   3  16
ATOM     16  C   UNL     1       7.976  -0.309  25.363  0.00  0.00    +0.164 C 
ATOM     17  O   UNL     1       6.756  -0.189  25.497  0.00  0.00    -0.292 OA
ATOM     18  C   UNL     1       8.799  -1.036  26.391  0.00  0.00    +0.092 C 
ENDBRANCH   3  16
BRANCH   4  19
ATOM     19  O   UNL     1       7.423  -1.327  22.735  0.00  0.00    -0.489 OA
BRANCH  19  20
ATOM     20  C   UNL     1       7.971  -2.611  22.406  0.00  0.00    +0.261 C 
BRANCH  20  21
ATOM     21  C   UNL     1       6.819  -3.602  22.196  0.00  0.00    +0.166 C 
BRANCH  21  22
ATOM     22  O   UNL     1       7.363  -4.916  21.991  0.00  0.00    -0.387 OA
ATOM     23  H   UNL     1       6.691  -5.416  21.494  0.00  0.00    +0.210 HD
ENDBRANCH  21  22
BRANCH  21  24
ATOM     24  C   UNL     1       5.836  -3.662  23.383  0.00  0.00    +0.116 C 
BRANCH  24  25
ATOM     25  N   UNL     1       6.439  -3.249  24.656  0.00  0.00    -0.309 NA
ATOM     26  H   UNL     1       5.840  -2.545  25.089  0.00  0.00    +0.123 HD
BRANCH  25  27
ATOM     27  C   UNL     1       6.673  -4.339  25.627  0.00  0.00    +0.011 C 
ATOM     28  C   UNL     1       6.407  -3.884  27.070  0.00  0.00    +0.027 C 
ATOM     29  C   UNL     1       8.159  -4.731  25.507  0.00  0.00    +0.027 C 
ATOM     30  C   UNL     1       5.831  -5.584  25.301  0.00  0.00    +0.027 C 
ENDBRANCH  25  27
ENDBRANCH  24  25
ENDBRANCH  21  24
ENDBRANCH  20  21
ENDBRANCH  19  20
ENDBRANCH   4  19
TORSDOF 11
ENDMDL
MODEL 2
REMARK VINA RESULT:      -6.1      3.379      9.936
REMARK  Name = 
REMARK  17 active torsions:
REMARK  status: ('A' for Active; 'I' for Inactive)
REMARK    1  A    between atoms: C_1  and  C_2
REMARK    2  A    between atoms: C_2  and  N_3
REMARK    3  A    between atoms: N_3  and  C_4
REMARK    4  A    between atoms: C_4  and  C_5
REMARK    5  A    between atoms: N_8  and  C_9
REMARK    6  A    between atoms: C_12  and  O_13
REMARK    7  A    between atoms: O_13  and  C_14
REMARK    8  A    between atoms: C_14  and  C_15
REMARK    9  A    between atoms: C_15  and  O_16
REMARK   10  A    between atoms: C_15  and  C_17
REMARK   11  A    between atoms: C_17  and  N_18
REMARK   12  A    between atoms: N_18  and  C_19
REMARK   13  A    between atoms: C_19  and  C_20
REMARK   14  A    between atoms: C_19  and  C_21
REMARK   15  A    between atoms: C_19  and  C_22
REMARK   16  A    between atoms: C_23  and  C_25
REMARK   17  A    between atoms: C_25  and  C_26
REMARK                            x       y       z     vdW  Elec       q    Type
REMARK                         _______ _______ _______ _____ _____    ______ ____
ROOT
ATOM      1  C   UNL     1       5.432  -6.033  23.681  0.00  0.00    +0.036 A 
ATOM      2  C   UNL     1       5.826  -5.364  24.835  0.00  0.00    +0.038 A 
ATOM      3  C   UNL     1       7.018  -4.620  24.847  0.00  0.00    +0.060 A 
ATOM      4  C   UNL     1       7.761  -4.450  23.668  0.00  0.00    +0.131 A 
ATOM      5  C   UNL     1       7.332  -5.101  22.507  0.00  0.00    +0.048 A 
ATOM      6  C   UNL     1       6.190  -5.906  22.518  0.00  0.00    +0.027 A 
ENDROOT
BRANCH   1   9
ATOM      7  N   UNL     1       1.997  -7.273  23.430  0.00  0.00    -0.286 N 
ATOM      8  C   UNL     1       3.052  -6.375  23.269  0.00  0.00    +0.306 C 
ATOM      9  N   UNL     1       4.273  -6.832  23.728  0.00  0.00    -0.269 N 
ATOM     10  H   UNL     1       4.415  -7.817  23.560  0.00  0.00    +0.156 HD
ATOM     11  O   UNL     1       2.905  -5.284  22.724  0.00  0.00    -0.252 OA
BRANCH   7  13
ATOM     12  C   UNL     1       0.445  -7.584  21.507  0.00  0.00    +0.024 C 
ATOM     13  C   UNL     1       0.709  -6.898  22.838  0.00  0.00    +0.106 C 
ENDBRANCH   7  13
BRANCH   7  14
ATOM     14  C   UNL     1       2.026  -8.439  24.324  0.00  0.00    +0.106 C 
ATOM     15  C   UNL     1       1.451  -8.174  25.708  0.00  0.00    +0.024 C 
ENDBRANCH   7  14
ENDBRANCH   1   9
BRANCH   3  16
ATOM     16  C   UNL     1       7.420  -4.073  26.175  0.00  0.00    +0.164 C 
ATOM     17  O   UNL     1       8.159  -4.746  26.898  0.00  0.00    -0.292 OA
ATOM     18  C   UNL     1       7.011  -2.681  26.572  0.00  0.00    +0.092 C 
ENDBRANCH   3  16
BRANCH   4  19
ATOM     19  O   UNL     1       8.850  -3.624  23.726  0.00  0.00    -0.489 OA
BRANCH  19  20
ATOM     20  C   UNL     1       8.706  -2.293  23.211  0.00  0.00    +0.261 C 
BRANCH  20  21
ATOM     21  C   UNL     1      10.097  -1.733  22.888  0.00  0.00    +0.166 C 
BRANCH  21  22
ATOM     22  O   UNL     1      10.209  -1.549  21.467  0.00  0.00    -0.387 OA
ATOM     23  H   UNL     1       9.670  -2.248  21.057  0.00  0.00    +0.210 HD
ENDBRANCH  21  22
BRANCH  21  24
ATOM     24  C   UNL     1      10.393  -0.386  23.579  0.00  0.00    +0.116 C 
BRANCH  24  25
ATOM     25  N   UNL     1       9.183   0.386  23.885  0.00  0.00    -0.309 NA
ATOM     26  H   UNL     1       9.196   0.636  24.874  0.00  0.00    +0.123 HD
BRANCH  25  27
ATOM     27  C   UNL     1       8.998   1.615  23.084  0.00  0.00    +0.011 C 
ATOM     28  C   UNL     1      10.207   1.891  22.176  0.00  0.00    +0.027 C 
ATOM     29  C   UNL     1       8.865   2.782  24.083  0.00  0.00    +0.027 C 
ATOM     30  C   UNL     1       7.709   1.562  22.248  0.00  0.00    +0.027 C 
ENDBRANCH  25  27
ENDBRANCH  24  25
ENDBRANCH  21  24
ENDBRANCH  20  21
ENDBRANCH  19  20
ENDBRANCH   4  19
TORSDOF 11
ENDMDL
MODEL 3
REMARK VINA RESULT:      -6.0      1.709      2.688
REMARK  Name = 
REMARK  17 active torsions:
REMARK  status: ('A' for Active; 'I' for Inactive)
REMARK    1  A    between atoms: C_1  and  C_2
REMARK    2  A    between atoms: C_2  and  N_3
REMARK    3  A    between atoms: N_3  and  C_4
REMARK    4  A    between atoms: C_4  and  C_5
REMARK    5  A    between atoms: N_8  and  C_9
REMARK    6  A    between atoms: C_12  and  O_13
REMARK    7  A    between atoms: O_13  and  C_14
REMARK    8  A    between atoms: C_14  and  C_15
REMARK    9  A    between atoms: C_15  and  O_16
REMARK   10  A    between atoms: C_15  and  C_17
REMARK   11  A    between atoms: C_17  and  N_18
REMARK   12  A    between atoms: N_18  and  C_19
REMARK   13  A    between atoms: C_19  and  C_20
REMARK   14  A    between atoms: C_19  and  C_21
REMARK   15  A    between atoms: C_19  and  C_22
REMARK   16  A    between atoms: C_23  and  C_25
REMARK   17  A    between atoms: C_25  and  C_26
REMARK                            x       y       z     vdW  Elec       q    Type
REMARK                         _______ _______ _______ _____ _____    ______ ____
ROOT
ATOM      1  C   UNL     1       9.471   1.872  23.133  0.00  0.00    +0.036 A 
ATOM      2  C   UNL     1       8.908   1.302  24.270  0.00  0.00    +0.038 A 
ATOM      3  C   UNL     1       8.585  -0.065  24.288  0.00  0.00    +0.060 A 
ATOM      4  C   UNL     1       8.930  -0.891  23.207  0.00  0.00    +0.131 A 
ATOM      5  C   UNL     1       9.529  -0.308  22.084  0.00  0.00    +0.048 A 
ATOM      6  C   UNL     1       9.777   1.066  22.037  0.00  0.00    +0.027 A 
ENDROOT
BRANCH   1   9
ATOM      7  N   UNL     1      11.004   5.184  23.425  0.00  0.00    -0.286 N 
ATOM      8  C   UNL     1      10.948   3.790  23.438  0.00  0.00    +0.306 C 
ATOM      9  N   UNL     1       9.711   3.260  23.123  0.00  0.00    -0.269 N 
ATOM     10  H   UNL     1       9.230   3.780  22.405  0.00  0.00    +0.156 HD
ATOM     11  O   UNL     1      11.935   3.097  23.673  0.00  0.00    -0.252 OA
BRANCH   7  13
ATOM     12  C   UNL     1      13.145   5.848  22.340  0.00  0.00    +0.024 C 
ATOM     13  C   UNL     1      12.321   5.798  23.617  0.00  0.00    +0.106 C 
ENDBRANCH   7  13
BRANCH   7  14
ATOM     14  C   UNL     1       9.828   6.064  23.456  0.00  0.00    +0.106 C 
ATOM     15  C   UNL     1       9.684   6.862  24.745  0.00  0.00    +0.024 C 
ENDBRANCH   7  14
ENDBRANCH   1   9
BRANCH   3  16
ATOM     16  C   UNL     1       7.848  -0.535  25.497  0.00  0.00    +0.164 C 
ATOM     17  O   UNL     1       8.479  -0.741  26.536  0.00  0.00    -0.292 OA
ATOM     18  C   UNL     1       6.349  -0.649  25.468  0.00  0.00    +0.092 C 
ENDBRANCH   3  16
BRANCH   4  19
ATOM     19  O   UNL     1       8.686  -2.231  23.336  0.00  0.00    -0.489 OA
BRANCH  19  20
ATOM     20  C   UNL     1       9.637  -3.015  24.070  0.00  0.00    +0.261 C 
BRANCH  20  21
ATOM     21  C   UNL     1       8.884  -4.089  24.867  0.00  0.00    +0.166 C 
BRANCH  21  22
ATOM     22  O   UNL     1       8.812  -3.686  26.244  0.00  0.00    -0.387 OA
ATOM     23  H   UNL     1       8.055  -3.077  26.312  0.00  0.00    +0.210 HD
ENDBRANCH  21  22
BRANCH  21  24
ATOM     24  C   UNL     1       7.451  -4.342  24.356  0.00  0.00    +0.116 C 
BRANCH  24  25
ATOM     25  N   UNL     1       7.411  -5.054  23.073  0.00  0.00    -0.309 NA
ATOM     26  H   UNL     1       7.639  -6.035  23.237  0.00  0.00    +0.123 HD
BRANCH  25  27
ATOM     27  C   UNL     1       6.126  -4.977  22.348  0.00  0.00    +0.011 C 
ATOM     28  C   UNL     1       5.628  -3.528  22.222  0.00  0.00    +0.027 C 
ATOM     29  C   UNL     1       5.097  -5.773  23.176  0.00  0.00    +0.027 C 
ATOM     30  C   UNL     1       6.215  -5.628  20.958  0.00  0.00    +0.027 C 
ENDBRANCH  25  27
ENDBRANCH  24  25
ENDBRANCH  21  24
ENDBRANCH  20  21
ENDBRANCH  19  20
ENDBRANCH   4  19
TORSDOF 11
ENDMDL
MODEL 4
REMARK VINA RESULT:      -5.9      1.496      2.084
REMARK  Name = 
REMARK  17 active torsions:
REMARK  status: ('A' for Active; 'I' for Inactive)
REMARK    1  A    between atoms: C_1  and  C_2
REMARK    2  A    between atoms: C_2  and  N_3
REMARK    3  A    between atoms: N_3  and  C_4
REMARK    4  A    between atoms: C_4  and  C_5
REMARK    5  A    between atoms: N_8  and  C_9
REMARK    6  A    between atoms: C_12  and  O_13
REMARK    7  A    between atoms: O_13  and  C_14
REMARK    8  A    between atoms: C_14  and  C_15
REMARK    9  A    between atoms: C_15  and  O_16
REMARK   10  A    between atoms: C_15  and  C_17
REMARK   11  A    between atoms: C_17  and  N_18
REMARK   12  A    between atoms: N_18  and  C_19
REMARK   13  A    between atoms: C_19  and  C_20
REMARK   14  A    between atoms: C_19  and  C_21
REMARK   15  A    between atoms: C_19  and  C_22
REMARK   16  A    between atoms: C_23  and  C_25
REMARK   17  A    between atoms: C_25  and  C_26
REMARK                            x       y       z     vdW  Elec       q    Type
REMARK                         _______ _______ _______ _____ _____    ______ ____
ROOT
ATOM      1  C   UNL     1       9.939   1.299  23.622  0.00  0.00    +0.036 A 
ATOM      2  C   UNL     1       9.558   0.716  24.827  0.00  0.00    +0.038 A 
ATOM      3  C   UNL     1       8.709  -0.403  24.832  0.00  0.00    +0.060 A 
ATOM      4  C   UNL     1       8.331  -1.012  23.625  0.00  0.00    +0.131 A 
ATOM      5  C   UNL     1       8.752  -0.435  22.422  0.00  0.00    +0.048 A 
ATOM      6  C   UNL     1       9.531   0.725  22.420  0.00  0.00    +0.027 A 
ENDROOT
BRANCH   1   9
ATOM      7  N   UNL     1      11.090   4.774  23.597  0.00  0.00    -0.286 N 
ATOM      8  C   UNL     1      10.168   3.727  23.598  0.00  0.00    +0.306 C 
ATOM      9  N   UNL     1      10.728   2.466  23.658  0.00  0.00    -0.269 N 
ATOM     10  H   UNL     1      11.543   2.423  24.250  0.00  0.00    +0.156 HD
ATOM     11  O   UNL     1       8.955   3.924  23.587  0.00  0.00    -0.252 OA
BRANCH   7  13
ATOM     12  C   UNL     1      10.609   6.720  25.076  0.00  0.00    +0.024 C 
ATOM     13  C   UNL     1      10.551   6.135  23.673  0.00  0.00    +0.106 C 
ENDBRANCH   7  13
BRANCH   7  14
ATOM     14  C   UNL     1      12.522   4.621  23.306  0.00  0.00    +0.106 C 
ATOM     15  C   UNL     1      13.047   5.586  22.253  0.00  0.00    +0.024 C 
ENDBRANCH   7  14
ENDBRANCH   1   9
BRANCH   3  16
ATOM     16  C   UNL     1       8.244  -0.849  26.176  0.00  0.00    +0.164 C 
ATOM     17  O   UNL     1       8.695  -1.897  26.645  0.00  0.00    -0.292 OA
ATOM     18  C   UNL     1       7.321   0.023  26.982  0.00  0.00    +0.092 C 
ENDBRANCH   3  16
BRANCH   4  19
ATOM     19  O   UNL     1       7.594  -2.163  23.707  0.00  0.00    -0.489 OA
BRANCH  19  20
ATOM     20  C   UNL     1       8.080  -3.317  23.008  0.00  0.00    +0.261 C 
BRANCH  20  21
ATOM     21  C   UNL     1       8.277  -4.459  24.014  0.00  0.00    +0.166 C 
BRANCH  21  22
ATOM     22  O   UNL     1       9.319  -4.098  24.934  0.00  0.00    -0.387 OA
ATOM     23  H   UNL     1      10.092  -4.643  24.700  0.00  0.00    +0.210 HD
ENDBRANCH  21  22
BRANCH  21  24
ATOM     24  C   UNL     1       7.007  -4.792  24.822  0.00  0.00    +0.116 C 
BRANCH  24  25
ATOM     25  N   UNL     1       5.771  -4.332  24.176  0.00  0.00    -0.309 NA
ATOM     26  H   UNL     1       6.015  -3.673  23.436  0.00  0.00    +0.123 HD
BRANCH  25  27
ATOM     27  C   UNL     1       4.923  -5.399  23.604  0.00  0.00    +0.011 C 
ATOM     28  C   UNL     1       5.411  -5.831  22.212  0.00  0.00    +0.027 C 
ATOM     29  C   UNL     1       3.504  -4.812  23.461  0.00  0.00    +0.027 C 
ATOM     30  C   UNL     1       4.835  -6.619  24.536  0.00  0.00    +0.027 C 
ENDBRANCH  25  27
ENDBRANCH  24  25
ENDBRANCH  21  24
ENDBRANCH  20  21
ENDBRANCH  19  20
ENDBRANCH   4  19
TORSDOF 11
ENDMDL
MODEL 5
REMARK VINA RESULT:      -5.9      2.222      3.538
REMARK  Name = 
REMARK  17 active torsions:
REMARK  status: ('A' for Active; 'I' for Inactive)
REMARK    1  A    between atoms: C_1  and  C_2
REMARK    2  A    between atoms: C_2  and  N_3
REMARK    3  A    between atoms: N_3  and  C_4
REMARK    4  A    between atoms: C_4  and  C_5
REMARK    5  A    between atoms: N_8  and  C_9
REMARK    6  A    between atoms: C_12  and  O_13
REMARK    7  A    between atoms: O_13  and  C_14
REMARK    8  A    between atoms: C_14  and  C_15
REMARK    9  A    between atoms: C_15  and  O_16
REMARK   10  A    between atoms: C_15  and  C_17
REMARK   11  A    between atoms: C_17  and  N_18
REMARK   12  A    between atoms: N_18  and  C_19
REMARK   13  A    between atoms: C_19  and  C_20
REMARK   14  A    between atoms: C_19  and  C_21
REMARK   15  A    between atoms: C_19  and  C_22
REMARK   16  A    between atoms: C_23  and  C_25
REMARK   17  A    between atoms: C_25  and  C_26
REMARK                            x       y       z     vdW  Elec       q    Type
REMARK                         _______ _______ _______ _____ _____    ______ ____
ROOT
ATOM      1  C   UNL     1       8.785   1.928  24.657  0.00  0.00    +0.036 A 
ATOM      2  C   UNL     1       9.256   0.980  23.754  0.00  0.00    +0.038 A 
ATOM      3  C   UNL     1       8.983  -0.383  23.955  0.00  0.00    +0.060 A 
ATOM      4  C   UNL     1       8.138  -0.791  24.999  0.00  0.00    +0.131 A 
ATOM      5  C   UNL     1       7.643   0.178  25.878  0.00  0.00    +0.048 A 
ATOM      6  C   UNL     1       7.982   1.525  25.723  0.00  0.00    +0.027 A 
ENDROOT
BRANCH   1   9
ATOM      7  N   UNL     1       8.940   5.405  23.520  0.00  0.00    -0.286 N 
ATOM      8  C   UNL     1       8.425   4.113  23.633  0.00  0.00    +0.306 C 
ATOM      9  N   UNL     1       9.143   3.277  24.467  0.00  0.00    -0.269 N 
ATOM     10  H   UNL     1       9.509   3.749  25.279  0.00  0.00    +0.156 HD
ATOM     11  O   UNL     1       7.392   3.768  23.064  0.00  0.00    -0.252 OA
BRANCH   7  13
ATOM     12  C   UNL     1       7.117   7.100  23.613  0.00  0.00    +0.024 C 
ATOM     13  C   UNL     1       8.145   6.373  22.759  0.00  0.00    +0.106 C 
ENDBRANCH   7  13
BRANCH   7  14
ATOM     14  C   UNL     1      10.301   5.794  23.912  0.00  0.00    +0.106 C 
ATOM     15  C   UNL     1      10.358   6.706  25.130  0.00  0.00    +0.024 C 
ENDBRANCH   7  14
ENDBRANCH   1   9
BRANCH   3  16
ATOM     16  C   UNL     1       9.663  -1.319  23.015  0.00  0.00    +0.164 C 
ATOM     17  O   UNL     1      10.299  -2.270  23.477  0.00  0.00    -0.292 OA
ATOM     18  C   UNL     1       9.484  -1.159  21.530  0.00  0.00    +0.092 C 
ENDBRANCH   3  16
BRANCH   4  19
ATOM     19  O   UNL     1       7.826  -2.122  25.070  0.00  0.00    -0.489 OA
BRANCH  19  20
ATOM     20  C   UNL     1       8.161  -2.822  26.276  0.00  0.00    +0.261 C 
BRANCH  20  21
ATOM     21  C   UNL     1       8.912  -4.108  25.910  0.00  0.00    +0.166 C 
BRANCH  21  22
ATOM     22  O   UNL     1       9.211  -4.836  27.112  0.00  0.00    -0.387 OA
ATOM     23  H   UNL     1       8.400  -4.817  27.652  0.00  0.00    +0.210 HD
ENDBRANCH  21  22
BRANCH  21  24
ATOM     24  C   UNL     1       8.121  -5.034  24.963  0.00  0.00    +0.116 C 
BRANCH  24  25
ATOM     25  N   UNL     1       8.211  -4.634  23.554  0.00  0.00    -0.309 NA
ATOM     26  H   UNL     1       8.951  -5.177  23.107  0.00  0.00    +0.123 HD
BRANCH  25  27
ATOM     27  C   UNL     1       6.966  -4.788  22.772  0.00  0.00    +0.011 C 
ATOM     28  C   UNL     1       7.108  -5.860  21.680  0.00  0.00    +0.027 C 
ATOM     29  C   UNL     1       6.696  -3.432  22.091  0.00  0.00    +0.027 C 
ATOM     30  C   UNL     1       5.763  -5.109  23.674  0.00  0.00    +0.027 C 
ENDBRANCH  25  27
ENDBRANCH  24  25
ENDBRANCH  21  24
ENDBRANCH  20  21
ENDBRANCH  19  20
ENDBRANCH   4  19
TORSDOF 11
ENDMDL
MODEL 6
REMARK VINA RESULT:      -5.9      1.286      2.002
REMARK  Name = 
REMARK  17 active torsions:
REMARK  status: ('A' for Active; 'I' for Inactive)
REMARK    1  A    between atoms: C_1  and  C_2
REMARK    2  A    between atoms: C_2  and  N_3
REMARK    3  A    between atoms: N_3  and  C_4
REMARK    4  A    between atoms: C_4  and  C_5
REMARK    5  A    between atoms: N_8  and  C_9
REMARK    6  A    between atoms: C_12  and  O_13
REMARK    7  A    between atoms: O_13  and  C_14
REMARK    8  A    between atoms: C_14  and  C_15
REMARK    9  A    between atoms: C_15  and  O_16
REMARK   10  A    between atoms: C_15  and  C_17
REMARK   11  A    between atoms: C_17  and  N_18
REMARK   12  A    between atoms: N_18  and  C_19
REMARK   13  A    between atoms: C_19  and  C_20
REMARK   14  A    between atoms: C_19  and  C_21
REMARK   15  A    between atoms: C_19  and  C_22
REMARK   16  A    between atoms: C_23  and  C_25
REMARK   17  A    between atoms: C_25  and  C_26
REMARK                            x       y       z     vdW  Elec       q    Type
REMARK                         _______ _______ _______ _____ _____    ______ ____
ROOT
ATOM      1  C   UNL     1       9.282   1.857  22.953  0.00  0.00    +0.036 A 
ATOM      2  C   UNL     1       8.630   1.274  24.034  0.00  0.00    +0.038 A 
ATOM      3  C   UNL     1       8.243  -0.076  23.981  0.00  0.00    +0.060 A 
ATOM      4  C   UNL     1       8.611  -0.877  22.888  0.00  0.00    +0.131 A 
ATOM      5  C   UNL     1       9.299  -0.284  21.824  0.00  0.00    +0.048 A 
ATOM      6  C   UNL     1       9.612   1.078  21.845  0.00  0.00    +0.027 A 
ENDROOT
BRANCH   1   9
ATOM      7  N   UNL     1      10.951   5.078  23.445  0.00  0.00    -0.286 N 
ATOM      8  C   UNL     1      10.831   3.689  23.398  0.00  0.00    +0.306 C 
ATOM      9  N   UNL     1       9.586   3.232  23.010  0.00  0.00    -0.269 N 
ATOM     10  H   UNL     1       9.161   3.802  22.295  0.00  0.00    +0.156 HD
ATOM     11  O   UNL     1      11.775   2.941  23.643  0.00  0.00    -0.252 OA
BRANCH   7  13
ATOM     12  C   UNL     1      13.166   5.683  22.477  0.00  0.00    +0.024 C 
ATOM     13  C   UNL     1      12.286   5.620  23.716  0.00  0.00    +0.106 C 
ENDBRANCH   7  13
BRANCH   7  14
ATOM     14  C   UNL     1       9.817   6.011  23.464  0.00  0.00    +0.106 C 
ATOM     15  C   UNL     1       9.689   6.805  24.756  0.00  0.00    +0.024 C 
ENDBRANCH   7  14
ENDBRANCH   1   9
BRANCH   3  16
ATOM     16  C   UNL     1       7.419  -0.553  25.128  0.00  0.00    +0.164 C 
ATOM     17  O   UNL     1       7.982  -1.099  26.080  0.00  0.00    -0.292 OA
ATOM     18  C   UNL     1       5.941  -0.275  25.161  0.00  0.00    +0.092 C 
ENDBRANCH   3  16
BRANCH   4  19
ATOM     19  O   UNL     1       8.298  -2.208  22.952  0.00  0.00    -0.489 OA
BRANCH  19  20
ATOM     20  C   UNL     1       7.310  -2.705  22.039  0.00  0.00    +0.261 C 
BRANCH  20  21
ATOM     21  C   UNL     1       6.105  -3.214  22.841  0.00  0.00    +0.166 C 
BRANCH  21  22
ATOM     22  O   UNL     1       5.089  -3.659  21.929  0.00  0.00    -0.387 OA
ATOM     23  H   UNL     1       4.766  -2.863  21.469  0.00  0.00    +0.210 HD
ENDBRANCH  21  22
BRANCH  21  24
ATOM     24  C   UNL     1       6.448  -4.377  23.794  0.00  0.00    +0.116 C 
BRANCH  24  25
ATOM     25  N   UNL     1       7.011  -3.930  25.074  0.00  0.00    -0.309 NA
ATOM     26  H   UNL     1       6.743  -2.957  25.227  0.00  0.00    +0.123 HD
BRANCH  25  27
ATOM     27  C   UNL     1       6.611  -4.728  26.252  0.00  0.00    +0.011 C 
ATOM     28  C   UNL     1       5.654  -5.868  25.871  0.00  0.00    +0.027 C 
ATOM     29  C   UNL     1       5.870  -3.771  27.208  0.00  0.00    +0.027 C 
ATOM     30  C   UNL     1       7.831  -5.289  27.002  0.00  0.00    +0.027 C 
ENDBRANCH  25  27
ENDBRANCH  24  25
ENDBRANCH  21  24
ENDBRANCH  20  21
ENDBRANCH  19  20
ENDBRANCH   4  19
TORSDOF 11
ENDMDL
MODEL 7
REMARK VINA RESULT:      -5.7      3.176      9.313
REMARK  Name = 
REMARK  17 active torsions:
REMARK  status: ('A' for Active; 'I' for Inactive)
REMARK    1  A    between atoms: C_1  and  C_2
REMARK    2  A    between atoms: C_2  and  N_3
REMARK    3  A    between atoms: N_3  and  C_4
REMARK    4  A    between atoms: C_4  and  C_5
REMARK    5  A    between atoms: N_8  and  C_9
REMARK    6  A    between atoms: C_12  and  O_13
REMARK    7  A    between atoms: O_13  and  C_14
REMARK    8  A    between atoms: C_14  and  C_15
REMARK    9  A    between atoms: C_15  and  O_16
REMARK   10  A    between atoms: C_15  and  C_17
REMARK   11  A    between atoms: C_17  and  N_18
REMARK   12  A    between atoms: N_18  and  C_19
REMARK   13  A    between atoms: C_19  and  C_20
REMARK   14  A    between atoms: C_19  and  C_21
REMARK   15  A    between atoms: C_19  and  C_22
REMARK   16  A    between atoms: C_23  and  C_25
REMARK   17  A    between atoms: C_25  and  C_26
REMARK                            x       y       z     vdW  Elec       q    Type
REMARK                         _______ _______ _______ _____ _____    ______ ____
ROOT
ATOM      1  C   UNL     1       5.305  -3.863  23.708  0.00  0.00    +0.036 A 
ATOM      2  C   UNL     1       6.351  -4.339  24.492  0.00  0.00    +0.038 A 
ATOM      3  C   UNL     1       7.669  -3.924  24.237  0.00  0.00    +0.060 A 
ATOM      4  C   UNL     1       7.929  -2.942  23.269  0.00  0.00    +0.131 A 
ATOM      5  C   UNL     1       6.861  -2.447  22.513  0.00  0.00    +0.048 A 
ATOM      6  C   UNL     1       5.562  -2.921  22.714  0.00  0.00    +0.027 A 
ENDROOT
BRANCH   1   9
ATOM      7  N   UNL     1       2.169  -5.744  23.533  0.00  0.00    -0.286 N 
ATOM      8  C   UNL     1       3.482  -5.405  23.206  0.00  0.00    +0.306 C 
ATOM      9  N   UNL     1       4.007  -4.360  23.942  0.00  0.00    -0.269 N 
ATOM     10  H   UNL     1       3.710  -4.367  24.906  0.00  0.00    +0.156 HD
ATOM     11  O   UNL     1       4.126  -6.020  22.359  0.00  0.00    -0.252 OA
BRANCH   7  13
ATOM     12  C   UNL     1       1.741  -8.191  23.726  0.00  0.00    +0.024 C 
ATOM     13  C   UNL     1       1.608  -6.933  22.882  0.00  0.00    +0.106 C 
ENDBRANCH   7  13
BRANCH   7  14
ATOM     14  C   UNL     1       1.253  -4.885  24.296  0.00  0.00    +0.106 C 
ATOM     15  C   UNL     1       1.107  -5.281  25.759  0.00  0.00    +0.024 C 
ENDBRANCH   7  14
ENDBRANCH   1   9
BRANCH   3  16
ATOM     16  C   UNL     1       8.724  -4.611  25.036  0.00  0.00    +0.164 C 
ATOM     17  O   UNL     1       9.425  -5.465  24.487  0.00  0.00    -0.292 OA
ATOM     18  C   UNL     1       8.989  -4.190  26.455  0.00  0.00    +0.092 C 
ENDBRANCH   3  16
BRANCH   4  19
ATOM     19  O   UNL     1       9.220  -2.505  23.149  0.00  0.00    -0.489 OA
BRANCH  19  20
ATOM     20  C   UNL     1       9.494  -1.136  23.477  0.00  0.00    +0.261 C 
BRANCH  20  21
ATOM     21  C   UNL     1      10.183  -0.467  22.281  0.00  0.00    +0.166 C 
BRANCH  21  22
ATOM     22  O   UNL     1       9.588  -0.952  21.067  0.00  0.00    -0.387 OA
ATOM     23  H   UNL     1       9.915  -0.376  20.353  0.00  0.00    +0.210 HD
ENDBRANCH  21  22
BRANCH  21  24
ATOM     24  C   UNL     1      10.081   1.072  22.294  0.00  0.00    +0.116 C 
BRANCH  24  25
ATOM     25  N   UNL     1       8.860   1.576  21.654  0.00  0.00    -0.309 NA
ATOM     26  H   UNL     1       8.397   0.802  21.176  0.00  0.00    +0.123 HD
BRANCH  25  27
ATOM     27  C   UNL     1       7.891   2.225  22.563  0.00  0.00    +0.011 C 
ATOM     28  C   UNL     1       7.340   3.531  21.971  0.00  0.00    +0.027 C 
ATOM     29  C   UNL     1       8.654   2.563  23.859  0.00  0.00    +0.027 C 
ATOM     30  C   UNL     1       6.734   1.281  22.931  0.00  0.00    +0.027 C 
ENDBRANCH  25  27
ENDBRANCH  24  25
ENDBRANCH  21  24
ENDBRANCH  20  21
ENDBRANCH  19  20
ENDBRANCH   4  19
TORSDOF 11
ENDMDL
MODEL 8
REMARK VINA RESULT:      -5.7      3.227      5.722
REMARK  Name = 
REMARK  17 active torsions:
REMARK  status: ('A' for Active; 'I' for Inactive)
REMARK    1  A    between atoms: C_1  and  C_2
REMARK    2  A    between atoms: C_2  and  N_3
REMARK    3  A    between atoms: N_3  and  C_4
REMARK    4  A    between atoms: C_4  and  C_5
REMARK    5  A    between atoms: N_8  and  C_9
REMARK    6  A    between atoms: C_12  and  O_13
REMARK    7  A    between atoms: O_13  and  C_14
REMARK    8  A    between atoms: C_14  and  C_15
REMARK    9  A    between atoms: C_15  and  O_16
REMARK   10  A    between atoms: C_15  and  C_17
REMARK   11  A    between atoms: C_17  and  N_18
REMARK   12  A    between atoms: N_18  and  C_19
REMARK   13  A    between atoms: C_19  and  C_20
REMARK   14  A    between atoms: C_19  and  C_21
REMARK   15  A    between atoms: C_19  and  C_22
REMARK   16  A    between atoms: C_23  and  C_25
REMARK   17  A    between atoms: C_25  and  C_26
REMARK                            x       y       z     vdW  Elec       q    Type
REMARK                         _______ _______ _______ _____ _____    ______ ____
ROOT
ATOM      1  C   UNL     1       6.047  -2.104  23.651  0.00  0.00    +0.036 A 
ATOM      2  C   UNL     1       6.353  -3.012  22.643  0.00  0.00    +0.038 A 
ATOM      3  C   UNL     1       5.741  -4.277  22.623  0.00  0.00    +0.060 A 
ATOM      4  C   UNL     1       4.735  -4.593  23.549  0.00  0.00    +0.131 A 
ATOM      5  C   UNL     1       4.413  -3.654  24.535  0.00  0.00    +0.048 A 
ATOM      6  C   UNL     1       5.080  -2.429  24.601  0.00  0.00    +0.027 A 
ENDROOT
BRANCH   1   9
ATOM      7  N   UNL     1       8.426   0.581  24.380  0.00  0.00    -0.286 N 
ATOM      8  C   UNL     1       7.895  -0.708  24.418  0.00  0.00    +0.306 C 
ATOM      9  N   UNL     1       6.736  -0.875  23.684  0.00  0.00    -0.269 N 
ATOM     10  H   UNL     1       6.735  -0.352  22.822  0.00  0.00    +0.156 HD
ATOM     11  O   UNL     1       8.444  -1.625  25.025  0.00  0.00    -0.252 OA
BRANCH   7  13
ATOM     12  C   UNL     1      10.890   0.736  24.048  0.00  0.00    +0.024 C 
ATOM     13  C   UNL     1       9.727   0.783  25.027  0.00  0.00    +0.106 C 
ENDBRANCH   7  13
BRANCH   7  14
ATOM     14  C   UNL     1       7.687   1.773  23.943  0.00  0.00    +0.106 C 
ATOM     15  C   UNL     1       7.757   2.939  24.919  0.00  0.00    +0.024 C 
ENDBRANCH   7  14
ENDBRANCH   1   9
BRANCH   3  16
ATOM     16  C   UNL     1       6.256  -5.222  21.591  0.00  0.00    +0.164 C 
ATOM     17  O   UNL     1       5.814  -5.147  20.441  0.00  0.00    -0.292 OA
ATOM     18  C   UNL     1       7.368  -6.175  21.930  0.00  0.00    +0.092 C 
ENDBRANCH   3  16
BRANCH   4  19
ATOM     19  O   UNL     1       4.105  -5.800  23.404  0.00  0.00    -0.489 OA
BRANCH  19  20
ATOM     20  C   UNL     1       4.487  -6.862  24.288  0.00  0.00    +0.261 C 
BRANCH  20  21
ATOM     21  C   UNL     1       3.309  -7.181  25.217  0.00  0.00    +0.166 C 
BRANCH  21  22
ATOM     22  O   UNL     1       3.010  -8.584  25.130  0.00  0.00    -0.387 OA
ATOM     23  H   UNL     1       2.062  -8.675  25.333  0.00  0.00    +0.210 HD
ENDBRANCH  21  22
BRANCH  21  24
ATOM     24  C   UNL     1       3.578  -6.831  26.695  0.00  0.00    +0.116 C 
BRANCH  24  25
ATOM     25  N   UNL     1       4.952  -7.126  27.119  0.00  0.00    -0.309 NA
ATOM     26  H   UNL     1       5.493  -7.408  26.301  0.00  0.00    +0.123 HD
BRANCH  25  27
ATOM     27  C   UNL     1       5.655  -6.017  27.798  0.00  0.00    +0.011 C 
ATOM     28  C   UNL     1       6.224  -6.452  29.158  0.00  0.00    +0.027 C 
ATOM     29  C   UNL     1       4.612  -4.909  28.040  0.00  0.00    +0.027 C 
ATOM     30  C   UNL     1       6.773  -5.428  26.922  0.00  0.00    +0.027 C 
ENDBRANCH  25  27
ENDBRANCH  24  25
ENDBRANCH  21  24
ENDBRANCH  20  21
ENDBRANCH  19  20
ENDBRANCH   4  19
TORSDOF 11
ENDMDL
MODEL 9
REMARK VINA RESULT:      -5.5      2.703      5.118
REMARK  Name = 
REMARK  17 active torsions:
REMARK  status: ('A' for Active; 'I' for Inactive)
REMARK    1  A    between atoms: C_1  and  C_2
REMARK    2  A    between atoms: C_2  and  N_3
REMARK    3  A    between atoms: N_3  and  C_4
REMARK    4  A    between atoms: C_4  and  C_5
REMARK    5  A    between atoms: N_8  and  C_9
REMARK    6  A    between atoms: C_12  and  O_13
REMARK    7  A    between atoms: O_13  and  C_14
REMARK    8  A    between atoms: C_14  and  C_15
REMARK    9  A    between atoms: C_15  and  O_16
REMARK   10  A    between atoms: C_15  and  C_17
REMARK   11  A    between atoms: C_17  and  N_18
REMARK   12  A    between atoms: N_18  and  C_19
REMARK   13  A    between atoms: C_19  and  C_20
REMARK   14  A    between atoms: C_19  and  C_21
REMARK   15  A    between atoms: C_19  and  C_22
REMARK   16  A    between atoms: C_23  and  C_25
REMARK   17  A    between atoms: C_25  and  C_26
REMARK                            x       y       z     vdW  Elec       q    Type
REMARK                         _______ _______ _______ _____ _____    ______ ____
ROOT
ATOM      1  C   UNL     1       7.617  -1.285  25.429  0.00  0.00    +0.036 A 
ATOM      2  C   UNL     1       8.243  -2.408  24.899  0.00  0.00    +0.038 A 
ATOM      3  C   UNL     1       7.954  -3.684  25.410  0.00  0.00    +0.060 A 
ATOM      4  C   UNL     1       6.951  -3.851  26.377  0.00  0.00    +0.131 A 
ATOM      5  C   UNL     1       6.305  -2.715  26.875  0.00  0.00    +0.048 A 
ATOM      6  C   UNL     1       6.651  -1.439  26.422  0.00  0.00    +0.027 A 
ENDROOT
BRANCH   1   9
ATOM      7  N   UNL     1       8.146   1.669  23.332  0.00  0.00    -0.286 N 
ATOM      8  C   UNL     1       7.664   0.404  23.669  0.00  0.00    +0.306 C 
ATOM      9  N   UNL     1       7.988  -0.014  24.946  0.00  0.00    -0.269 N 
ATOM     10  H   UNL     1       7.969   0.732  25.623  0.00  0.00    +0.156 HD
ATOM     11  O   UNL     1       6.972  -0.260  22.900  0.00  0.00    -0.252 OA
BRANCH   7  13
ATOM     12  C   UNL     1       6.793   3.420  22.188  0.00  0.00    +0.024 C 
ATOM     13  C   UNL     1       7.718   2.221  22.043  0.00  0.00    +0.106 C 
ENDBRANCH   7  13
BRANCH   7  14
ATOM     14  C   UNL     1       9.208   2.375  24.061  0.00  0.00    +0.106 C 
ATOM     15  C   UNL     1      10.396   2.770  23.195  0.00  0.00    +0.024 C 
ENDBRANCH   7  14
ENDBRANCH   1   9
BRANCH   3  16
ATOM     16  C   UNL     1       8.793  -4.795  24.875  0.00  0.00    +0.164 C 
ATOM     17  O   UNL     1       8.439  -5.363  23.838  0.00  0.00    -0.292 OA
ATOM     18  C   UNL     1      10.100  -5.138  25.536  0.00  0.00    +0.092 C 
ENDBRANCH   3  16
BRANCH   4  19
ATOM     19  O   UNL     1       6.645  -5.132  26.750  0.00  0.00    -0.489 OA
BRANCH  19  20
ATOM     20  C   UNL     1       5.342  -5.374  27.299  0.00  0.00    +0.261 C 
BRANCH  20  21
ATOM     21  C   UNL     1       4.843  -6.740  26.809  0.00  0.00    +0.166 C 
BRANCH  21  22
ATOM     22  O   UNL     1       3.796  -7.196  27.681  0.00  0.00    -0.387 OA
ATOM     23  H   UNL     1       3.068  -7.489  27.104  0.00  0.00    +0.210 HD
ENDBRANCH  21  22
BRANCH  21  24
ATOM     24  C   UNL     1       4.301  -6.715  25.366  0.00  0.00    +0.116 C 
BRANCH  24  25
ATOM     25  N   UNL     1       5.294  -6.271  24.381  0.00  0.00    -0.309 NA
ATOM     26  H   UNL     1       5.779  -7.090  24.013  0.00  0.00    +0.123 HD
BRANCH  25  27
ATOM     27  C   UNL     1       4.756  -5.486  23.250  0.00  0.00    +0.011 C 
ATOM     28  C   UNL     1       4.689  -3.986  23.578  0.00  0.00    +0.027 C 
ATOM     29  C   UNL     1       3.322  -5.993  22.998  0.00  0.00    +0.027 C 
ATOM     30  C   UNL     1       5.567  -5.710  21.963  0.00  0.00    +0.027 C 
ENDBRANCH  25  27
ENDBRANCH  24  25
ENDBRANCH  21  24
ENDBRANCH  20  21
ENDBRANCH  19  20
ENDBRANCH   4  19
TORSDOF 11
ENDMDL
