MODEL 1
REMARK VINA RESULT:      -8.5      0.000      0.000
REMARK  Name = 
REMARK  5 active torsions:
REMARK  status: ('A' for Active; 'I' for Inactive)
REMARK    1  A    between atoms: C_1  and  O_2
REMARK    2  A    between atoms: C_1  and  C_20
REMARK    3  A    between atoms: O_2  and  C_3
REMARK    4  A    between atoms: C_6  and  C_9
REMARK    5  A    between atoms: C_13  and  C_14
REMARK                            x       y       z     vdW  Elec       q    Type
REMARK                         _______ _______ _______ _____ _____    ______ ____
ROOT
ATOM      1  C   UNL     1       9.989   0.627  23.471  0.00  0.00    +0.121 A 
ATOM      2  C   UNL     1       9.528   1.327  24.583  0.00  0.00    +0.046 A 
ATOM      3  C   UNL     1       8.873   2.553  24.414  0.00  0.00    +0.013 A 
ATOM      4  C   UNL     1       8.668   3.091  23.134  0.00  0.00    +0.003 A 
ATOM      5  C   UNL     1       9.015   2.311  22.025  0.00  0.00    +0.013 A 
ATOM      6  C   UNL     1       9.693   1.100  22.193  0.00  0.00    +0.046 A 
ENDROOT
BRANCH   4   7
ATOM      7  C   UNL     1       8.183   4.470  22.992  0.00  0.00    +0.100 A 
ATOM      8  C   UNL     1       8.786   5.699  23.442  0.00  0.00    +0.027 A 
ATOM      9  C   UNL     1       7.874   6.677  23.100  0.00  0.00    +0.114 A 
ATOM     10  N   UNL     1       6.839   6.039  22.492  0.00  0.00    -0.284 N 
ATOM     11  H   UNL     1       5.994   6.446  22.106  0.00  0.00    +0.188 HD
ATOM     12  N   UNL     1       6.987   4.712  22.424  0.00  0.00    -0.173 NA
BRANCH   8  13
ATOM     13  C   UNL     1      10.051   5.986  24.109  0.00  0.00    -0.011 A 
ATOM     14  C   UNL     1      10.075   6.730  25.292  0.00  0.00    +0.028 A 
ATOM     15  C   UNL     1      11.301   7.108  25.815  0.00  0.00    +0.111 A 
ATOM     16  N   UNL     1      12.486   6.804  25.246  0.00  0.00    -0.263 NA
ATOM     17  C   UNL     1      12.445   6.052  24.129  0.00  0.00    +0.111 A 
ATOM     18  C   UNL     1      11.271   5.595  23.551  0.00  0.00    +0.028 A 
ENDBRANCH   8  13
ENDBRANCH   4   7
BRANCH   1  19
ATOM     19  O   UNL     1      10.687  -0.545  23.518  0.00  0.00    -0.486 OA
BRANCH  19  20
ATOM     20  C   UNL     1      10.291  -1.542  22.574  0.00  0.00    +0.284 C 
BRANCH  20  21
ATOM     21  C   UNL     1       9.231  -2.415  23.215  0.00  0.00    +0.079 A 
ATOM     22  N   UNL     1       9.472  -2.920  24.455  0.00  0.00    -0.248 NA
ATOM     23  C   UNL     1       8.557  -3.743  25.005  0.00  0.00    +0.071 A 
ATOM     24  C   UNL     1       7.356  -4.079  24.348  0.00  0.00    +0.000 A 
ATOM     25  C   UNL     1       6.437  -4.964  24.946  0.00  0.00    +0.010 A 
ATOM     26  C   UNL     1       6.702  -5.519  26.195  0.00  0.00    +0.001 A 
ATOM     27  C   UNL     1       7.879  -5.185  26.854  0.00  0.00    +0.002 A 
ATOM     28  C   UNL     1       7.114  -3.522  23.091  0.00  0.00    +0.012 A 
ATOM     29  C   UNL     1       8.788  -4.301  26.257  0.00  0.00    +0.028 A 
ATOM     30  C   UNL     1       8.058  -2.680  22.518  0.00  0.00    +0.027 A 
ENDBRANCH  20  21
ENDBRANCH  19  20
ENDBRANCH   1  19
TORSDOF 5
ENDMDL
MODEL 2
REMARK VINA RESULT:      -8.4      1.022      2.167
REMARK  Name = 
REMARK  5 active torsions:
REMARK  status: ('A' for Active; 'I' for Inactive)
REMARK    1  A    between atoms: C_1  and  O_2
REMARK    2  A    between atoms: C_1  and  C_20
REMARK    3  A    between atoms: O_2  and  C_3
REMARK    4  A    between atoms: C_6  and  C_9
REMARK    5  A    between atoms: C_13  and  C_14
REMARK                            x       y       z     vdW  Elec       q    Type
REMARK                         _______ _______ _______ _____ _____    ______ ____
ROOT
ATOM      1  C   UNL     1       9.758   0.227  23.827  0.00  0.00    +0.121 A 
ATOM      2  C   UNL     1       9.805   0.683  22.512  0.00  0.00    +0.046 A 
ATOM      3  C   UNL     1       9.421   1.996  22.214  0.00  0.00    +0.013 A 
ATOM      4  C   UNL     1       8.991   2.868  23.225  0.00  0.00    +0.003 A 
ATOM      5  C   UNL     1       9.081   2.439  24.553  0.00  0.00    +0.013 A 
ATOM      6  C   UNL     1       9.439   1.120  24.850  0.00  0.00    +0.046 A 
ENDROOT
BRANCH   4   7
ATOM      7  C   UNL     1       8.386   4.158  22.866  0.00  0.00    +0.100 A 
ATOM      8  C   UNL     1       8.851   5.493  23.149  0.00  0.00    +0.027 A 
ATOM      9  C   UNL     1       7.869   6.317  22.638  0.00  0.00    +0.114 A 
ATOM     10  N   UNL     1       6.927   5.499  22.098  0.00  0.00    -0.284 N 
ATOM     11  H   UNL     1       6.066   5.761  21.629  0.00  0.00    +0.188 HD
ATOM     12  N   UNL     1       7.200   4.197  22.230  0.00  0.00    -0.173 NA
BRANCH   8  13
ATOM     13  C   UNL     1      10.052   5.996  23.807  0.00  0.00    -0.011 A 
ATOM     14  C   UNL     1      11.318   5.608  23.361  0.00  0.00    +0.028 A 
ATOM     15  C   UNL     1      12.428   5.985  24.100  0.00  0.00    +0.111 A 
ATOM     16  N   UNL     1      12.362   6.708  25.237  0.00  0.00    -0.263 NA
ATOM     17  C   UNL     1      11.137   7.107  25.630  0.00  0.00    +0.111 A 
ATOM     18  C   UNL     1       9.972   6.811  24.938  0.00  0.00    +0.028 A 
ENDBRANCH   8  13
ENDBRANCH   4   7
BRANCH   1  19
ATOM     19  O   UNL     1      10.054  -1.044  24.226  0.00  0.00    -0.486 OA
BRANCH  19  20
ATOM     20  C   UNL     1       9.929  -2.055  23.224  0.00  0.00    +0.284 C 
BRANCH  20  21
ATOM     21  C   UNL     1       8.874  -3.047  23.672  0.00  0.00    +0.079 A 
ATOM     22  N   UNL     1       8.015  -3.542  22.741  0.00  0.00    -0.248 NA
ATOM     23  C   UNL     1       7.038  -4.379  23.145  0.00  0.00    +0.071 A 
ATOM     24  C   UNL     1       6.893  -4.771  24.491  0.00  0.00    +0.000 A 
ATOM     25  C   UNL     1       5.844  -5.628  24.877  0.00  0.00    +0.010 A 
ATOM     26  C   UNL     1       4.934  -6.100  23.934  0.00  0.00    +0.001 A 
ATOM     27  C   UNL     1       5.077  -5.726  22.603  0.00  0.00    +0.002 A 
ATOM     28  C   UNL     1       7.807  -4.277  25.424  0.00  0.00    +0.012 A 
ATOM     29  C   UNL     1       6.126  -4.878  22.223  0.00  0.00    +0.028 A 
ATOM     30  C   UNL     1       8.809  -3.409  25.012  0.00  0.00    +0.027 A 
ENDBRANCH  20  21
ENDBRANCH  19  20
ENDBRANCH   1  19
TORSDOF 5
ENDMDL
MODEL 3
REMARK VINA RESULT:      -8.4      1.693      3.492
REMARK  Name = 
REMARK  5 active torsions:
REMARK  status: ('A' for Active; 'I' for Inactive)
REMARK    1  A    between atoms: C_1  and  O_2
REMARK    2  A    between atoms: C_1  and  C_20
REMARK    3  A    between atoms: O_2  and  C_3
REMARK    4  A    between atoms: C_6  and  C_9
REMARK    5  A    between atoms: C_13  and  C_14
REMARK                            x       y       z     vdW  Elec       q    Type
REMARK                         _______ _______ _______ _____ _____    ______ ____
ROOT
ATOM      1  C   UNL     1       9.634  -0.427  22.922  0.00  0.00    +0.121 A 
ATOM      2  C   UNL     1       9.613   0.454  21.844  0.00  0.00    +0.046 A 
ATOM      3  C   UNL     1      10.050   1.774  22.013  0.00  0.00    +0.013 A 
ATOM      4  C   UNL     1      10.515   2.226  23.257  0.00  0.00    +0.003 A 
ATOM      5  C   UNL     1      10.658   1.293  24.290  0.00  0.00    +0.013 A 
ATOM      6  C   UNL     1      10.198  -0.017  24.131  0.00  0.00    +0.046 A 
ENDROOT
BRANCH   4   7
ATOM      7  C   UNL     1      10.757   3.659  23.467  0.00  0.00    +0.100 A 
ATOM      8  C   UNL     1       9.813   4.710  23.757  0.00  0.00    +0.027 A 
ATOM      9  C   UNL     1      10.575   5.860  23.791  0.00  0.00    +0.114 A 
ATOM     10  N   UNL     1      11.856   5.477  23.547  0.00  0.00    -0.284 N 
ATOM     11  H   UNL     1      12.686   6.060  23.502  0.00  0.00    +0.188 HD
ATOM     12  N   UNL     1      11.997   4.165  23.334  0.00  0.00    -0.173 NA
BRANCH   8  13
ATOM     13  C   UNL     1       8.372   4.700  23.987  0.00  0.00    -0.011 A 
ATOM     14  C   UNL     1       7.863   4.541  25.279  0.00  0.00    +0.028 A 
ATOM     15  C   UNL     1       6.496   4.388  25.439  0.00  0.00    +0.111 A 
ATOM     16  N   UNL     1       5.615   4.378  24.417  0.00  0.00    -0.263 NA
ATOM     17  C   UNL     1       6.120   4.573  23.184  0.00  0.00    +0.111 A 
ATOM     18  C   UNL     1       7.467   4.772  22.925  0.00  0.00    +0.028 A 
ENDBRANCH   8  13
ENDBRANCH   4   7
BRANCH   1  19
ATOM     19  O   UNL     1       9.182  -1.715  22.890  0.00  0.00    -0.486 OA
BRANCH  19  20
ATOM     20  C   UNL     1       9.847  -2.628  23.766  0.00  0.00    +0.284 C 
BRANCH  20  21
ATOM     21  C   UNL     1       8.806  -3.530  24.397  0.00  0.00    +0.079 A 
ATOM     22  N   UNL     1       7.936  -4.185  23.580  0.00  0.00    -0.248 NA
ATOM     23  C   UNL     1       6.972  -4.943  24.141  0.00  0.00    +0.071 A 
ATOM     24  C   UNL     1       6.850  -5.094  25.537  0.00  0.00    +0.000 A 
ATOM     25  C   UNL     1       5.812  -5.874  26.084  0.00  0.00    +0.010 A 
ATOM     26  C   UNL     1       4.892  -6.508  25.253  0.00  0.00    +0.001 A 
ATOM     27  C   UNL     1       5.013  -6.372  23.875  0.00  0.00    +0.002 A 
ATOM     28  C   UNL     1       7.774  -4.440  26.354  0.00  0.00    +0.012 A 
ATOM     29  C   UNL     1       6.049  -5.599  23.335  0.00  0.00    +0.028 A 
ATOM     30  C   UNL     1       8.763  -3.652  25.781  0.00  0.00    +0.027 A 
ENDBRANCH  20  21
ENDBRANCH  19  20
ENDBRANCH   1  19
TORSDOF 5
ENDMDL
MODEL 4
REMARK VINA RESULT:      -8.3      1.713      3.465
REMARK  Name = 
REMARK  5 active torsions:
REMARK  status: ('A' for Active; 'I' for Inactive)
REMARK    1  A    between atoms: C_1  and  O_2
REMARK    2  A    between atoms: C_1  and  C_20
REMARK    3  A    between atoms: O_2  and  C_3
REMARK    4  A    between atoms: C_6  and  C_9
REMARK    5  A    between atoms: C_13  and  C_14
REMARK                            x       y       z     vdW  Elec       q    Type
REMARK                         _______ _______ _______ _____ _____    ______ ____
ROOT
ATOM      1  C   UNL     1       9.887  -0.670  22.773  0.00  0.00    +0.121 A 
ATOM      2  C   UNL     1       9.722   0.248  21.740  0.00  0.00    +0.046 A 
ATOM      3  C   UNL     1      10.014   1.600  21.954  0.00  0.00    +0.013 A 
ATOM      4  C   UNL     1      10.477   2.049  23.200  0.00  0.00    +0.003 A 
ATOM      5  C   UNL     1      10.767   1.096  24.182  0.00  0.00    +0.013 A 
ATOM      6  C   UNL     1      10.451  -0.251  23.978  0.00  0.00    +0.046 A 
ENDROOT
BRANCH   4   7
ATOM      7  C   UNL     1      10.564   3.491  23.469  0.00  0.00    +0.100 A 
ATOM      8  C   UNL     1       9.510   4.429  23.762  0.00  0.00    +0.027 A 
ATOM      9  C   UNL     1      10.149   5.648  23.863  0.00  0.00    +0.114 A 
ATOM     10  N   UNL     1      11.470   5.406  23.650  0.00  0.00    -0.284 N 
ATOM     11  H   UNL     1      12.236   6.071  23.655  0.00  0.00    +0.188 HD
ATOM     12  N   UNL     1      11.751   4.123  23.397  0.00  0.00    -0.173 NA
BRANCH   8  13
ATOM     13  C   UNL     1       8.071   4.265  23.941  0.00  0.00    -0.011 A 
ATOM     14  C   UNL     1       7.568   3.626  25.077  0.00  0.00    +0.028 A 
ATOM     15  C   UNL     1       6.211   3.357  25.142  0.00  0.00    +0.111 A 
ATOM     16  N   UNL     1       5.335   3.673  24.165  0.00  0.00    -0.263 NA
ATOM     17  C   UNL     1       5.832   4.324  23.096  0.00  0.00    +0.111 A 
ATOM     18  C   UNL     1       7.167   4.669  22.957  0.00  0.00    +0.028 A 
ENDBRANCH   8  13
ENDBRANCH   4   7
BRANCH   1  19
ATOM     19  O   UNL     1       9.582  -1.999  22.697  0.00  0.00    -0.486 OA
BRANCH  19  20
ATOM     20  C   UNL     1       9.492  -2.688  23.946  0.00  0.00    +0.284 C 
BRANCH  20  21
ATOM     21  C   UNL     1       8.268  -3.582  23.913  0.00  0.00    +0.079 A 
ATOM     22  N   UNL     1       7.829  -4.120  25.083  0.00  0.00    -0.248 NA
ATOM     23  C   UNL     1       6.777  -4.962  25.049  0.00  0.00    +0.071 A 
ATOM     24  C   UNL     1       6.108  -5.285  23.851  0.00  0.00    +0.000 A 
ATOM     25  C   UNL     1       5.028  -6.189  23.855  0.00  0.00    +0.010 A 
ATOM     26  C   UNL     1       4.605  -6.777  25.044  0.00  0.00    +0.001 A 
ATOM     27  C   UNL     1       5.252  -6.457  26.231  0.00  0.00    +0.002 A 
ATOM     28  C   UNL     1       6.555  -4.693  22.667  0.00  0.00    +0.012 A 
ATOM     29  C   UNL     1       6.323  -5.553  26.223  0.00  0.00    +0.028 A 
ATOM     30  C   UNL     1       7.644  -3.832  22.697  0.00  0.00    +0.027 A 
ENDBRANCH  20  21
ENDBRANCH  19  20
ENDBRANCH   1  19
TORSDOF 5
ENDMDL
MODEL 5
REMARK VINA RESULT:      -8.3      2.050      9.318
REMARK  Name = 
REMARK  5 active torsions:
REMARK  status: ('A' for Active; 'I' for Inactive)
REMARK    1  A    between atoms: C_1  and  O_2
REMARK    2  A    between atoms: C_1  and  C_20
REMARK    3  A    between atoms: O_2  and  C_3
REMARK    4  A    between atoms: C_6  and  C_9
REMARK    5  A    between atoms: C_13  and  C_14
REMARK                            x       y       z     vdW  Elec       q    Type
REMARK                         _______ _______ _______ _____ _____    ______ ____
ROOT
ATOM      1  C   UNL     1       9.807  -0.532  24.692  0.00  0.00    +0.121 A 
ATOM      2  C   UNL     1       9.138  -0.577  25.912  0.00  0.00    +0.046 A 
ATOM      3  C   UNL     1       8.539  -1.769  26.336  0.00  0.00    +0.013 A 
ATOM      4  C   UNL     1       8.605  -2.929  25.549  0.00  0.00    +0.003 A 
ATOM      5  C   UNL     1       9.395  -2.902  24.395  0.00  0.00    +0.013 A 
ATOM      6  C   UNL     1       9.972  -1.706  23.957  0.00  0.00    +0.046 A 
ENDROOT
BRANCH   4   7
ATOM      7  C   UNL     1       7.788  -4.097  25.903  0.00  0.00    +0.100 A 
ATOM      8  C   UNL     1       6.795  -4.787  25.118  0.00  0.00    +0.027 A 
ATOM      9  C   UNL     1       6.303  -5.762  25.962  0.00  0.00    +0.114 A 
ATOM     10  N   UNL     1       6.980  -5.632  27.133  0.00  0.00    -0.284 N 
ATOM     11  H   UNL     1       6.882  -6.186  27.977  0.00  0.00    +0.188 HD
ATOM     12  N   UNL     1       7.869  -4.633  27.136  0.00  0.00    -0.173 NA
BRANCH   8  13
ATOM     13  C   UNL     1       6.326  -4.606  23.748  0.00  0.00    -0.011 A 
ATOM     14  C   UNL     1       6.407  -5.654  22.828  0.00  0.00    +0.028 A 
ATOM     15  C   UNL     1       6.092  -5.401  21.503  0.00  0.00    +0.111 A 
ATOM     16  N   UNL     1       5.711  -4.193  21.039  0.00  0.00    -0.263 NA
ATOM     17  C   UNL     1       5.600  -3.205  21.948  0.00  0.00    +0.111 A 
ATOM     18  C   UNL     1       5.857  -3.369  23.300  0.00  0.00    +0.028 A 
ENDBRANCH   8  13
ENDBRANCH   4   7
BRANCH   1  19
ATOM     19  O   UNL     1      10.379   0.584  24.152  0.00  0.00    -0.486 OA
BRANCH  19  20
ATOM     20  C   UNL     1       9.976   0.907  22.820  0.00  0.00    +0.284 C 
BRANCH  20  21
ATOM     21  C   UNL     1       9.288   2.257  22.840  0.00  0.00    +0.079 A 
ATOM     22  N   UNL     1       9.900   3.285  23.489  0.00  0.00    -0.248 NA
ATOM     23  C   UNL     1       9.265   4.472  23.559  0.00  0.00    +0.071 A 
ATOM     24  C   UNL     1       8.003   4.687  22.968  0.00  0.00    +0.000 A 
ATOM     25  C   UNL     1       7.361   5.935  23.086  0.00  0.00    +0.010 A 
ATOM     26  C   UNL     1       7.964   6.975  23.788  0.00  0.00    +0.001 A 
ATOM     27  C   UNL     1       9.213   6.775  24.365  0.00  0.00    +0.002 A 
ATOM     28  C   UNL     1       7.409   3.627  22.279  0.00  0.00    +0.012 A 
ATOM     29  C   UNL     1       9.850   5.533  24.240  0.00  0.00    +0.028 A 
ATOM     30  C   UNL     1       8.057   2.401  22.212  0.00  0.00    +0.027 A 
ENDBRANCH  20  21
ENDBRANCH  19  20
ENDBRANCH   1  19
TORSDOF 5
ENDMDL
MODEL 6
REMARK VINA RESULT:      -8.2      2.810      9.835
REMARK  Name = 
REMARK  5 active torsions:
REMARK  status: ('A' for Active; 'I' for Inactive)
REMARK    1  A    between atoms: C_1  and  O_2
REMARK    2  A    between atoms: C_1  and  C_20
REMARK    3  A    between atoms: O_2  and  C_3
REMARK    4  A    between atoms: C_6  and  C_9
REMARK    5  A    between atoms: C_13  and  C_14
REMARK                            x       y       z     vdW  Elec       q    Type
REMARK                         _______ _______ _______ _____ _____    ______ ____
ROOT
ATOM      1  C   UNL     1       9.395  -3.198  24.568  0.00  0.00    +0.121 A 
ATOM      2  C   UNL     1       8.301  -2.631  25.217  0.00  0.00    +0.046 A 
ATOM      3  C   UNL     1       7.504  -3.416  26.058  0.00  0.00    +0.013 A 
ATOM      4  C   UNL     1       7.792  -4.773  26.264  0.00  0.00    +0.003 A 
ATOM      5  C   UNL     1       8.971  -5.291  25.715  0.00  0.00    +0.013 A 
ATOM      6  C   UNL     1       9.752  -4.516  24.854  0.00  0.00    +0.046 A 
ENDROOT
BRANCH   4   7
ATOM      7  C   UNL     1       6.824  -5.625  26.967  0.00  0.00    +0.100 A 
ATOM      8  C   UNL     1       5.484  -5.991  26.583  0.00  0.00    +0.027 A 
ATOM      9  C   UNL     1       5.016  -6.750  27.636  0.00  0.00    +0.114 A 
ATOM     10  N   UNL     1       6.028  -6.812  28.541  0.00  0.00    -0.284 N 
ATOM     11  H   UNL     1       6.039  -7.292  29.435  0.00  0.00    +0.188 HD
ATOM     12  N   UNL     1       7.122  -6.135  28.177  0.00  0.00    -0.173 NA
BRANCH   8  13
ATOM     13  C   UNL     1       4.689  -5.702  25.393  0.00  0.00    -0.011 A 
ATOM     14  C   UNL     1       4.770  -6.529  24.270  0.00  0.00    +0.028 A 
ATOM     15  C   UNL     1       4.118  -6.141  23.111  0.00  0.00    +0.111 A 
ATOM     16  N   UNL     1       3.405  -5.001  22.995  0.00  0.00    -0.263 NA
ATOM     17  C   UNL     1       3.306  -4.237  24.100  0.00  0.00    +0.111 A 
ATOM     18  C   UNL     1       3.891  -4.559  25.315  0.00  0.00    +0.028 A 
ENDBRANCH   8  13
ENDBRANCH   4   7
BRANCH   1  19
ATOM     19  O   UNL     1      10.207  -2.547  23.685  0.00  0.00    -0.486 OA
BRANCH  19  20
ATOM     20  C   UNL     1       9.542  -1.815  22.653  0.00  0.00    +0.284 C 
BRANCH  20  21
ATOM     21  C   UNL     1       9.534  -0.348  23.034  0.00  0.00    +0.079 A 
ATOM     22  N   UNL     1       8.532   0.438  22.557  0.00  0.00    -0.248 NA
ATOM     23  C   UNL     1       8.553   1.756  22.845  0.00  0.00    +0.071 A 
ATOM     24  C   UNL     1       9.564   2.336  23.637  0.00  0.00    +0.000 A 
ATOM     25  C   UNL     1       9.565   3.721  23.895  0.00  0.00    +0.010 A 
ATOM     26  C   UNL     1       8.566   4.537  23.370  0.00  0.00    +0.001 A 
ATOM     27  C   UNL     1       7.560   3.970  22.596  0.00  0.00    +0.002 A 
ATOM     28  C   UNL     1      10.564   1.503  24.144  0.00  0.00    +0.012 A 
ATOM     29  C   UNL     1       7.561   2.591  22.347  0.00  0.00    +0.028 A 
ATOM     30  C   UNL     1      10.550   0.148  23.842  0.00  0.00    +0.027 A 
ENDBRANCH  20  21
ENDBRANCH  19  20
ENDBRANCH   1  19
TORSDOF 5
ENDMDL
MODEL 7
REMARK VINA RESULT:      -7.9      2.980      9.906
REMARK  Name = 
REMARK  5 active torsions:
REMARK  status: ('A' for Active; 'I' for Inactive)
REMARK    1  A    between atoms: C_1  and  O_2
REMARK    2  A    between atoms: C_1  and  C_20
REMARK    3  A    between atoms: O_2  and  C_3
REMARK    4  A    between atoms: C_6  and  C_9
REMARK    5  A    between atoms: C_13  and  C_14
REMARK                            x       y       z     vdW  Elec       q    Type
REMARK                         _______ _______ _______ _____ _____    ______ ____
ROOT
ATOM      1  C   UNL     1       7.257  -3.238  22.314  0.00  0.00    +0.121 A 
ATOM      2  C   UNL     1       7.427  -4.604  22.104  0.00  0.00    +0.046 A 
ATOM      3  C   UNL     1       6.425  -5.500  22.493  0.00  0.00    +0.013 A 
ATOM      4  C   UNL     1       5.241  -5.043  23.092  0.00  0.00    +0.003 A 
ATOM      5  C   UNL     1       5.029  -3.662  23.170  0.00  0.00    +0.013 A 
ATOM      6  C   UNL     1       6.039  -2.767  22.806  0.00  0.00    +0.046 A 
ENDROOT
BRANCH   4   7
ATOM      7  C   UNL     1       4.308  -6.007  23.690  0.00  0.00    +0.100 A 
ATOM      8  C   UNL     1       4.289  -6.549  25.026  0.00  0.00    +0.027 A 
ATOM      9  C   UNL     1       3.243  -7.448  25.020  0.00  0.00    +0.114 A 
ATOM     10  N   UNL     1       2.708  -7.404  23.770  0.00  0.00    -0.284 N 
ATOM     11  H   UNL     1       1.919  -7.930  23.408  0.00  0.00    +0.188 HD
ATOM     12  N   UNL     1       3.333  -6.559  22.944  0.00  0.00    -0.173 NA
BRANCH   8  13
ATOM     13  C   UNL     1       5.115  -6.294  26.201  0.00  0.00    -0.011 A 
ATOM     14  C   UNL     1       6.335  -5.623  26.077  0.00  0.00    +0.028 A 
ATOM     15  C   UNL     1       7.158  -5.531  27.187  0.00  0.00    +0.111 A 
ATOM     16  N   UNL     1       6.857  -6.057  28.392  0.00  0.00    -0.263 NA
ATOM     17  C   UNL     1       5.660  -6.665  28.503  0.00  0.00    +0.111 A 
ATOM     18  C   UNL     1       4.752  -6.775  27.461  0.00  0.00    +0.028 A 
ENDBRANCH   8  13
ENDBRANCH   4   7
BRANCH   1  19
ATOM     19  O   UNL     1       8.186  -2.279  22.027  0.00  0.00    -0.486 OA
BRANCH  19  20
ATOM     20  C   UNL     1       9.187  -2.067  23.024  0.00  0.00    +0.284 C 
BRANCH  20  21
ATOM     21  C   UNL     1       9.267  -0.582  23.316  0.00  0.00    +0.079 A 
ATOM     22  N   UNL     1       8.329   0.236  22.765  0.00  0.00    -0.248 NA
ATOM     23  C   UNL     1       8.429   1.565  22.974  0.00  0.00    +0.071 A 
ATOM     24  C   UNL     1       9.458   2.127  23.757  0.00  0.00    +0.000 A 
ATOM     25  C   UNL     1       9.543   3.523  23.930  0.00  0.00    +0.010 A 
ATOM     26  C   UNL     1       8.611   4.366  23.330  0.00  0.00    +0.001 A 
ATOM     27  C   UNL     1       7.588   3.818  22.566  0.00  0.00    +0.002 A 
ATOM     28  C   UNL     1      10.390   1.265  24.339  0.00  0.00    +0.012 A 
ATOM     29  C   UNL     1       7.505   2.430  22.401  0.00  0.00    +0.028 A 
ATOM     30  C   UNL     1      10.294  -0.102  24.119  0.00  0.00    +0.027 A 
ENDBRANCH  20  21
ENDBRANCH  19  20
ENDBRANCH   1  19
TORSDOF 5
ENDMDL
MODEL 8
REMARK VINA RESULT:      -7.8      2.326      9.831
REMARK  Name = 
REMARK  5 active torsions:
REMARK  status: ('A' for Active; 'I' for Inactive)
REMARK    1  A    between atoms: C_1  and  O_2
REMARK    2  A    between atoms: C_1  and  C_20
REMARK    3  A    between atoms: O_2  and  C_3
REMARK    4  A    between atoms: C_6  and  C_9
REMARK    5  A    between atoms: C_13  and  C_14
REMARK                            x       y       z     vdW  Elec       q    Type
REMARK                         _______ _______ _______ _____ _____    ______ ____
ROOT
ATOM      1  C   UNL     1       9.499  -1.447  23.877  0.00  0.00    +0.121 A 
ATOM      2  C   UNL     1       9.997  -2.746  23.813  0.00  0.00    +0.046 A 
ATOM      3  C   UNL     1       9.329  -3.782  24.476  0.00  0.00    +0.013 A 
ATOM      4  C   UNL     1       8.156  -3.534  25.206  0.00  0.00    +0.003 A 
ATOM      5  C   UNL     1       7.597  -2.252  25.145  0.00  0.00    +0.013 A 
ATOM      6  C   UNL     1       8.277  -1.211  24.505  0.00  0.00    +0.046 A 
ENDROOT
BRANCH   4   7
ATOM      7  C   UNL     1       7.599  -4.583  26.070  0.00  0.00    +0.100 A 
ATOM      8  C   UNL     1       6.363  -5.311  25.938  0.00  0.00    +0.027 A 
ATOM      9  C   UNL     1       6.316  -6.121  27.054  0.00  0.00    +0.114 A 
ATOM     10  N   UNL     1       7.453  -5.869  27.756  0.00  0.00    -0.284 N 
ATOM     11  H   UNL     1       7.755  -6.289  28.629  0.00  0.00    +0.188 HD
ATOM     12  N   UNL     1       8.238  -4.940  27.199  0.00  0.00    -0.173 NA
BRANCH   8  13
ATOM     13  C   UNL     1       5.319  -5.298  24.918  0.00  0.00    -0.011 A 
ATOM     14  C   UNL     1       5.562  -5.831  23.649  0.00  0.00    +0.028 A 
ATOM     15  C   UNL     1       4.602  -5.667  22.665  0.00  0.00    +0.111 A 
ATOM     16  N   UNL     1       3.435  -5.016  22.854  0.00  0.00    -0.263 NA
ATOM     17  C   UNL     1       3.201  -4.544  24.093  0.00  0.00    +0.111 A 
ATOM     18  C   UNL     1       4.083  -4.690  25.153  0.00  0.00    +0.028 A 
ENDBRANCH   8  13
ENDBRANCH   4   7
BRANCH   1  19
ATOM     19  O   UNL     1      10.094  -0.352  23.318  0.00  0.00    -0.486 OA
BRANCH  19  20
ATOM     20  C   UNL     1       9.244   0.484  22.531  0.00  0.00    +0.284 C 
BRANCH  20  21
ATOM     21  C   UNL     1       9.394   1.912  23.013  0.00  0.00    +0.079 A 
ATOM     22  N   UNL     1      10.613   2.508  22.901  0.00  0.00    -0.248 NA
ATOM     23  C   UNL     1      10.766   3.758  23.382  0.00  0.00    +0.071 A 
ATOM     24  C   UNL     1       9.704   4.471  23.976  0.00  0.00    +0.000 A 
ATOM     25  C   UNL     1       9.912   5.766  24.489  0.00  0.00    +0.010 A 
ATOM     26  C   UNL     1      11.168   6.361  24.417  0.00  0.00    +0.001 A 
ATOM     27  C   UNL     1      12.217   5.669  23.824  0.00  0.00    +0.002 A 
ATOM     28  C   UNL     1       8.454   3.852  24.049  0.00  0.00    +0.012 A 
ATOM     29  C   UNL     1      12.005   4.383  23.310  0.00  0.00    +0.028 A 
ATOM     30  C   UNL     1       8.296   2.562  23.562  0.00  0.00    +0.027 A 
ENDBRANCH  20  21
ENDBRANCH  19  20
ENDBRANCH   1  19
TORSDOF 5
ENDMDL
MODEL 9
REMARK VINA RESULT:      -7.7      3.413      9.794
REMARK  Name = 
REMARK  5 active torsions:
REMARK  status: ('A' for Active; 'I' for Inactive)
REMARK    1  A    between atoms: C_1  and  O_2
REMARK    2  A    between atoms: C_1  and  C_20
REMARK    3  A    between atoms: O_2  and  C_3
REMARK    4  A    between atoms: C_6  and  C_9
REMARK    5  A    between atoms: C_13  and  C_14
REMARK                            x       y       z     vdW  Elec       q    Type
REMARK                         _______ _______ _______ _____ _____    ______ ____
ROOT
ATOM      1  C   UNL     1       8.124  -4.494  24.896  0.00  0.00    +0.121 A 
ATOM      2  C   UNL     1       8.446  -4.699  26.235  0.00  0.00    +0.046 A 
ATOM      3  C   UNL     1       7.535  -5.341  27.081  0.00  0.00    +0.013 A 
ATOM      4  C   UNL     1       6.296  -5.790  26.600  0.00  0.00    +0.003 A 
ATOM      5  C   UNL     1       6.046  -5.699  25.226  0.00  0.00    +0.013 A 
ATOM      6  C   UNL     1       6.943  -5.033  24.385  0.00  0.00    +0.046 A 
ENDROOT
BRANCH   4   7
ATOM      7  C   UNL     1       5.273  -6.257  27.545  0.00  0.00    +0.100 A 
ATOM      8  C   UNL     1       3.968  -5.712  27.819  0.00  0.00    +0.027 A 
ATOM      9  C   UNL     1       3.467  -6.503  28.832  0.00  0.00    +0.114 A 
ATOM     10  N   UNL     1       4.422  -7.433  29.099  0.00  0.00    -0.284 N 
ATOM     11  H   UNL     1       4.393  -8.182  29.783  0.00  0.00    +0.188 HD
ATOM     12  N   UNL     1       5.525  -7.304  28.353  0.00  0.00    -0.173 NA
BRANCH   8  13
ATOM     13  C   UNL     1       3.227  -4.597  27.238  0.00  0.00    -0.011 A 
ATOM     14  C   UNL     1       2.551  -4.753  26.025  0.00  0.00    +0.028 A 
ATOM     15  C   UNL     1       1.985  -3.636  25.432  0.00  0.00    +0.111 A 
ATOM     16  N   UNL     1       2.051  -2.393  25.953  0.00  0.00    -0.263 NA
ATOM     17  C   UNL     1       2.672  -2.270  27.142  0.00  0.00    +0.111 A 
ATOM     18  C   UNL     1       3.236  -3.333  27.831  0.00  0.00    +0.028 A 
ENDBRANCH   8  13
ENDBRANCH   4   7
BRANCH   1  19
ATOM     19  O   UNL     1       8.906  -3.832  23.994  0.00  0.00    -0.486 OA
BRANCH  19  20
ATOM     20  C   UNL     1       8.212  -3.181  22.928  0.00  0.00    +0.284 C 
BRANCH  20  21
ATOM     21  C   UNL     1       8.712  -1.754  22.830  0.00  0.00    +0.079 A 
ATOM     22  N   UNL     1       8.467  -0.910  23.869  0.00  0.00    -0.248 NA
ATOM     23  C   UNL     1       8.859   0.375  23.762  0.00  0.00    +0.071 A 
ATOM     24  C   UNL     1       9.528   0.865  22.622  0.00  0.00    +0.000 A 
ATOM     25  C   UNL     1       9.899   2.221  22.538  0.00  0.00    +0.010 A 
ATOM     26  C   UNL     1       9.609   3.098  23.580  0.00  0.00    +0.001 A 
ATOM     27  C   UNL     1       8.958   2.621  24.711  0.00  0.00    +0.002 A 
ATOM     28  C   UNL     1       9.799  -0.027  21.582  0.00  0.00    +0.012 A 
ATOM     29  C   UNL     1       8.596   1.270  24.793  0.00  0.00    +0.028 A 
ATOM     30  C   UNL     1       9.390  -1.350  21.686  0.00  0.00    +0.027 A 
ENDBRANCH  20  21
ENDBRANCH  19  20
ENDBRANCH   1  19
TORSDOF 5
ENDMDL
