MODEL 1
REMARK VINA RESULT:      -6.7      0.000      0.000
REMARK  Name = 
REMARK  12 active torsions:
REMARK  status: ('A' for Active; 'I' for Inactive)
REMARK    1  A    between atoms: C_1  and  O_2
REMARK    2  A    between atoms: O_2  and  C_3
REMARK    3  A    between atoms: C_6  and  O_7
REMARK    4  A    between atoms: O_7  and  C_8
REMARK    5  A    between atoms: C_12  and  N_14
REMARK    6  A    between atoms: N_14  and  C_15
REMARK    7  A    between atoms: N_14  and  C_16
REMARK    8  A    between atoms: C_16  and  C_17
REMARK    9  A    between atoms: C_17  and  O_18
REMARK   10  A    between atoms: O_18  and  C_19
REMARK   11  A    between atoms: C_22  and  C_23
REMARK   12  A    between atoms: C_23  and  C_24
REMARK                            x       y       z     vdW  Elec       q    Type
REMARK                         _______ _______ _______ _____ _____    ______ ____
ROOT
ATOM      1  C   UNL     1       6.957  -5.203  25.944  0.00  0.00    +0.147 C 
ENDROOT
BRANCH   1   2
ATOM      2  N   UNL     1       8.114  -5.064  25.030  0.00  0.00    -0.315 N 
ATOM      3  C   UNL     1       9.411  -5.618  25.400  0.00  0.00    +0.131 C 
BRANCH   2   6
ATOM      4  C   UNL     1       9.031  -2.303  22.815  0.00  0.00    +0.225 A 
ATOM      5  C   UNL     1       9.163  -3.257  23.807  0.00  0.00    +0.111 A 
ATOM      6  C   UNL     1       8.052  -4.030  24.099  0.00  0.00    +0.128 A 
ATOM      7  N   UNL     1       6.900  -3.825  23.432  0.00  0.00    -0.221 NA
ATOM      8  C   UNL     1       6.863  -2.829  22.531  0.00  0.00    +0.227 A 
ATOM      9  N   UNL     1       7.880  -2.037  22.188  0.00  0.00    -0.201 NA
BRANCH   4  10
ATOM     10  O   UNL     1      10.170  -1.575  22.493  0.00  0.00    -0.438 OA
BRANCH  10  14
ATOM     11  C   UNL     1      10.390   2.516  23.348  0.00  0.00    +0.120 A 
ATOM     12  C   UNL     1       9.902   2.112  22.106  0.00  0.00    +0.049 A 
ATOM     13  C   UNL     1       9.816   0.752  21.792  0.00  0.00    +0.050 A 
ATOM     14  C   UNL     1      10.173  -0.219  22.732  0.00  0.00    +0.131 A 
ATOM     15  C   UNL     1      10.650   0.189  23.983  0.00  0.00    +0.050 A 
ATOM     16  C   UNL     1      10.744   1.550  24.293  0.00  0.00    +0.049 A 
BRANCH  11  18
ATOM     17  C   UNL     1       9.327   4.590  23.655  0.00  0.00    +0.277 C 
ATOM     18  O   UNL     1      10.524   3.821  23.739  0.00  0.00    -0.495 OA
ENDBRANCH  11  18
ENDBRANCH  10  14
ENDBRANCH   4  10
ENDBRANCH   2   6
ENDBRANCH   1   2
BRANCH   1  19
ATOM     19  C   UNL     1       6.966  -4.207  27.116  0.00  0.00    +0.248 C 
BRANCH  19  20
ATOM     20  O   UNL     1       5.938  -3.219  26.969  0.00  0.00    -0.490 OA
BRANCH  20  21
ATOM     21  C   UNL     1       6.337  -2.014  26.442  0.00  0.00    +0.121 A 
ATOM     22  C   UNL     1       5.413  -1.391  25.604  0.00  0.00    +0.046 A 
ATOM     23  C   UNL     1       5.675  -0.126  25.061  0.00  0.00    +0.007 A 
ATOM     24  C   UNL     1       6.874   0.542  25.346  0.00  0.00    -0.046 A 
ATOM     25  C   UNL     1       7.816  -0.107  26.153  0.00  0.00    +0.007 A 
ATOM     26  C   UNL     1       7.553  -1.374  26.689  0.00  0.00    +0.046 A 
BRANCH  24  27
ATOM     27  C   UNL     1       7.073   1.976  24.902  0.00  0.00    +0.059 C 
BRANCH  27  28
ATOM     28  C   UNL     1       5.898   2.641  24.180  0.00  0.00    +0.146 C 
ATOM     29  C   UNL     1       6.155   2.703  22.686  0.00  0.00    +0.234 C 
ATOM     30  O   UNL     1       6.511   1.759  21.996  0.00  0.00    -0.274 OA
ATOM     31  N   UNL     1       5.888   3.937  22.174  0.00  0.00    -0.246 N 
ATOM     32  H   UNL     1       5.945   4.110  21.180  0.00  0.00    +0.158 HD
ATOM     33  C   UNL     1       5.512   4.922  23.018  0.00  0.00    +0.279 C 
ATOM     34  O   UNL     1       5.155   6.041  22.689  0.00  0.00    -0.263 OA
ATOM     35  S   UNL     1       5.606   4.373  24.672  0.00  0.00    -0.054 S 
ENDBRANCH  27  28
ENDBRANCH  24  27
ENDBRANCH  20  21
ENDBRANCH  19  20
ENDBRANCH   1  19
TORSDOF 10
ENDMDL
MODEL 2
REMARK VINA RESULT:      -6.6      2.882      7.439
REMARK  Name = 
REMARK  12 active torsions:
REMARK  status: ('A' for Active; 'I' for Inactive)
REMARK    1  A    between atoms: C_1  and  O_2
REMARK    2  A    between atoms: O_2  and  C_3
REMARK    3  A    between atoms: C_6  and  O_7
REMARK    4  A    between atoms: O_7  and  C_8
REMARK    5  A    between atoms: C_12  and  N_14
REMARK    6  A    between atoms: N_14  and  C_15
REMARK    7  A    between atoms: N_14  and  C_16
REMARK    8  A    between atoms: C_16  and  C_17
REMARK    9  A    between atoms: C_17  and  O_18
REMARK   10  A    between atoms: O_18  and  C_19
REMARK   11  A    between atoms: C_22  and  C_23
REMARK   12  A    between atoms: C_23  and  C_24
REMARK                            x       y       z     vdW  Elec       q    Type
REMARK                         _______ _______ _______ _____ _____    ______ ____
ROOT
ATOM      1  C   UNL     1      10.520   2.669  22.787  0.00  0.00    +0.147 C 
ENDROOT
BRANCH   1   2
ATOM      2  N   UNL     1       9.652   3.710  23.383  0.00  0.00    -0.315 N 
ATOM      3  C   UNL     1      10.227   4.964  23.852  0.00  0.00    +0.131 C 
BRANCH   2   6
ATOM      4  C   UNL     1       7.105   2.221  25.544  0.00  0.00    +0.225 A 
ATOM      5  C   UNL     1       8.362   2.537  25.065  0.00  0.00    +0.111 A 
ATOM      6  C   UNL     1       8.430   3.282  23.898  0.00  0.00    +0.128 A 
ATOM      7  N   UNL     1       7.296   3.654  23.275  0.00  0.00    -0.221 NA
ATOM      8  C   UNL     1       6.128   3.239  23.793  0.00  0.00    +0.227 A 
ATOM      9  N   UNL     1       5.969   2.522  24.906  0.00  0.00    -0.201 NA
BRANCH   4  10
ATOM     10  O   UNL     1       7.052   1.524  26.745  0.00  0.00    -0.438 OA
BRANCH  10  14
ATOM     11  C   UNL     1       7.620  -2.619  26.585  0.00  0.00    +0.120 A 
ATOM     12  C   UNL     1       8.729  -1.782  26.468  0.00  0.00    +0.049 A 
ATOM     13  C   UNL     1       8.570  -0.394  26.518  0.00  0.00    +0.050 A 
ATOM     14  C   UNL     1       7.309   0.171  26.732  0.00  0.00    +0.131 A 
ATOM     15  C   UNL     1       6.200  -0.672  26.864  0.00  0.00    +0.050 A 
ATOM     16  C   UNL     1       6.359  -2.061  26.805  0.00  0.00    +0.049 A 
BRANCH  11  18
ATOM     17  C   UNL     1       8.954  -4.516  26.197  0.00  0.00    +0.277 C 
ATOM     18  O   UNL     1       7.674  -3.986  26.534  0.00  0.00    -0.495 OA
ENDBRANCH  11  18
ENDBRANCH  10  14
ENDBRANCH   4  10
ENDBRANCH   2   6
ENDBRANCH   1   2
BRANCH   1  19
ATOM     19  C   UNL     1       9.769   1.666  21.894  0.00  0.00    +0.248 C 
BRANCH  19  20
ATOM     20  O   UNL     1      10.198   0.322  22.142  0.00  0.00    -0.490 OA
BRANCH  20  21
ATOM     21  C   UNL     1       9.211  -0.567  22.494  0.00  0.00    +0.121 A 
ATOM     22  C   UNL     1       7.949  -0.010  22.704  0.00  0.00    +0.046 A 
ATOM     23  C   UNL     1       6.846  -0.822  22.999  0.00  0.00    +0.007 A 
ATOM     24  C   UNL     1       6.985  -2.213  23.090  0.00  0.00    -0.046 A 
ATOM     25  C   UNL     1       8.261  -2.763  22.920  0.00  0.00    +0.007 A 
ATOM     26  C   UNL     1       9.363  -1.947  22.632  0.00  0.00    +0.046 A 
BRANCH  24  27
ATOM     27  C   UNL     1       5.761  -3.095  23.232  0.00  0.00    +0.059 C 
BRANCH  27  28
ATOM     28  C   UNL     1       6.012  -4.586  23.467  0.00  0.00    +0.146 C 
ATOM     29  C   UNL     1       5.552  -5.400  22.273  0.00  0.00    +0.234 C 
ATOM     30  O   UNL     1       5.845  -5.166  21.110  0.00  0.00    -0.274 OA
ATOM     31  N   UNL     1       4.803  -6.476  22.647  0.00  0.00    -0.246 N 
ATOM     32  H   UNL     1       4.485  -7.149  21.965  0.00  0.00    +0.158 HD
ATOM     33  C   UNL     1       4.519  -6.643  23.956  0.00  0.00    +0.279 C 
ATOM     34  O   UNL     1       3.942  -7.604  24.440  0.00  0.00    -0.263 OA
ATOM     35  S   UNL     1       5.095  -5.281  24.883  0.00  0.00    -0.054 S 
ENDBRANCH  27  28
ENDBRANCH  24  27
ENDBRANCH  20  21
ENDBRANCH  19  20
ENDBRANCH   1  19
TORSDOF 10
ENDMDL
MODEL 3
REMARK VINA RESULT:      -6.6      2.927      7.484
REMARK  Name = 
REMARK  12 active torsions:
REMARK  status: ('A' for Active; 'I' for Inactive)
REMARK    1  A    between atoms: C_1  and  O_2
REMARK    2  A    between atoms: O_2  and  C_3
REMARK    3  A    between atoms: C_6  and  O_7
REMARK    4  A    between atoms: O_7  and  C_8
REMARK    5  A    between atoms: C_12  and  N_14
REMARK    6  A    between atoms: N_14  and  C_15
REMARK    7  A    between atoms: N_14  and  C_16
REMARK    8  A    between atoms: C_16  and  C_17
REMARK    9  A    between atoms: C_17  and  O_18
REMARK   10  A    between atoms: O_18  and  C_19
REMARK   11  A    between atoms: C_22  and  C_23
REMARK   12  A    between atoms: C_23  and  C_24
REMARK                            x       y       z     vdW  Elec       q    Type
REMARK                         _______ _______ _______ _____ _____    ______ ____
ROOT
ATOM      1  C   UNL     1       9.544   1.750  23.870  0.00  0.00    +0.147 C 
ENDROOT
BRANCH   1   2
ATOM      2  N   UNL     1       9.381   0.837  22.716  0.00  0.00    -0.315 N 
ATOM      3  C   UNL     1       8.915   1.351  21.435  0.00  0.00    +0.131 C 
BRANCH   2   6
ATOM      4  C   UNL     1       8.340  -2.665  22.578  0.00  0.00    +0.225 A 
ATOM      5  C   UNL     1       8.376  -1.320  22.265  0.00  0.00    +0.111 A 
ATOM      6  C   UNL     1       9.224  -0.516  23.009  0.00  0.00    +0.128 A 
ATOM      7  N   UNL     1       9.961  -1.056  24.000  0.00  0.00    -0.221 NA
ATOM      8  C   UNL     1       9.801  -2.364  24.260  0.00  0.00    +0.227 A 
ATOM      9  N   UNL     1       9.010  -3.210  23.599  0.00  0.00    -0.201 NA
BRANCH   4  10
ATOM     10  O   UNL     1       7.528  -3.468  21.785  0.00  0.00    -0.438 OA
BRANCH  10  14
ATOM     11  C   UNL     1       4.377  -5.626  23.497  0.00  0.00    +0.120 A 
ATOM     12  C   UNL     1       5.602  -6.263  23.303  0.00  0.00    +0.049 A 
ATOM     13  C   UNL     1       6.674  -5.567  22.734  0.00  0.00    +0.050 A 
ATOM     14  C   UNL     1       6.546  -4.216  22.396  0.00  0.00    +0.131 A 
ATOM     15  C   UNL     1       5.319  -3.577  22.604  0.00  0.00    +0.050 A 
ATOM     16  C   UNL     1       4.245  -4.276  23.166  0.00  0.00    +0.049 A 
BRANCH  11  18
ATOM     17  C   UNL     1       3.553  -7.253  24.982  0.00  0.00    +0.277 C 
ATOM     18  O   UNL     1       3.270  -6.228  24.032  0.00  0.00    -0.495 OA
ENDBRANCH  11  18
ENDBRANCH  10  14
ENDBRANCH   4  10
ENDBRANCH   2   6
ENDBRANCH   1   2
BRANCH   1  19
ATOM     19  C   UNL     1       8.270   2.534  24.230  0.00  0.00    +0.248 C 
BRANCH  19  20
ATOM     20  O   UNL     1       7.847   2.255  25.570  0.00  0.00    -0.490 OA
BRANCH  20  21
ATOM     21  C   UNL     1       7.432   0.968  25.812  0.00  0.00    +0.121 A 
ATOM     22  C   UNL     1       6.438   0.488  24.959  0.00  0.00    +0.046 A 
ATOM     23  C   UNL     1       5.982  -0.833  25.061  0.00  0.00    +0.007 A 
ATOM     24  C   UNL     1       6.513  -1.702  26.023  0.00  0.00    -0.046 A 
ATOM     25  C   UNL     1       7.479  -1.203  26.904  0.00  0.00    +0.007 A 
ATOM     26  C   UNL     1       7.928   0.120  26.804  0.00  0.00    +0.046 A 
BRANCH  24  27
ATOM     27  C   UNL     1       6.143  -3.171  26.011  0.00  0.00    +0.059 C 
BRANCH  27  28
ATOM     28  C   UNL     1       6.361  -3.945  27.313  0.00  0.00    +0.146 C 
ATOM     29  C   UNL     1       7.531  -4.903  27.177  0.00  0.00    +0.234 C 
ATOM     30  O   UNL     1       8.635  -4.603  26.749  0.00  0.00    -0.274 OA
ATOM     31  N   UNL     1       7.228  -6.147  27.643  0.00  0.00    -0.246 N 
ATOM     32  H   UNL     1       7.930  -6.872  27.681  0.00  0.00    +0.158 HD
ATOM     33  C   UNL     1       5.974  -6.386  28.084  0.00  0.00    +0.279 C 
ATOM     34  O   UNL     1       5.593  -7.419  28.611  0.00  0.00    -0.263 OA
ATOM     35  S   UNL     1       4.954  -5.000  27.797  0.00  0.00    -0.054 S 
ENDBRANCH  27  28
ENDBRANCH  24  27
ENDBRANCH  20  21
ENDBRANCH  19  20
ENDBRANCH   1  19
TORSDOF 10
ENDMDL
MODEL 4
REMARK VINA RESULT:      -6.6      3.578      7.297
REMARK  Name = 
REMARK  12 active torsions:
REMARK  status: ('A' for Active; 'I' for Inactive)
REMARK    1  A    between atoms: C_1  and  O_2
REMARK    2  A    between atoms: O_2  and  C_3
REMARK    3  A    between atoms: C_6  and  O_7
REMARK    4  A    between atoms: O_7  and  C_8
REMARK    5  A    between atoms: C_12  and  N_14
REMARK    6  A    between atoms: N_14  and  C_15
REMARK    7  A    between atoms: N_14  and  C_16
REMARK    8  A    between atoms: C_16  and  C_17
REMARK    9  A    between atoms: C_17  and  O_18
REMARK   10  A    between atoms: O_18  and  C_19
REMARK   11  A    between atoms: C_22  and  C_23
REMARK   12  A    between atoms: C_23  and  C_24
REMARK                            x       y       z     vdW  Elec       q    Type
REMARK                         _______ _______ _______ _____ _____    ______ ____
ROOT
ATOM      1  C   UNL     1       7.028   1.170  24.822  0.00  0.00    +0.147 C 
ENDROOT
BRANCH   1   2
ATOM      2  N   UNL     1       8.476   1.212  24.520  0.00  0.00    -0.315 N 
ATOM      3  C   UNL     1       9.201   2.476  24.575  0.00  0.00    +0.131 C 
BRANCH   2   6
ATOM      4  C   UNL     1       9.812  -2.033  23.493  0.00  0.00    +0.225 A 
ATOM      5  C   UNL     1       9.395  -1.021  24.337  0.00  0.00    +0.111 A 
ATOM      6  C   UNL     1       8.983   0.165  23.752  0.00  0.00    +0.128 A 
ATOM      7  N   UNL     1       9.014   0.297  22.412  0.00  0.00    -0.221 NA
ATOM      8  C   UNL     1       9.497  -0.727  21.690  0.00  0.00    +0.227 A 
ATOM      9  N   UNL     1       9.915  -1.900  22.166  0.00  0.00    -0.201 NA
BRANCH   4  10
ATOM     10  O   UNL     1      10.167  -3.237  24.090  0.00  0.00    -0.438 OA
BRANCH  10  14
ATOM     11  C   UNL     1       7.142  -5.429  25.976  0.00  0.00    +0.120 A 
ATOM     12  C   UNL     1       7.158  -5.363  24.583  0.00  0.00    +0.049 A 
ATOM     13  C   UNL     1       8.157  -4.638  23.925  0.00  0.00    +0.050 A 
ATOM     14  C   UNL     1       9.176  -4.012  24.649  0.00  0.00    +0.131 A 
ATOM     15  C   UNL     1       9.164  -4.091  26.046  0.00  0.00    +0.050 A 
ATOM     16  C   UNL     1       8.159  -4.809  26.704  0.00  0.00    +0.049 A 
BRANCH  11  18
ATOM     17  C   UNL     1       6.271  -5.878  28.113  0.00  0.00    +0.277 C 
ATOM     18  O   UNL     1       6.199  -6.100  26.706  0.00  0.00    -0.495 OA
ENDBRANCH  11  18
ENDBRANCH  10  14
ENDBRANCH   4  10
ENDBRANCH   2   6
ENDBRANCH   1   2
BRANCH   1  19
ATOM     19  C   UNL     1       6.707   0.848  26.293  0.00  0.00    +0.248 C 
BRANCH  19  20
ATOM     20  O   UNL     1       7.008  -0.517  26.606  0.00  0.00    -0.490 OA
BRANCH  20  21
ATOM     21  C   UNL     1       6.131  -1.453  26.112  0.00  0.00    +0.121 A 
ATOM     22  C   UNL     1       5.353  -2.108  27.067  0.00  0.00    +0.046 A 
ATOM     23  C   UNL     1       4.374  -3.033  26.682  0.00  0.00    +0.007 A 
ATOM     24  C   UNL     1       4.153  -3.322  25.329  0.00  0.00    -0.046 A 
ATOM     25  C   UNL     1       4.966  -2.694  24.378  0.00  0.00    +0.007 A 
ATOM     26  C   UNL     1       5.949  -1.774  24.766  0.00  0.00    +0.046 A 
BRANCH  24  27
ATOM     27  C   UNL     1       2.980  -4.185  24.914  0.00  0.00    +0.059 C 
BRANCH  27  28
ATOM     28  C   UNL     1       3.257  -5.678  24.729  0.00  0.00    +0.146 C 
ATOM     29  C   UNL     1       3.464  -6.006  23.262  0.00  0.00    +0.234 C 
ATOM     30  O   UNL     1       4.217  -5.406  22.509  0.00  0.00    -0.274 OA
ATOM     31  N   UNL     1       2.746  -7.098  22.877  0.00  0.00    -0.246 N 
ATOM     32  H   UNL     1       2.838  -7.478  21.945  0.00  0.00    +0.158 HD
ATOM     33  C   UNL     1       1.929  -7.687  23.777  0.00  0.00    +0.279 C 
ATOM     34  O   UNL     1       1.303  -8.719  23.598  0.00  0.00    -0.263 OA
ATOM     35  S   UNL     1       1.886  -6.761  25.255  0.00  0.00    -0.054 S 
ENDBRANCH  27  28
ENDBRANCH  24  27
ENDBRANCH  20  21
ENDBRANCH  19  20
ENDBRANCH   1  19
TORSDOF 10
ENDMDL
MODEL 5
REMARK VINA RESULT:      -6.6      2.838      5.228
REMARK  Name = 
REMARK  12 active torsions:
REMARK  status: ('A' for Active; 'I' for Inactive)
REMARK    1  A    between atoms: C_1  and  O_2
REMARK    2  A    between atoms: O_2  and  C_3
REMARK    3  A    between atoms: C_6  and  O_7
REMARK    4  A    between atoms: O_7  and  C_8
REMARK    5  A    between atoms: C_12  and  N_14
REMARK    6  A    between atoms: N_14  and  C_15
REMARK    7  A    between atoms: N_14  and  C_16
REMARK    8  A    between atoms: C_16  and  C_17
REMARK    9  A    between atoms: C_17  and  O_18
REMARK   10  A    between atoms: O_18  and  C_19
REMARK   11  A    between atoms: C_22  and  C_23
REMARK   12  A    between atoms: C_23  and  C_24
REMARK                            x       y       z     vdW  Elec       q    Type
REMARK                         _______ _______ _______ _____ _____    ______ ____
ROOT
ATOM      1  C   UNL     1       4.556  -6.662  23.920  0.00  0.00    +0.147 C 
ENDROOT
BRANCH   1   2
ATOM      2  N   UNL     1       4.179  -6.816  25.343  0.00  0.00    -0.315 N 
ATOM      3  C   UNL     1       2.775  -6.802  25.735  0.00  0.00    +0.131 C 
BRANCH   2   6
ATOM      4  C   UNL     1       7.057  -5.293  27.007  0.00  0.00    +0.225 A 
ATOM      5  C   UNL     1       6.177  -5.609  25.989  0.00  0.00    +0.111 A 
ATOM      6  C   UNL     1       5.155  -6.497  26.285  0.00  0.00    +0.128 A 
ATOM      7  N   UNL     1       5.062  -7.023  27.522  0.00  0.00    -0.221 NA
ATOM      8  C   UNL     1       6.008  -6.696  28.417  0.00  0.00    +0.227 A 
ATOM      9  N   UNL     1       7.024  -5.854  28.220  0.00  0.00    -0.201 NA
BRANCH   4  10
ATOM     10  O   UNL     1       8.041  -4.357  26.712  0.00  0.00    -0.438 OA
BRANCH  10  14
ATOM     11  C   UNL     1       6.782  -0.366  26.722  0.00  0.00    +0.120 A 
ATOM     12  C   UNL     1       8.149  -0.641  26.740  0.00  0.00    +0.049 A 
ATOM     13  C   UNL     1       8.600  -1.965  26.737  0.00  0.00    +0.050 A 
ATOM     14  C   UNL     1       7.691  -3.026  26.668  0.00  0.00    +0.131 A 
ATOM     15  C   UNL     1       6.321  -2.746  26.636  0.00  0.00    +0.050 A 
ATOM     16  C   UNL     1       5.870  -1.420  26.649  0.00  0.00    +0.049 A 
BRANCH  11  18
ATOM     17  C   UNL     1       4.943   0.978  27.307  0.00  0.00    +0.277 C 
ATOM     18  O   UNL     1       6.248   0.894  26.738  0.00  0.00    -0.495 OA
ENDBRANCH  11  18
ENDBRANCH  10  14
ENDBRANCH   4  10
ENDBRANCH   2   6
ENDBRANCH   1   2
BRANCH   1  19
ATOM     19  C   UNL     1       4.109  -5.329  23.296  0.00  0.00    +0.248 C 
BRANCH  19  20
ATOM     20  O   UNL     1       4.988  -4.926  22.239  0.00  0.00    -0.490 OA
BRANCH  20  21
ATOM     21  C   UNL     1       5.933  -3.985  22.572  0.00  0.00    +0.121 A 
ATOM     22  C   UNL     1       7.231  -4.469  22.732  0.00  0.00    +0.046 A 
ATOM     23  C   UNL     1       8.294  -3.598  23.004  0.00  0.00    +0.007 A 
ATOM     24  C   UNL     1       8.077  -2.218  23.121  0.00  0.00    -0.046 A 
ATOM     25  C   UNL     1       6.766  -1.743  23.001  0.00  0.00    +0.007 A 
ATOM     26  C   UNL     1       5.705  -2.618  22.737  0.00  0.00    +0.046 A 
BRANCH  24  27
ATOM     27  C   UNL     1       9.251  -1.268  23.237  0.00  0.00    +0.059 C 
BRANCH  27  28
ATOM     28  C   UNL     1       8.939   0.226  23.125  0.00  0.00    +0.146 C 
ATOM     29  C   UNL     1       9.321   0.750  21.754  0.00  0.00    +0.234 C 
ATOM     30  O   UNL     1       9.000   0.237  20.692  0.00  0.00    -0.274 OA
ATOM     31  N   UNL     1      10.032   1.911  21.831  0.00  0.00    -0.246 N 
ATOM     32  H   UNL     1      10.295   2.415  20.997  0.00  0.00    +0.158 HD
ATOM     33  C   UNL     1      10.352   2.394  23.051  0.00  0.00    +0.279 C 
ATOM     34  O   UNL     1      10.899   3.463  23.269  0.00  0.00    -0.263 OA
ATOM     35  S   UNL     1       9.870   1.271  24.296  0.00  0.00    -0.054 S 
ENDBRANCH  27  28
ENDBRANCH  24  27
ENDBRANCH  20  21
ENDBRANCH  19  20
ENDBRANCH   1  19
TORSDOF 10
ENDMDL
MODEL 6
REMARK VINA RESULT:      -6.5      2.786      5.176
REMARK  Name = 
REMARK  12 active torsions:
REMARK  status: ('A' for Active; 'I' for Inactive)
REMARK    1  A    between atoms: C_1  and  O_2
REMARK    2  A    between atoms: O_2  and  C_3
REMARK    3  A    between atoms: C_6  and  O_7
REMARK    4  A    between atoms: O_7  and  C_8
REMARK    5  A    between atoms: C_12  and  N_14
REMARK    6  A    between atoms: N_14  and  C_15
REMARK    7  A    between atoms: N_14  and  C_16
REMARK    8  A    between atoms: C_16  and  C_17
REMARK    9  A    between atoms: C_17  and  O_18
REMARK   10  A    between atoms: O_18  and  C_19
REMARK   11  A    between atoms: C_22  and  C_23
REMARK   12  A    between atoms: C_23  and  C_24
REMARK                            x       y       z     vdW  Elec       q    Type
REMARK                         _______ _______ _______ _____ _____    ______ ____
ROOT
ATOM      1  C   UNL     1       3.932  -6.877  24.398  0.00  0.00    +0.147 C 
ENDROOT
BRANCH   1   2
ATOM      2  N   UNL     1       3.206  -6.491  25.628  0.00  0.00    -0.315 N 
ATOM      3  C   UNL     1       1.783  -6.176  25.572  0.00  0.00    +0.131 C 
BRANCH   2   6
ATOM      4  C   UNL     1       6.047  -5.530  27.720  0.00  0.00    +0.225 A 
ATOM      5  C   UNL     1       5.356  -6.122  26.680  0.00  0.00    +0.111 A 
ATOM      6  C   UNL     1       3.977  -5.991  26.676  0.00  0.00    +0.128 A 
ATOM      7  N   UNL     1       3.365  -5.318  27.670  0.00  0.00    -0.221 NA
ATOM      8  C   UNL     1       4.128  -4.837  28.665  0.00  0.00    +0.227 A 
ATOM      9  N   UNL     1       5.456  -4.916  28.751  0.00  0.00    -0.201 NA
BRANCH   4  10
ATOM     10  O   UNL     1       7.433  -5.619  27.680  0.00  0.00    -0.438 OA
BRANCH  10  14
ATOM     11  C   UNL     1       9.418  -3.516  24.655  0.00  0.00    +0.120 A 
ATOM     12  C   UNL     1       8.859  -2.804  25.715  0.00  0.00    +0.049 A 
ATOM     13  C   UNL     1       8.190  -3.480  26.741  0.00  0.00    +0.050 A 
ATOM     14  C   UNL     1       8.113  -4.876  26.742  0.00  0.00    +0.131 A 
ATOM     15  C   UNL     1       8.688  -5.588  25.683  0.00  0.00    +0.050 A 
ATOM     16  C   UNL     1       9.349  -4.910  24.652  0.00  0.00    +0.049 A 
BRANCH  11  18
ATOM     17  C   UNL     1      10.295  -1.539  23.732  0.00  0.00    +0.277 C 
ATOM     18  O   UNL     1      10.077  -2.942  23.601  0.00  0.00    -0.495 OA
ENDBRANCH  11  18
ENDBRANCH  10  14
ENDBRANCH   4  10
ENDBRANCH   2   6
ENDBRANCH   1   2
BRANCH   1  19
ATOM     19  C   UNL     1       4.016  -5.758  23.345  0.00  0.00    +0.248 C 
BRANCH  19  20
ATOM     20  O   UNL     1       5.371  -5.510  22.953  0.00  0.00    -0.490 OA
BRANCH  20  21
ATOM     21  C   UNL     1       5.767  -4.194  22.962  0.00  0.00    +0.121 A 
ATOM     22  C   UNL     1       5.272  -3.427  24.016  0.00  0.00    +0.046 A 
ATOM     23  C   UNL     1       5.659  -2.090  24.174  0.00  0.00    +0.007 A 
ATOM     24  C   UNL     1       6.552  -1.492  23.275  0.00  0.00    -0.046 A 
ATOM     25  C   UNL     1       7.012  -2.254  22.194  0.00  0.00    +0.007 A 
ATOM     26  C   UNL     1       6.618  -3.588  22.036  0.00  0.00    +0.046 A 
BRANCH  24  27
ATOM     27  C   UNL     1       7.100  -0.107  23.551  0.00  0.00    +0.059 C 
BRANCH  27  28
ATOM     28  C   UNL     1       6.882   0.948  22.465  0.00  0.00    +0.146 C 
ATOM     29  C   UNL     1       8.199   1.327  21.814  0.00  0.00    +0.234 C 
ATOM     30  O   UNL     1       9.022   0.533  21.382  0.00  0.00    -0.274 OA
ATOM     31  N   UNL     1       8.347   2.678  21.712  0.00  0.00    -0.246 N 
ATOM     32  H   UNL     1       9.144   3.078  21.237  0.00  0.00    +0.158 HD
ATOM     33  C   UNL     1       7.390   3.476  22.233  0.00  0.00    +0.279 C 
ATOM     34  O   UNL     1       7.348   4.691  22.131  0.00  0.00    -0.263 OA
ATOM     35  S   UNL     1       6.201   2.524  23.083  0.00  0.00    -0.054 S 
ENDBRANCH  27  28
ENDBRANCH  24  27
ENDBRANCH  20  21
ENDBRANCH  19  20
ENDBRANCH   1  19
TORSDOF 10
ENDMDL
MODEL 7
REMARK VINA RESULT:      -6.4      1.658      2.415
REMARK  Name = 
REMARK  12 active torsions:
REMARK  status: ('A' for Active; 'I' for Inactive)
REMARK    1  A    between atoms: C_1  and  O_2
REMARK    2  A    between atoms: O_2  and  C_3
REMARK    3  A    between atoms: C_6  and  O_7
REMARK    4  A    between atoms: O_7  and  C_8
REMARK    5  A    between atoms: C_12  and  N_14
REMARK    6  A    between atoms: N_14  and  C_15
REMARK    7  A    between atoms: N_14  and  C_16
REMARK    8  A    between atoms: C_16  and  C_17
REMARK    9  A    between atoms: C_17  and  O_18
REMARK   10  A    between atoms: O_18  and  C_19
REMARK   11  A    between atoms: C_22  and  C_23
REMARK   12  A    between atoms: C_23  and  C_24
REMARK                            x       y       z     vdW  Elec       q    Type
REMARK                         _______ _______ _______ _____ _____    ______ ____
ROOT
ATOM      1  C   UNL     1       4.309  -4.808  25.029  0.00  0.00    +0.147 C 
ENDROOT
BRANCH   1   2
ATOM      2  N   UNL     1       5.449  -4.949  24.095  0.00  0.00    -0.315 N 
ATOM      3  C   UNL     1       5.278  -5.652  22.829  0.00  0.00    +0.131 C 
BRANCH   2   6
ATOM      4  C   UNL     1       8.963  -4.071  24.604  0.00  0.00    +0.225 A 
ATOM      5  C   UNL     1       7.753  -4.213  23.951  0.00  0.00    +0.111 A 
ATOM      6  C   UNL     1       6.724  -4.829  24.645  0.00  0.00    +0.128 A 
ATOM      7  N   UNL     1       6.934  -5.273  25.900  0.00  0.00    -0.221 NA
ATOM      8  C   UNL     1       8.167  -5.139  26.415  0.00  0.00    +0.227 A 
ATOM      9  N   UNL     1       9.213  -4.563  25.822  0.00  0.00    -0.201 NA
BRANCH   4  10
ATOM     10  O   UNL     1       9.967  -3.399  23.917  0.00  0.00    -0.438 OA
BRANCH  10  14
ATOM     11  C   UNL     1       9.989   0.783  24.065  0.00  0.00    +0.120 A 
ATOM     12  C   UNL     1      10.217   0.151  22.843  0.00  0.00    +0.049 A 
ATOM     13  C   UNL     1      10.215  -1.245  22.763  0.00  0.00    +0.050 A 
ATOM     14  C   UNL     1       9.939  -2.023  23.891  0.00  0.00    +0.131 A 
ATOM     15  C   UNL     1       9.697  -1.385  25.113  0.00  0.00    +0.050 A 
ATOM     16  C   UNL     1       9.708   0.012  25.195  0.00  0.00    +0.049 A 
BRANCH  11  18
ATOM     17  C   UNL     1      10.760   2.866  23.290  0.00  0.00    +0.277 C 
ATOM     18  O   UNL     1       9.986   2.140  24.244  0.00  0.00    -0.495 OA
ENDBRANCH  11  18
ENDBRANCH  10  14
ENDBRANCH   4  10
ENDBRANCH   2   6
ENDBRANCH   1   2
BRANCH   1  19
ATOM     19  C   UNL     1       3.811  -3.361  25.190  0.00  0.00    +0.248 C 
BRANCH  19  20
ATOM     20  O   UNL     1       4.650  -2.616  26.081  0.00  0.00    -0.490 OA
BRANCH  20  21
ATOM     21  C   UNL     1       5.113  -1.414  25.602  0.00  0.00    +0.121 A 
ATOM     22  C   UNL     1       4.814  -0.300  26.388  0.00  0.00    +0.046 A 
ATOM     23  C   UNL     1       5.290   0.971  26.042  0.00  0.00    +0.007 A 
ATOM     24  C   UNL     1       6.078   1.154  24.897  0.00  0.00    -0.046 A 
ATOM     25  C   UNL     1       6.339   0.041  24.090  0.00  0.00    +0.007 A 
ATOM     26  C   UNL     1       5.855  -1.228  24.435  0.00  0.00    +0.046 A 
BRANCH  24  27
ATOM     27  C   UNL     1       6.733   2.492  24.628  0.00  0.00    +0.059 C 
BRANCH  27  28
ATOM     28  C   UNL     1       6.169   3.312  23.466  0.00  0.00    +0.146 C 
ATOM     29  C   UNL     1       7.125   3.300  22.288  0.00  0.00    +0.234 C 
ATOM     30  O   UNL     1       7.631   2.297  21.807  0.00  0.00    -0.274 OA
ATOM     31  N   UNL     1       7.323   4.548  21.779  0.00  0.00    -0.246 N 
ATOM     32  H   UNL     1       7.881   4.687  20.948  0.00  0.00    +0.158 HD
ATOM     33  C   UNL     1       6.732   5.598  22.388  0.00  0.00    +0.279 C 
ATOM     34  O   UNL     1       6.747   6.751  21.989  0.00  0.00    -0.263 OA
ATOM     35  S   UNL     1       5.929   5.080  23.849  0.00  0.00    -0.054 S 
ENDBRANCH  27  28
ENDBRANCH  24  27
ENDBRANCH  20  21
ENDBRANCH  19  20
ENDBRANCH   1  19
TORSDOF 10
ENDMDL
MODEL 8
REMARK VINA RESULT:      -6.4      2.344      3.435
REMARK  Name = 
REMARK  12 active torsions:
REMARK  status: ('A' for Active; 'I' for Inactive)
REMARK    1  A    between atoms: C_1  and  O_2
REMARK    2  A    between atoms: O_2  and  C_3
REMARK    3  A    between atoms: C_6  and  O_7
REMARK    4  A    between atoms: O_7  and  C_8
REMARK    5  A    between atoms: C_12  and  N_14
REMARK    6  A    between atoms: N_14  and  C_15
REMARK    7  A    between atoms: N_14  and  C_16
REMARK    8  A    between atoms: C_16  and  C_17
REMARK    9  A    between atoms: C_17  and  O_18
REMARK   10  A    between atoms: O_18  and  C_19
REMARK   11  A    between atoms: C_22  and  C_23
REMARK   12  A    between atoms: C_23  and  C_24
REMARK                            x       y       z     vdW  Elec       q    Type
REMARK                         _______ _______ _______ _____ _____    ______ ____
ROOT
ATOM      1  C   UNL     1       3.853  -4.794  25.235  0.00  0.00    +0.147 C 
ENDROOT
BRANCH   1   2
ATOM      2  N   UNL     1       3.902  -5.263  23.831  0.00  0.00    -0.315 N 
ATOM      3  C   UNL     1       2.807  -6.053  23.283  0.00  0.00    +0.131 C 
BRANCH   2   6
ATOM      4  C   UNL     1       7.525  -5.257  23.332  0.00  0.00    +0.225 A 
ATOM      5  C   UNL     1       6.313  -5.080  23.973  0.00  0.00    +0.111 A 
ATOM      6  C   UNL     1       5.164  -5.342  23.245  0.00  0.00    +0.128 A 
ATOM      7  N   UNL     1       5.260  -5.738  21.961  0.00  0.00    -0.221 NA
ATOM      8  C   UNL     1       6.486  -5.816  21.417  0.00  0.00    +0.227 A 
ATOM      9  N   UNL     1       7.642  -5.583  22.040  0.00  0.00    -0.201 NA
BRANCH   4  10
ATOM     10  O   UNL     1       8.669  -5.047  24.091  0.00  0.00    -0.438 OA
BRANCH  10  14
ATOM     11  C   UNL     1       9.405  -1.100  25.272  0.00  0.00    +0.120 A 
ATOM     12  C   UNL     1       8.789  -1.968  26.172  0.00  0.00    +0.049 A 
ATOM     13  C   UNL     1       8.531  -3.293  25.805  0.00  0.00    +0.050 A 
ATOM     14  C   UNL     1       8.927  -3.776  24.555  0.00  0.00    +0.131 A 
ATOM     15  C   UNL     1       9.558  -2.905  23.659  0.00  0.00    +0.050 A 
ATOM     16  C   UNL     1       9.808  -1.577  24.023  0.00  0.00    +0.049 A 
BRANCH  11  18
ATOM     17  C   UNL     1      10.644   0.803  24.659  0.00  0.00    +0.277 C 
ATOM     18  O   UNL     1       9.685   0.214  25.535  0.00  0.00    -0.495 OA
ENDBRANCH  11  18
ENDBRANCH  10  14
ENDBRANCH   4  10
ENDBRANCH   2   6
ENDBRANCH   1   2
BRANCH   1  19
ATOM     19  C   UNL     1       3.588  -3.286  25.379  0.00  0.00    +0.248 C 
BRANCH  19  20
ATOM     20  O   UNL     1       4.718  -2.608  25.941  0.00  0.00    -0.490 OA
BRANCH  20  21
ATOM     21  C   UNL     1       5.291  -1.641  25.150  0.00  0.00    +0.121 A 
ATOM     22  C   UNL     1       5.362  -0.368  25.716  0.00  0.00    +0.046 A 
ATOM     23  C   UNL     1       5.986   0.686  25.036  0.00  0.00    +0.007 A 
ATOM     24  C   UNL     1       6.553   0.486  23.770  0.00  0.00    -0.046 A 
ATOM     25  C   UNL     1       6.441  -0.783  23.189  0.00  0.00    +0.007 A 
ATOM     26  C   UNL     1       5.810  -1.832  23.869  0.00  0.00    +0.046 A 
BRANCH  24  27
ATOM     27  C   UNL     1       7.377   1.578  23.122  0.00  0.00    +0.059 C 
BRANCH  27  28
ATOM     28  C   UNL     1       7.044   3.018  23.520  0.00  0.00    +0.146 C 
ATOM     29  C   UNL     1       6.032   3.618  22.561  0.00  0.00    +0.234 C 
ATOM     30  O   UNL     1       4.983   3.087  22.226  0.00  0.00    -0.274 OA
ATOM     31  N   UNL     1       6.399   4.862  22.145  0.00  0.00    -0.246 N 
ATOM     32  H   UNL     1       5.789   5.414  21.559  0.00  0.00    +0.158 HD
ATOM     33  C   UNL     1       7.585   5.360  22.558  0.00  0.00    +0.279 C 
ATOM     34  O   UNL     1       7.995   6.489  22.340  0.00  0.00    -0.263 OA
ATOM     35  S   UNL     1       8.469   4.156  23.460  0.00  0.00    -0.054 S 
ENDBRANCH  27  28
ENDBRANCH  24  27
ENDBRANCH  20  21
ENDBRANCH  19  20
ENDBRANCH   1  19
TORSDOF 10
ENDMDL
MODEL 9
REMARK VINA RESULT:      -6.3      1.904      3.141
REMARK  Name = 
REMARK  12 active torsions:
REMARK  status: ('A' for Active; 'I' for Inactive)
REMARK    1  A    between atoms: C_1  and  O_2
REMARK    2  A    between atoms: O_2  and  C_3
REMARK    3  A    between atoms: C_6  and  O_7
REMARK    4  A    between atoms: O_7  and  C_8
REMARK    5  A    between atoms: C_12  and  N_14
REMARK    6  A    between atoms: N_14  and  C_15
REMARK    7  A    between atoms: N_14  and  C_16
REMARK    8  A    between atoms: C_16  and  C_17
REMARK    9  A    between atoms: C_17  and  O_18
REMARK   10  A    between atoms: O_18  and  C_19
REMARK   11  A    between atoms: C_22  and  C_23
REMARK   12  A    between atoms: C_23  and  C_24
REMARK                            x       y       z     vdW  Elec       q    Type
REMARK                         _______ _______ _______ _____ _____    ______ ____
ROOT
ATOM      1  C   UNL     1       5.279  -2.760  26.042  0.00  0.00    +0.147 C 
ENDROOT
BRANCH   1   2
ATOM      2  N   UNL     1       5.750  -3.026  24.664  0.00  0.00    -0.315 N 
ATOM      3  C   UNL     1       4.844  -3.599  23.676  0.00  0.00    +0.131 C 
BRANCH   2   6
ATOM      4  C   UNL     1       9.177  -2.597  23.462  0.00  0.00    +0.225 A 
ATOM      5  C   UNL     1       7.803  -2.457  23.512  0.00  0.00    +0.111 A 
ATOM      6  C   UNL     1       7.126  -3.164  24.492  0.00  0.00    +0.128 A 
ATOM      7  N   UNL     1       7.811  -3.958  25.338  0.00  0.00    -0.221 NA
ATOM      8  C   UNL     1       9.137  -4.070  25.161  0.00  0.00    +0.227 A 
ATOM      9  N   UNL     1       9.868  -3.431  24.247  0.00  0.00    -0.201 NA
BRANCH   4  10
ATOM     10  O   UNL     1       9.848  -1.837  22.512  0.00  0.00    -0.438 OA
BRANCH  10  14
ATOM     11  C   UNL     1      10.345   2.261  23.197  0.00  0.00    +0.120 A 
ATOM     12  C   UNL     1      10.724   1.360  24.192  0.00  0.00    +0.049 A 
ATOM     13  C   UNL     1      10.570  -0.015  23.991  0.00  0.00    +0.050 A 
ATOM     14  C   UNL     1      10.081  -0.507  22.778  0.00  0.00    +0.131 A 
ATOM     15  C   UNL     1       9.715   0.399  21.776  0.00  0.00    +0.050 A 
ATOM     16  C   UNL     1       9.860   1.776  21.981  0.00  0.00    +0.049 A 
BRANCH  11  18
ATOM     17  C   UNL     1      11.781   4.115  23.372  0.00  0.00    +0.277 C 
ATOM     18  O   UNL     1      10.445   3.622  23.308  0.00  0.00    -0.495 OA
ENDBRANCH  11  18
ENDBRANCH  10  14
ENDBRANCH   4  10
ENDBRANCH   2   6
ENDBRANCH   1   2
BRANCH   1  19
ATOM     19  C   UNL     1       5.761  -1.417  26.618  0.00  0.00    +0.248 C 
BRANCH  19  20
ATOM     20  O   UNL     1       4.795  -0.381  26.406  0.00  0.00    -0.490 OA
BRANCH  20  21
ATOM     21  C   UNL     1       5.261   0.756  25.789  0.00  0.00    +0.121 A 
ATOM     22  C   UNL     1       6.442   0.603  25.064  0.00  0.00    +0.046 A 
ATOM     23  C   UNL     1       6.980   1.671  24.334  0.00  0.00    +0.007 A 
ATOM     24  C   UNL     1       6.343   2.919  24.317  0.00  0.00    -0.046 A 
ATOM     25  C   UNL     1       5.181   3.079  25.080  0.00  0.00    +0.007 A 
ATOM     26  C   UNL     1       4.650   2.010  25.814  0.00  0.00    +0.046 A 
BRANCH  24  27
ATOM     27  C   UNL     1       6.830   4.012  23.388  0.00  0.00    +0.059 C 
BRANCH  27  28
ATOM     28  C   UNL     1       7.199   5.349  24.035  0.00  0.00    +0.146 C 
ATOM     29  C   UNL     1       8.074   6.169  23.106  0.00  0.00    +0.234 C 
ATOM     30  O   UNL     1       7.829   6.395  21.930  0.00  0.00    -0.274 OA
ATOM     31  N   UNL     1       9.160   6.683  23.749  0.00  0.00    -0.246 N 
ATOM     32  H   UNL     1       9.796   7.309  23.275  0.00  0.00    +0.158 HD
ATOM     33  C   UNL     1       9.355   6.365  25.047  0.00  0.00    +0.279 C 
ATOM     34  O   UNL     1      10.226   6.825  25.767  0.00  0.00    -0.263 OA
ATOM     35  S   UNL     1       8.175   5.191  25.569  0.00  0.00    -0.054 S 
ENDBRANCH  27  28
ENDBRANCH  24  27
ENDBRANCH  20  21
ENDBRANCH  19  20
ENDBRANCH   1  19
TORSDOF 10
ENDMDL
