MODEL 1
REMARK VINA RESULT:      -8.5      0.000      0.000
REMARK  Name = 
REMARK  8 active torsions:
REMARK  status: ('A' for Active; 'I' for Inactive)
REMARK    1  A    between atoms: C_7  and  C_8
REMARK    2  A    between atoms: C_8  and  N_9
REMARK    3  A    between atoms: N_9  and  C_10
REMARK    4  A    between atoms: C_13  and  C_16
REMARK    5  A    between atoms: C_16  and  O_18
REMARK    6  A    between atoms: O_18  and  P_19
REMARK    7  A    between atoms: P_19  and  O_20
REMARK    8  A    between atoms: P_19  and  O_21
REMARK                            x       y       z     vdW  Elec       q    Type
REMARK                         _______ _______ _______ _____ _____    ______ ____
ROOT
ATOM      1  N   UNL     1       9.670  -1.517  22.001  0.00  0.00    -0.338 N 
ATOM      2  H   UNL     1      10.217  -1.816  21.196  0.00  0.00    +0.146 HD
ENDROOT
BRANCH   1   3
ATOM      3  C   UNL     1       9.972  -0.196  22.357  0.00  0.00    +0.027 A 
ATOM      4  C   UNL     1      10.551   0.052  23.613  0.00  0.00    +0.024 A 
ATOM      5  C   UNL     1      10.850   1.357  24.052  0.00  0.00    +0.017 A 
ATOM      6  C   UNL     1      10.540   2.458  23.249  0.00  0.00    +0.059 A 
ATOM      7  C   UNL     1       9.909   2.226  22.023  0.00  0.00    +0.017 A 
ATOM      8  C   UNL     1       9.617   0.919  21.593  0.00  0.00    +0.024 A 
BRANCH   6   9
ATOM      9  C   UNL     1      10.960   3.859  23.576  0.00  0.00    +0.347 C 
ATOM     10  O   UNL     1      10.188   4.805  23.592  0.00  0.00    -0.245 OA
BRANCH   9  11
ATOM     11  O   UNL     1      12.299   4.004  23.642  0.00  0.00    -0.368 OA
BRANCH  11  12
ATOM     12  P   UNL     1      12.895   5.322  22.693  0.00  0.00    +0.530 P 
ATOM     13  O   UNL     1      13.430   6.502  21.844  0.00  0.00    -0.216 OA
BRANCH  12  14
ATOM     14  O   UNL     1      14.394   4.898  23.225  0.00  0.00    -0.293 OA
ATOM     15  H   UNL     1      14.311   4.159  23.860  0.00  0.00    +0.223 HD
ENDBRANCH  12  14
BRANCH  12  16
ATOM     16  O   UNL     1      12.546   6.234  24.010  0.00  0.00    -0.293 OA
ATOM     17  H   UNL     1      11.718   6.713  23.829  0.00  0.00    +0.223 HD
ENDBRANCH  12  16
ENDBRANCH  11  12
ENDBRANCH   9  11
ENDBRANCH   6   9
ENDBRANCH   1   3
BRANCH   1  18
ATOM     18  C   UNL     1       8.271  -1.951  21.890  0.00  0.00    +0.158 C 
BRANCH  18  31
ATOM     19  N   UNL     1       6.821  -6.161  28.183  0.00  0.00    -0.329 N 
ATOM     20  H   UNL     1       7.267  -7.045  28.401  0.00  0.00    +0.145 HD
ATOM     21  H   UNL     1       5.811  -6.179  28.285  0.00  0.00    +0.145 HD
ATOM     22  C   UNL     1       7.224  -5.506  27.067  0.00  0.00    +0.195 A 
ATOM     23  N   UNL     1       8.522  -5.690  26.687  0.00  0.00    -0.293 N 
ATOM     24  H   UNL     1       9.136  -6.265  27.234  0.00  0.00    +0.172 HD
ATOM     25  C   UNL     1       9.098  -5.071  25.596  0.00  0.00    +0.280 A 
ATOM     26  O   UNL     1      10.278  -5.255  25.315  0.00  0.00    -0.265 OA
ATOM     27  C   UNL     1       8.208  -4.185  24.826  0.00  0.00    +0.172 A 
ATOM     28  C   UNL     1       6.899  -4.081  25.278  0.00  0.00    +0.187 A 
ATOM     29  N   UNL     1       6.008  -3.297  24.631  0.00  0.00    -0.232 NA
ATOM     30  C   UNL     1       6.483  -2.643  23.537  0.00  0.00    +0.138 A 
ATOM     31  C   UNL     1       7.799  -2.743  23.089  0.00  0.00    +0.077 A 
ATOM     32  N   UNL     1       8.701  -3.524  23.740  0.00  0.00    -0.240 NA
ATOM     33  N   UNL     1       6.407  -4.751  26.412  0.00  0.00    -0.195 NA
ENDBRANCH  18  31
ENDBRANCH   1  18
TORSDOF 8
ENDMDL
MODEL 2
REMARK VINA RESULT:      -8.4      2.051      2.544
REMARK  Name = 
REMARK  8 active torsions:
REMARK  status: ('A' for Active; 'I' for Inactive)
REMARK    1  A    between atoms: C_7  and  C_8
REMARK    2  A    between atoms: C_8  and  N_9
REMARK    3  A    between atoms: N_9  and  C_10
REMARK    4  A    between atoms: C_13  and  C_16
REMARK    5  A    between atoms: C_16  and  O_18
REMARK    6  A    between atoms: O_18  and  P_19
REMARK    7  A    between atoms: P_19  and  O_20
REMARK    8  A    between atoms: P_19  and  O_21
REMARK                            x       y       z     vdW  Elec       q    Type
REMARK                         _______ _______ _______ _____ _____    ______ ____
ROOT
ATOM      1  N   UNL     1       9.629  -1.674  22.636  0.00  0.00    -0.338 N 
ATOM      2  H   UNL     1       8.716  -1.786  22.200  0.00  0.00    +0.146 HD
ENDROOT
BRANCH   1   3
ATOM      3  C   UNL     1       9.936  -0.321  22.831  0.00  0.00    +0.027 A 
ATOM      4  C   UNL     1      10.411   0.092  24.088  0.00  0.00    +0.024 A 
ATOM      5  C   UNL     1      10.708   1.441  24.366  0.00  0.00    +0.017 A 
ATOM      6  C   UNL     1      10.500   2.423  23.394  0.00  0.00    +0.059 A 
ATOM      7  C   UNL     1       9.972   2.031  22.160  0.00  0.00    +0.017 A 
ATOM      8  C   UNL     1       9.681   0.681  21.890  0.00  0.00    +0.024 A 
BRANCH   6   9
ATOM      9  C   UNL     1      10.930   3.849  23.560  0.00  0.00    +0.347 C 
ATOM     10  O   UNL     1      10.167   4.797  23.458  0.00  0.00    -0.245 OA
BRANCH   9  11
ATOM     11  O   UNL     1      12.270   3.990  23.622  0.00  0.00    -0.368 OA
BRANCH  11  12
ATOM     12  P   UNL     1      12.868   5.308  22.675  0.00  0.00    +0.530 P 
ATOM     13  O   UNL     1      13.404   6.487  21.827  0.00  0.00    -0.216 OA
BRANCH  12  14
ATOM     14  O   UNL     1      14.371   4.848  23.164  0.00  0.00    -0.293 OA
ATOM     15  H   UNL     1      14.560   5.246  24.036  0.00  0.00    +0.223 HD
ENDBRANCH  12  14
BRANCH  12  16
ATOM     16  O   UNL     1      12.570   6.209  24.011  0.00  0.00    -0.293 OA
ATOM     17  H   UNL     1      12.182   5.623  24.684  0.00  0.00    +0.223 HD
ENDBRANCH  12  16
ENDBRANCH  11  12
ENDBRANCH   9  11
ENDBRANCH   6   9
ENDBRANCH   1   3
BRANCH   1  18
ATOM     18  C   UNL     1       9.825  -2.639  23.726  0.00  0.00    +0.158 C 
BRANCH  18  31
ATOM     19  N   UNL     1       3.630  -7.223  23.952  0.00  0.00    -0.329 N 
ATOM     20  H   UNL     1       2.824  -7.135  23.344  0.00  0.00    +0.145 HD
ATOM     21  H   UNL     1       3.388  -7.324  24.933  0.00  0.00    +0.145 HD
ATOM     22  C   UNL     1       4.671  -6.378  23.753  0.00  0.00    +0.195 A 
ATOM     23  N   UNL     1       4.869  -5.945  22.474  0.00  0.00    -0.293 N 
ATOM     24  H   UNL     1       4.277  -6.267  21.730  0.00  0.00    +0.172 HD
ATOM     25  C   UNL     1       5.901  -5.111  22.096  0.00  0.00    +0.280 A 
ATOM     26  O   UNL     1       6.045  -4.772  20.926  0.00  0.00    -0.265 OA
ATOM     27  C   UNL     1       6.800  -4.683  23.182  0.00  0.00    +0.172 A 
ATOM     28  C   UNL     1       6.504  -5.158  24.453  0.00  0.00    +0.187 A 
ATOM     29  N   UNL     1       7.269  -4.813  25.512  0.00  0.00    -0.232 NA
ATOM     30  C   UNL     1       8.315  -3.988  25.240  0.00  0.00    +0.138 A 
ATOM     31  C   UNL     1       8.616  -3.518  23.963  0.00  0.00    +0.077 A 
ATOM     32  N   UNL     1       7.855  -3.868  22.893  0.00  0.00    -0.240 NA
ATOM     33  N   UNL     1       5.426  -6.015  24.735  0.00  0.00    -0.195 NA
ENDBRANCH  18  31
ENDBRANCH   1  18
TORSDOF 8
ENDMDL
MODEL 3
REMARK VINA RESULT:      -8.1      1.264      1.792
REMARK  Name = 
REMARK  8 active torsions:
REMARK  status: ('A' for Active; 'I' for Inactive)
REMARK    1  A    between atoms: C_7  and  C_8
REMARK    2  A    between atoms: C_8  and  N_9
REMARK    3  A    between atoms: N_9  and  C_10
REMARK    4  A    between atoms: C_13  and  C_16
REMARK    5  A    between atoms: C_16  and  O_18
REMARK    6  A    between atoms: O_18  and  P_19
REMARK    7  A    between atoms: P_19  and  O_20
REMARK    8  A    between atoms: P_19  and  O_21
REMARK                            x       y       z     vdW  Elec       q    Type
REMARK                         _______ _______ _______ _____ _____    ______ ____
ROOT
ATOM      1  N   UNL     1       9.408  -2.207  22.910  0.00  0.00    -0.338 N 
ATOM      2  H   UNL     1      10.157  -2.703  22.432  0.00  0.00    +0.146 HD
ENDROOT
BRANCH   1   3
ATOM      3  C   UNL     1       9.728  -0.855  23.090  0.00  0.00    +0.027 A 
ATOM      4  C   UNL     1       9.658   0.011  21.985  0.00  0.00    +0.024 A 
ATOM      5  C   UNL     1       9.996   1.375  22.083  0.00  0.00    +0.017 A 
ATOM      6  C   UNL     1      10.453   1.902  23.295  0.00  0.00    +0.059 A 
ATOM      7  C   UNL     1      10.583   1.036  24.386  0.00  0.00    +0.017 A 
ATOM      8  C   UNL     1      10.239  -0.324  24.278  0.00  0.00    +0.024 A 
BRANCH   6   9
ATOM      9  C   UNL     1      10.688   3.364  23.520  0.00  0.00    +0.347 C 
ATOM     10  O   UNL     1       9.790   4.165  23.727  0.00  0.00    -0.245 OA
BRANCH   9  11
ATOM     11  O   UNL     1      11.958   3.738  23.262  0.00  0.00    -0.368 OA
BRANCH  11  12
ATOM     12  P   UNL     1      12.325   5.342  23.794  0.00  0.00    +0.530 P 
ATOM     13  O   UNL     1      12.653   6.779  24.270  0.00  0.00    -0.216 OA
BRANCH  12  14
ATOM     14  O   UNL     1      11.803   5.846  22.316  0.00  0.00    -0.293 OA
ATOM     15  H   UNL     1      11.560   6.791  22.368  0.00  0.00    +0.223 HD
ENDBRANCH  12  14
BRANCH  12  16
ATOM     16  O   UNL     1      13.846   5.004  23.284  0.00  0.00    -0.293 OA
ATOM     17  H   UNL     1      13.781   4.616  22.393  0.00  0.00    +0.223 HD
ENDBRANCH  12  16
ENDBRANCH  11  12
ENDBRANCH   9  11
ENDBRANCH   6   9
ENDBRANCH   1   3
BRANCH   1  18
ATOM     18  C   UNL     1       8.091  -2.590  22.385  0.00  0.00    +0.158 C 
BRANCH  18  31
ATOM     19  N   UNL     1       4.960  -7.247  27.671  0.00  0.00    -0.329 N 
ATOM     20  H   UNL     1       5.487  -7.829  28.312  0.00  0.00    +0.145 HD
ATOM     21  H   UNL     1       4.205  -7.740  27.203  0.00  0.00    +0.145 HD
ATOM     22  C   UNL     1       5.652  -6.434  26.836  0.00  0.00    +0.195 A 
ATOM     23  N   UNL     1       6.854  -5.974  27.292  0.00  0.00    -0.293 N 
ATOM     24  H   UNL     1       7.178  -6.218  28.210  0.00  0.00    +0.172 HD
ATOM     25  C   UNL     1       7.666  -5.113  26.581  0.00  0.00    +0.280 A 
ATOM     26  O   UNL     1       8.726  -4.713  27.051  0.00  0.00    -0.265 OA
ATOM     27  C   UNL     1       7.162  -4.715  25.255  0.00  0.00    +0.172 A 
ATOM     28  C   UNL     1       5.941  -5.254  24.872  0.00  0.00    +0.187 A 
ATOM     29  N   UNL     1       5.403  -4.951  23.670  0.00  0.00    -0.232 NA
ATOM     30  C   UNL     1       6.133  -4.106  22.892  0.00  0.00    +0.138 A 
ATOM     31  C   UNL     1       7.355  -3.561  23.283  0.00  0.00    +0.077 A 
ATOM     32  N   UNL     1       7.897  -3.855  24.493  0.00  0.00    -0.240 NA
ATOM     33  N   UNL     1       5.182  -6.122  25.675  0.00  0.00    -0.195 NA
ENDBRANCH  18  31
ENDBRANCH   1  18
TORSDOF 8
ENDMDL
MODEL 4
REMARK VINA RESULT:      -7.7      2.504      3.512
REMARK  Name = 
REMARK  8 active torsions:
REMARK  status: ('A' for Active; 'I' for Inactive)
REMARK    1  A    between atoms: C_7  and  C_8
REMARK    2  A    between atoms: C_8  and  N_9
REMARK    3  A    between atoms: N_9  and  C_10
REMARK    4  A    between atoms: C_13  and  C_16
REMARK    5  A    between atoms: C_16  and  O_18
REMARK    6  A    between atoms: O_18  and  P_19
REMARK    7  A    between atoms: P_19  and  O_20
REMARK    8  A    between atoms: P_19  and  O_21
REMARK                            x       y       z     vdW  Elec       q    Type
REMARK                         _______ _______ _______ _____ _____    ______ ____
ROOT
ATOM      1  N   UNL     1       9.472  -1.986  22.907  0.00  0.00    -0.338 N 
ATOM      2  H   UNL     1       8.602  -2.128  22.399  0.00  0.00    +0.146 HD
ENDROOT
BRANCH   1   3
ATOM      3  C   UNL     1       9.734  -0.623  23.096  0.00  0.00    +0.027 A 
ATOM      4  C   UNL     1       9.792   0.218  21.972  0.00  0.00    +0.024 A 
ATOM      5  C   UNL     1      10.083   1.592  22.083  0.00  0.00    +0.017 A 
ATOM      6  C   UNL     1      10.362   2.155  23.332  0.00  0.00    +0.059 A 
ATOM      7  C   UNL     1      10.365   1.314  24.450  0.00  0.00    +0.017 A 
ATOM      8  C   UNL     1      10.070  -0.056  24.329  0.00  0.00    +0.024 A 
BRANCH   6   9
ATOM      9  C   UNL     1      10.531   3.627  23.552  0.00  0.00    +0.347 C 
ATOM     10  O   UNL     1      11.564   4.229  23.302  0.00  0.00    -0.245 OA
BRANCH   9  11
ATOM     11  O   UNL     1       9.513   4.176  24.244  0.00  0.00    -0.368 OA
BRANCH  11  12
ATOM     12  P   UNL     1       8.287   4.865  23.236  0.00  0.00    +0.530 P 
ATOM     13  O   UNL     1       7.191   5.482  22.333  0.00  0.00    -0.216 OA
BRANCH  12  14
ATOM     14  O   UNL     1       9.393   6.022  22.851  0.00  0.00    -0.293 OA
ATOM     15  H   UNL     1       9.887   5.741  22.056  0.00  0.00    +0.223 HD
ENDBRANCH  12  14
BRANCH  12  16
ATOM     16  O   UNL     1       7.790   5.614  24.607  0.00  0.00    -0.293 OA
ATOM     17  H   UNL     1       6.837   5.447  24.708  0.00  0.00    +0.223 HD
ENDBRANCH  12  16
ENDBRANCH  11  12
ENDBRANCH   9  11
ENDBRANCH   6   9
ENDBRANCH   1   3
BRANCH   1  18
ATOM     18  C   UNL     1       9.595  -2.924  24.031  0.00  0.00    +0.158 C 
BRANCH  18  31
ATOM     19  N   UNL     1       3.351  -7.444  23.960  0.00  0.00    -0.329 N 
ATOM     20  H   UNL     1       2.559  -7.325  23.339  0.00  0.00    +0.145 HD
ATOM     21  H   UNL     1       3.087  -7.578  24.932  0.00  0.00    +0.145 HD
ATOM     22  C   UNL     1       4.404  -6.604  23.814  0.00  0.00    +0.195 A 
ATOM     23  N   UNL     1       4.633  -6.127  22.556  0.00  0.00    -0.293 N 
ATOM     24  H   UNL     1       4.053  -6.414  21.789  0.00  0.00    +0.172 HD
ATOM     25  C   UNL     1       5.682  -5.290  22.231  0.00  0.00    +0.280 A 
ATOM     26  O   UNL     1       5.853  -4.910  21.077  0.00  0.00    -0.265 OA
ATOM     27  C   UNL     1       6.562  -4.913  23.350  0.00  0.00    +0.172 A 
ATOM     28  C   UNL     1       6.234  -5.430  24.596  0.00  0.00    +0.187 A 
ATOM     29  N   UNL     1       6.980  -5.134  25.683  0.00  0.00    -0.232 NA
ATOM     30  C   UNL     1       8.041  -4.311  25.463  0.00  0.00    +0.138 A 
ATOM     31  C   UNL     1       8.373  -3.798  24.210  0.00  0.00    +0.077 A 
ATOM     32  N   UNL     1       7.631  -4.099  23.113  0.00  0.00    -0.240 NA
ATOM     33  N   UNL     1       5.142  -6.286  24.824  0.00  0.00    -0.195 NA
ENDBRANCH  18  31
ENDBRANCH   1  18
TORSDOF 8
ENDMDL
MODEL 5
REMARK VINA RESULT:      -7.7      1.310      2.017
REMARK  Name = 
REMARK  8 active torsions:
REMARK  status: ('A' for Active; 'I' for Inactive)
REMARK    1  A    between atoms: C_7  and  C_8
REMARK    2  A    between atoms: C_8  and  N_9
REMARK    3  A    between atoms: N_9  and  C_10
REMARK    4  A    between atoms: C_13  and  C_16
REMARK    5  A    between atoms: C_16  and  O_18
REMARK    6  A    between atoms: O_18  and  P_19
REMARK    7  A    between atoms: P_19  and  O_20
REMARK    8  A    between atoms: P_19  and  O_21
REMARK                            x       y       z     vdW  Elec       q    Type
REMARK                         _______ _______ _______ _____ _____    ______ ____
ROOT
ATOM      1  N   UNL     1       9.650  -1.689  21.906  0.00  0.00    -0.338 N 
ATOM      2  H   UNL     1      10.227  -1.939  21.106  0.00  0.00    +0.146 HD
ENDROOT
BRANCH   1   3
ATOM      3  C   UNL     1       9.869  -0.360  22.294  0.00  0.00    +0.027 A 
ATOM      4  C   UNL     1      10.420  -0.106  23.562  0.00  0.00    +0.024 A 
ATOM      5  C   UNL     1      10.636   1.204  24.031  0.00  0.00    +0.017 A 
ATOM      6  C   UNL     1      10.269   2.303  23.249  0.00  0.00    +0.059 A 
ATOM      7  C   UNL     1       9.666   2.061  22.011  0.00  0.00    +0.017 A 
ATOM      8  C   UNL     1       9.456   0.749  21.549  0.00  0.00    +0.024 A 
BRANCH   6   9
ATOM      9  C   UNL     1      10.602   3.718  23.611  0.00  0.00    +0.347 C 
ATOM     10  O   UNL     1      11.682   4.236  23.372  0.00  0.00    -0.245 OA
BRANCH   9  11
ATOM     11  O   UNL     1       9.675   4.289  24.407  0.00  0.00    -0.368 OA
BRANCH  11  12
ATOM     12  P   UNL     1       8.487   5.197  23.537  0.00  0.00    +0.530 P 
ATOM     13  O   UNL     1       7.423   6.009  22.758  0.00  0.00    -0.216 OA
BRANCH  12  14
ATOM     14  O   UNL     1       9.742   6.071  22.930  0.00  0.00    -0.293 OA
ATOM     15  H   UNL     1      10.289   5.494  22.361  0.00  0.00    +0.223 HD
ENDBRANCH  12  14
BRANCH  12  16
ATOM     16  O   UNL     1       8.370   6.080  24.913  0.00  0.00    -0.293 OA
ATOM     17  H   UNL     1       8.083   5.482  25.626  0.00  0.00    +0.223 HD
ENDBRANCH  12  16
ENDBRANCH  11  12
ENDBRANCH   9  11
ENDBRANCH   6   9
ENDBRANCH   1   3
BRANCH   1  18
ATOM     18  C   UNL     1       8.280  -2.198  21.759  0.00  0.00    +0.158 C 
BRANCH  18  31
ATOM     19  N   UNL     1       6.767  -6.181  28.183  0.00  0.00    -0.329 N 
ATOM     20  H   UNL     1       7.243  -7.032  28.461  0.00  0.00    +0.145 HD
ATOM     21  H   UNL     1       5.755  -6.244  28.246  0.00  0.00    +0.145 HD
ATOM     22  C   UNL     1       7.184  -5.559  27.054  0.00  0.00    +0.195 A 
ATOM     23  N   UNL     1       8.504  -5.697  26.735  0.00  0.00    -0.293 N 
ATOM     24  H   UNL     1       9.121  -6.217  27.332  0.00  0.00    +0.172 HD
ATOM     25  C   UNL     1       9.096  -5.102  25.639  0.00  0.00    +0.280 A 
ATOM     26  O   UNL     1      10.294  -5.242  25.414  0.00  0.00    -0.265 OA
ATOM     27  C   UNL     1       8.198  -4.296  24.793  0.00  0.00    +0.172 A 
ATOM     28  C   UNL     1       6.868  -4.235  25.187  0.00  0.00    +0.187 A 
ATOM     29  N   UNL     1       5.970  -3.526  24.470  0.00  0.00    -0.232 NA
ATOM     30  C   UNL     1       6.459  -2.900  23.365  0.00  0.00    +0.138 A 
ATOM     31  C   UNL     1       7.796  -2.957  22.975  0.00  0.00    +0.077 A 
ATOM     32  N   UNL     1       8.705  -3.662  23.697  0.00  0.00    -0.240 NA
ATOM     33  N   UNL     1       6.361  -4.876  26.331  0.00  0.00    -0.195 NA
ENDBRANCH  18  31
ENDBRANCH   1  18
TORSDOF 8
ENDMDL
MODEL 6
REMARK VINA RESULT:      -7.6      2.135      2.822
REMARK  Name = 
REMARK  8 active torsions:
REMARK  status: ('A' for Active; 'I' for Inactive)
REMARK    1  A    between atoms: C_7  and  C_8
REMARK    2  A    between atoms: C_8  and  N_9
REMARK    3  A    between atoms: N_9  and  C_10
REMARK    4  A    between atoms: C_13  and  C_16
REMARK    5  A    between atoms: C_16  and  O_18
REMARK    6  A    between atoms: O_18  and  P_19
REMARK    7  A    between atoms: P_19  and  O_20
REMARK    8  A    between atoms: P_19  and  O_21
REMARK                            x       y       z     vdW  Elec       q    Type
REMARK                         _______ _______ _______ _____ _____    ______ ____
ROOT
ATOM      1  N   UNL     1      10.082  -2.084  23.171  0.00  0.00    -0.338 N 
ATOM      2  H   UNL     1       9.783  -2.368  22.240  0.00  0.00    +0.146 HD
ENDROOT
BRANCH   1   3
ATOM      3  C   UNL     1      10.052  -0.689  23.309  0.00  0.00    +0.027 A 
ATOM      4  C   UNL     1      10.012   0.106  22.151  0.00  0.00    +0.024 A 
ATOM      5  C   UNL     1      10.013   1.513  22.213  0.00  0.00    +0.017 A 
ATOM      6  C   UNL     1      10.093   2.164  23.448  0.00  0.00    +0.059 A 
ATOM      7  C   UNL     1      10.193   1.382  24.603  0.00  0.00    +0.017 A 
ATOM      8  C   UNL     1      10.188  -0.023  24.530  0.00  0.00    +0.024 A 
BRANCH   6   9
ATOM      9  C   UNL     1       9.949   3.647  23.607  0.00  0.00    +0.347 C 
ATOM     10  O   UNL     1       9.012   4.284  23.151  0.00  0.00    -0.245 OA
BRANCH   9  11
ATOM     11  O   UNL     1      11.053   4.231  24.116  0.00  0.00    -0.368 OA
BRANCH  11  12
ATOM     12  P   UNL     1      12.109   4.877  22.907  0.00  0.00    +0.530 P 
ATOM     13  O   UNL     1      13.054   5.455  21.825  0.00  0.00    -0.216 OA
BRANCH  12  14
ATOM     14  O   UNL     1      12.958   5.547  24.148  0.00  0.00    -0.293 OA
ATOM     15  H   UNL     1      12.367   6.135  24.659  0.00  0.00    +0.223 HD
ENDBRANCH  12  14
BRANCH  12  16
ATOM     16  O   UNL     1      11.020   6.099  22.822  0.00  0.00    -0.293 OA
ATOM     17  H   UNL     1      11.513   6.938  22.852  0.00  0.00    +0.223 HD
ENDBRANCH  12  16
ENDBRANCH  11  12
ENDBRANCH   9  11
ENDBRANCH   6   9
ENDBRANCH   1   3
BRANCH   1  18
ATOM     18  C   UNL     1       9.494  -2.941  24.208  0.00  0.00    +0.158 C 
BRANCH  18  31
ATOM     19  N   UNL     1       2.839  -6.610  22.912  0.00  0.00    -0.329 N 
ATOM     20  H   UNL     1       2.611  -7.533  23.263  0.00  0.00    +0.145 HD
ATOM     21  H   UNL     1       2.637  -6.489  21.924  0.00  0.00    +0.145 HD
ATOM     22  C   UNL     1       4.028  -6.069  23.274  0.00  0.00    +0.195 A 
ATOM     23  N   UNL     1       4.522  -6.441  24.491  0.00  0.00    -0.293 N 
ATOM     24  H   UNL     1       4.003  -7.066  25.081  0.00  0.00    +0.172 HD
ATOM     25  C   UNL     1       5.701  -5.958  25.022  0.00  0.00    +0.280 A 
ATOM     26  O   UNL     1       6.085  -6.310  26.132  0.00  0.00    -0.265 OA
ATOM     27  C   UNL     1       6.433  -5.001  24.174  0.00  0.00    +0.172 A 
ATOM     28  C   UNL     1       5.862  -4.703  22.944  0.00  0.00    +0.187 A 
ATOM     29  N   UNL     1       6.464  -3.840  22.096  0.00  0.00    -0.232 NA
ATOM     30  C   UNL     1       7.639  -3.310  22.531  0.00  0.00    +0.138 A 
ATOM     31  C   UNL     1       8.207  -3.605  23.769  0.00  0.00    +0.077 A 
ATOM     32  N   UNL     1       7.601  -4.465  24.629  0.00  0.00    -0.240 NA
ATOM     33  N   UNL     1       4.645  -5.246  22.494  0.00  0.00    -0.195 NA
ENDBRANCH  18  31
ENDBRANCH   1  18
TORSDOF 8
ENDMDL
MODEL 7
REMARK VINA RESULT:      -7.4      2.415      3.608
REMARK  Name = 
REMARK  8 active torsions:
REMARK  status: ('A' for Active; 'I' for Inactive)
REMARK    1  A    between atoms: C_7  and  C_8
REMARK    2  A    between atoms: C_8  and  N_9
REMARK    3  A    between atoms: N_9  and  C_10
REMARK    4  A    between atoms: C_13  and  C_16
REMARK    5  A    between atoms: C_16  and  O_18
REMARK    6  A    between atoms: O_18  and  P_19
REMARK    7  A    between atoms: P_19  and  O_20
REMARK    8  A    between atoms: P_19  and  O_21
REMARK                            x       y       z     vdW  Elec       q    Type
REMARK                         _______ _______ _______ _____ _____    ______ ____
ROOT
ATOM      1  N   UNL     1       9.621  -3.124  24.116  0.00  0.00    -0.338 N 
ATOM      2  H   UNL     1      10.419  -3.574  23.672  0.00  0.00    +0.146 HD
ENDROOT
BRANCH   1   3
ATOM      3  C   UNL     1       9.716  -1.728  24.035  0.00  0.00    +0.027 A 
ATOM      4  C   UNL     1      10.232  -1.150  22.862  0.00  0.00    +0.024 A 
ATOM      5  C   UNL     1      10.387   0.243  22.724  0.00  0.00    +0.017 A 
ATOM      6  C   UNL     1      10.060   1.097  23.781  0.00  0.00    +0.059 A 
ATOM      7  C   UNL     1       9.602   0.528  24.974  0.00  0.00    +0.017 A 
ATOM      8  C   UNL     1       9.448  -0.864  25.101  0.00  0.00    +0.024 A 
BRANCH   6   9
ATOM      9  C   UNL     1      10.055   2.591  23.660  0.00  0.00    +0.347 C 
ATOM     10  O   UNL     1      11.000   3.233  23.231  0.00  0.00    -0.245 OA
BRANCH   9  11
ATOM     11  O   UNL     1       8.994   3.163  24.265  0.00  0.00    -0.368 OA
BRANCH  11  12
ATOM     12  P   UNL     1       7.927   3.968  23.166  0.00  0.00    +0.530 P 
ATOM     13  O   UNL     1       6.972   4.688  22.183  0.00  0.00    -0.216 OA
BRANCH  12  14
ATOM     14  O   UNL     1       8.620   3.059  21.982  0.00  0.00    -0.293 OA
ATOM     15  H   UNL     1       9.548   3.342  21.863  0.00  0.00    +0.223 HD
ENDBRANCH  12  14
BRANCH  12  16
ATOM     16  O   UNL     1       9.083   5.129  23.129  0.00  0.00    -0.293 OA
ATOM     17  H   UNL     1       8.635   5.991  23.057  0.00  0.00    +0.223 HD
ENDBRANCH  12  16
ENDBRANCH  11  12
ENDBRANCH   9  11
ENDBRANCH   6   9
ENDBRANCH   1   3
BRANCH   1  18
ATOM     18  C   UNL     1       8.364  -3.799  23.769  0.00  0.00    +0.158 C 
BRANCH  18  31
ATOM     19  N   UNL     1       4.388  -7.561  29.198  0.00  0.00    -0.329 N 
ATOM     20  H   UNL     1       3.391  -7.740  29.163  0.00  0.00    +0.145 HD
ATOM     21  H   UNL     1       4.702  -7.188  30.088  0.00  0.00    +0.145 HD
ATOM     22  C   UNL     1       4.958  -6.937  28.138  0.00  0.00    +0.195 A 
ATOM     23  N   UNL     1       4.379  -7.152  26.920  0.00  0.00    -0.293 N 
ATOM     24  H   UNL     1       3.588  -7.764  26.834  0.00  0.00    +0.172 HD
ATOM     25  C   UNL     1       4.855  -6.620  25.739  0.00  0.00    +0.280 A 
ATOM     26  O   UNL     1       4.307  -6.867  24.669  0.00  0.00    -0.265 OA
ATOM     27  C   UNL     1       6.049  -5.766  25.863  0.00  0.00    +0.172 A 
ATOM     28  C   UNL     1       6.550  -5.589  27.146  0.00  0.00    +0.187 A 
ATOM     29  N   UNL     1       7.639  -4.817  27.359  0.00  0.00    -0.232 NA
ATOM     30  C   UNL     1       8.182  -4.245  26.250  0.00  0.00    +0.138 A 
ATOM     31  C   UNL     1       7.681  -4.430  24.963  0.00  0.00    +0.077 A 
ATOM     32  N   UNL     1       6.592  -5.211  24.742  0.00  0.00    -0.240 NA
ATOM     33  N   UNL     1       5.995  -6.184  28.292  0.00  0.00    -0.195 NA
ENDBRANCH  18  31
ENDBRANCH   1  18
TORSDOF 8
ENDMDL
MODEL 8
REMARK VINA RESULT:      -7.3      2.394      3.437
REMARK  Name = 
REMARK  8 active torsions:
REMARK  status: ('A' for Active; 'I' for Inactive)
REMARK    1  A    between atoms: C_7  and  C_8
REMARK    2  A    between atoms: C_8  and  N_9
REMARK    3  A    between atoms: N_9  and  C_10
REMARK    4  A    between atoms: C_13  and  C_16
REMARK    5  A    between atoms: C_16  and  O_18
REMARK    6  A    between atoms: O_18  and  P_19
REMARK    7  A    between atoms: P_19  and  O_20
REMARK    8  A    between atoms: P_19  and  O_21
REMARK                            x       y       z     vdW  Elec       q    Type
REMARK                         _______ _______ _______ _____ _____    ______ ____
ROOT
ATOM      1  N   UNL     1      10.119  -1.848  22.755  0.00  0.00    -0.338 N 
ATOM      2  H   UNL     1       9.709  -2.119  21.864  0.00  0.00    +0.146 HD
ENDROOT
BRANCH   1   3
ATOM      3  C   UNL     1      10.174  -0.454  22.885  0.00  0.00    +0.027 A 
ATOM      4  C   UNL     1      10.550   0.097  24.122  0.00  0.00    +0.024 A 
ATOM      5  C   UNL     1      10.595   1.489  24.335  0.00  0.00    +0.017 A 
ATOM      6  C   UNL     1      10.226   2.371  23.315  0.00  0.00    +0.059 A 
ATOM      7  C   UNL     1       9.794   1.831  22.099  0.00  0.00    +0.017 A 
ATOM      8  C   UNL     1       9.755   0.440  21.895  0.00  0.00    +0.024 A 
BRANCH   6   9
ATOM      9  C   UNL     1      10.390   3.857  23.412  0.00  0.00    +0.347 C 
ATOM     10  O   UNL     1      11.464   4.403  23.610  0.00  0.00    -0.245 OA
BRANCH   9  11
ATOM     11  O   UNL     1       9.213   4.512  23.472  0.00  0.00    -0.368 OA
BRANCH  11  12
ATOM     12  P   UNL     1       8.521   4.543  25.057  0.00  0.00    +0.530 P 
ATOM     13  O   UNL     1       7.901   4.570  26.476  0.00  0.00    -0.216 OA
BRANCH  12  14
ATOM     14  O   UNL     1       7.270   5.377  24.388  0.00  0.00    -0.293 OA
ATOM     15  H   UNL     1       6.915   6.005  25.047  0.00  0.00    +0.223 HD
ENDBRANCH  12  14
BRANCH  12  16
ATOM     16  O   UNL     1       9.456   5.871  25.278  0.00  0.00    -0.293 OA
ATOM     17  H   UNL     1      10.303   5.578  25.659  0.00  0.00    +0.223 HD
ENDBRANCH  12  16
ENDBRANCH  11  12
ENDBRANCH   9  11
ENDBRANCH   6   9
ENDBRANCH   1   3
BRANCH   1  18
ATOM     18  C   UNL     1       9.603  -2.671  23.856  0.00  0.00    +0.158 C 
BRANCH  18  31
ATOM     19  N   UNL     1       2.997  -6.560  23.038  0.00  0.00    -0.329 N 
ATOM     20  H   UNL     1       2.813  -7.476  23.433  0.00  0.00    +0.145 HD
ATOM     21  H   UNL     1       2.742  -6.482  22.058  0.00  0.00    +0.145 HD
ATOM     22  C   UNL     1       4.187  -5.975  23.318  0.00  0.00    +0.195 A 
ATOM     23  N   UNL     1       4.752  -6.288  24.521  0.00  0.00    -0.293 N 
ATOM     24  H   UNL     1       4.282  -6.904  25.160  0.00  0.00    +0.172 HD
ATOM     25  C   UNL     1       5.942  -5.755  24.972  0.00  0.00    +0.280 A 
ATOM     26  O   UNL     1       6.392  -6.055  26.074  0.00  0.00    -0.265 OA
ATOM     27  C   UNL     1       6.603  -4.811  24.054  0.00  0.00    +0.172 A 
ATOM     28  C   UNL     1       5.962  -4.575  22.845  0.00  0.00    +0.187 A 
ATOM     29  N   UNL     1       6.497  -3.729  21.937  0.00  0.00    -0.232 NA
ATOM     30  C   UNL     1       7.676  -3.152  22.291  0.00  0.00    +0.138 A 
ATOM     31  C   UNL     1       8.314  -3.385  23.509  0.00  0.00    +0.077 A 
ATOM     32  N   UNL     1       7.777  -4.228  24.429  0.00  0.00    -0.240 NA
ATOM     33  N   UNL     1       4.740  -5.166  22.479  0.00  0.00    -0.195 NA
ENDBRANCH  18  31
ENDBRANCH   1  18
TORSDOF 8
ENDMDL
MODEL 9
REMARK VINA RESULT:      -7.3      3.496      4.983
REMARK  Name = 
REMARK  8 active torsions:
REMARK  status: ('A' for Active; 'I' for Inactive)
REMARK    1  A    between atoms: C_7  and  C_8
REMARK    2  A    between atoms: C_8  and  N_9
REMARK    3  A    between atoms: N_9  and  C_10
REMARK    4  A    between atoms: C_13  and  C_16
REMARK    5  A    between atoms: C_16  and  O_18
REMARK    6  A    between atoms: O_18  and  P_19
REMARK    7  A    between atoms: P_19  and  O_20
REMARK    8  A    between atoms: P_19  and  O_21
REMARK                            x       y       z     vdW  Elec       q    Type
REMARK                         _______ _______ _______ _____ _____    ______ ____
ROOT
ATOM      1  N   UNL     1       7.370  -3.308  26.771  0.00  0.00    -0.338 N 
ATOM      2  H   UNL     1       7.274  -3.062  27.754  0.00  0.00    +0.146 HD
ENDROOT
BRANCH   1   3
ATOM      3  C   UNL     1       8.164  -2.376  26.090  0.00  0.00    +0.027 A 
ATOM      4  C   UNL     1       8.790  -2.766  24.893  0.00  0.00    +0.024 A 
ATOM      5  C   UNL     1       9.629  -1.893  24.173  0.00  0.00    +0.017 A 
ATOM      6  C   UNL     1       9.892  -0.609  24.657  0.00  0.00    +0.059 A 
ATOM      7  C   UNL     1       9.322  -0.232  25.877  0.00  0.00    +0.017 A 
ATOM      8  C   UNL     1       8.483  -1.110  26.588  0.00  0.00    +0.024 A 
BRANCH   6   9
ATOM      9  C   UNL     1      10.648   0.425  23.879  0.00  0.00    +0.347 C 
ATOM     10  O   UNL     1      11.555   1.092  24.353  0.00  0.00    -0.245 OA
BRANCH   9  11
ATOM     11  O   UNL     1      10.091   0.691  22.680  0.00  0.00    -0.368 OA
BRANCH  11  12
ATOM     12  P   UNL     1       9.136   2.133  22.669  0.00  0.00    +0.530 P 
ATOM     13  O   UNL     1       8.280   3.424  22.659  0.00  0.00    -0.216 OA
BRANCH  12  14
ATOM     14  O   UNL     1       8.904   1.850  21.064  0.00  0.00    -0.293 OA
ATOM     15  H   UNL     1       7.977   2.057  20.833  0.00  0.00    +0.223 HD
ENDBRANCH  12  14
BRANCH  12  16
ATOM     16  O   UNL     1      10.568   2.903  22.457  0.00  0.00    -0.293 OA
ATOM     17  H   UNL     1      10.378   3.798  22.127  0.00  0.00    +0.223 HD
ENDBRANCH  12  16
ENDBRANCH  11  12
ENDBRANCH   9  11
ENDBRANCH   6   9
ENDBRANCH   1   3
BRANCH   1  18
ATOM     18  C   UNL     1       7.610  -4.747  26.600  0.00  0.00    +0.158 C 
BRANCH  18  31
ATOM     19  N   UNL     1       1.685  -8.281  23.159  0.00  0.00    -0.329 N 
ATOM     20  H   UNL     1       1.113  -7.871  22.429  0.00  0.00    +0.145 HD
ATOM     21  H   UNL     1       1.145  -8.716  23.901  0.00  0.00    +0.145 HD
ATOM     22  C   UNL     1       2.731  -7.558  23.627  0.00  0.00    +0.195 A 
ATOM     23  N   UNL     1       3.322  -6.700  22.745  0.00  0.00    -0.293 N 
ATOM     24  H   UNL     1       2.998  -6.641  21.797  0.00  0.00    +0.172 HD
ATOM     25  C   UNL     1       4.417  -5.918  23.051  0.00  0.00    +0.280 A 
ATOM     26  O   UNL     1       4.923  -5.181  22.210  0.00  0.00    -0.265 OA
ATOM     27  C   UNL     1       4.923  -6.046  24.429  0.00  0.00    +0.172 A 
ATOM     28  C   UNL     1       4.241  -6.927  25.257  0.00  0.00    +0.187 A 
ATOM     29  N   UNL     1       4.629  -7.106  26.539  0.00  0.00    -0.232 NA
ATOM     30  C   UNL     1       5.704  -6.374  26.938  0.00  0.00    +0.138 A 
ATOM     31  C   UNL     1       6.392  -5.495  26.102  0.00  0.00    +0.077 A 
ATOM     32  N   UNL     1       6.012  -5.318  24.810  0.00  0.00    -0.240 NA
ATOM     33  N   UNL     1       3.134  -7.689  24.846  0.00  0.00    -0.195 NA
ENDBRANCH  18  31
ENDBRANCH   1  18
TORSDOF 8
ENDMDL
