MODEL 1
REMARK VINA RESULT:      -8.0      0.000      0.000
REMARK  Name = 
REMARK  12 active torsions:
REMARK  status: ('A' for Active; 'I' for Inactive)
REMARK    1  A    between atoms: C_1  and  C_2
REMARK    2  A    between atoms: N_4  and  C_23
REMARK    3  A    between atoms: C_5  and  O_6
REMARK    4  A    between atoms: C_7  and  N_8
REMARK    5  A    between atoms: N_9  and  C_10
REMARK    6  A    between atoms: C_12  and  S_19
REMARK    7  A    between atoms: C_15  and  C_16
REMARK    8  A    between atoms: C_16  and  O_17
REMARK    9  A    between atoms: S_19  and  O_20
REMARK   10  A    between atoms: C_26  and  S_30
REMARK   11  A    between atoms: C_28  and  C_29
REMARK   12  A    between atoms: S_30  and  O_31
REMARK                            x       y       z     vdW  Elec       q    Type
REMARK                         _______ _______ _______ _____ _____    ______ ____
ROOT
ATOM      1  C   UNL     1      10.006  -3.013  24.125  0.00  0.00    +0.070 C 
ATOM      2  C   UNL     1       9.006  -1.914  24.111  0.00  0.00    +0.091 A 
ATOM      3  C   UNL     1       7.626  -1.980  24.356  0.00  0.00    +0.170 A 
ATOM      4  C   UNL     1       7.148  -0.703  24.198  0.00  0.00    +0.244 A 
ATOM      5  N   UNL     1       8.255   0.112  23.921  0.00  0.00    -0.198 N 
ATOM      6  N   UNL     1       9.385  -0.659  23.825  0.00  0.00    -0.166 NA
ENDROOT
BRANCH   5   7
ATOM      7  C   UNL     1       8.279   1.544  23.694  0.00  0.00    +0.072 A 
ATOM      8  C   UNL     1       8.220   2.134  22.404  0.00  0.00    -0.023 A 
ATOM      9  C   UNL     1       8.170   1.373  21.106  0.00  0.00    +0.046 C 
ATOM     10  C   UNL     1       8.178   3.544  22.293  0.00  0.00    +0.035 A 
ATOM     11  C   UNL     1       8.199   4.357  23.424  0.00  0.00    +0.117 A 
ATOM     12  C   UNL     1       8.292   3.802  24.688  0.00  0.00    +0.031 A 
ATOM     13  C   UNL     1       8.343   2.410  24.811  0.00  0.00    +0.030 A 
BRANCH  11  14
ATOM     14  S   UNL     1       8.043   6.109  23.230  0.00  0.00    +0.110 S 
ATOM     15  O   UNL     1       9.305   6.709  23.560  0.00  0.00    -0.142 OA
ATOM     16  O   UNL     1       6.800   6.526  23.852  0.00  0.00    -0.142 OA
BRANCH  14  17
ATOM     17  O   UNL     1       7.787   6.294  21.647  0.00  0.00    -0.250 OA
ATOM     18  H   UNL     1       7.863   7.252  21.449  0.00  0.00    +0.245 HD
ENDBRANCH  14  17
ENDBRANCH  11  14
ENDBRANCH   5   7
BRANCH   3  19
ATOM     19  N   UNL     1       6.775  -3.034  24.708  0.00  0.00    -0.142 NA
ATOM     20  N   UNL     1       7.185  -4.197  24.516  0.00  0.00    -0.148 NA
BRANCH  20  21
ATOM     21  C   UNL     1       6.248  -5.121  25.051  0.00  0.00    +0.102 A 
ATOM     22  C   UNL     1       5.334  -5.822  24.239  0.00  0.00    +0.086 A 
ATOM     23  C   UNL     1       4.410  -6.714  24.823  0.00  0.00    +0.019 A 
ATOM     24  C   UNL     1       4.398  -6.935  26.201  0.00  0.00    +0.030 A 
ATOM     25  C   UNL     1       5.329  -6.276  26.998  0.00  0.00    +0.119 A 
ATOM     26  C   UNL     1       6.245  -5.383  26.437  0.00  0.00    +0.060 A 
BRANCH  25  27
ATOM     27  S   UNL     1       5.376  -6.617  28.736  0.00  0.00    +0.110 S 
ATOM     28  O   UNL     1       5.191  -5.363  29.429  0.00  0.00    -0.142 OA
ATOM     29  O   UNL     1       6.505  -7.484  28.990  0.00  0.00    -0.142 OA
BRANCH  27  30
ATOM     30  O   UNL     1       4.075  -7.538  28.972  0.00  0.00    -0.250 OA
ATOM     31  H   UNL     1       3.557  -7.546  28.139  0.00  0.00    +0.245 HD
ENDBRANCH  27  30
ENDBRANCH  25  27
BRANCH  22  32
ATOM     32  C   UNL     1       5.290  -5.719  22.756  0.00  0.00    +0.339 C 
ATOM     33  O   UNL     1       4.771  -4.773  22.194  0.00  0.00    -0.245 OA
BRANCH  32  34
ATOM     34  O   UNL     1       5.914  -6.705  22.082  0.00  0.00    -0.477 OA
ATOM     35  H   UNL     1       6.091  -6.520  21.139  0.00  0.00    +0.295 HD
ENDBRANCH  32  34
ENDBRANCH  22  32
ENDBRANCH  20  21
ENDBRANCH   3  19
BRANCH   4  36
ATOM     36  O   UNL     1       5.886  -0.271  24.241  0.00  0.00    -0.491 OA
ATOM     37  H   UNL     1       5.645   0.020  23.343  0.00  0.00    +0.294 HD
ENDBRANCH   4  36
TORSDOF 10
ENDMDL
MODEL 2
REMARK VINA RESULT:      -7.9      1.771      2.997
REMARK  Name = 
REMARK  12 active torsions:
REMARK  status: ('A' for Active; 'I' for Inactive)
REMARK    1  A    between atoms: C_1  and  C_2
REMARK    2  A    between atoms: N_4  and  C_23
REMARK    3  A    between atoms: C_5  and  O_6
REMARK    4  A    between atoms: C_7  and  N_8
REMARK    5  A    between atoms: N_9  and  C_10
REMARK    6  A    between atoms: C_12  and  S_19
REMARK    7  A    between atoms: C_15  and  C_16
REMARK    8  A    between atoms: C_16  and  O_17
REMARK    9  A    between atoms: S_19  and  O_20
REMARK   10  A    between atoms: C_26  and  S_30
REMARK   11  A    between atoms: C_28  and  C_29
REMARK   12  A    between atoms: S_30  and  O_31
REMARK                            x       y       z     vdW  Elec       q    Type
REMARK                         _______ _______ _______ _____ _____    ______ ____
ROOT
ATOM      1  C   UNL     1       9.718  -3.278  24.490  0.00  0.00    +0.070 C 
ATOM      2  C   UNL     1       8.753  -2.157  24.355  0.00  0.00    +0.091 A 
ATOM      3  C   UNL     1       7.356  -2.180  24.490  0.00  0.00    +0.170 A 
ATOM      4  C   UNL     1       6.928  -0.898  24.247  0.00  0.00    +0.244 A 
ATOM      5  N   UNL     1       8.076  -0.122  24.031  0.00  0.00    -0.198 N 
ATOM      6  N   UNL     1       9.188  -0.923  24.055  0.00  0.00    -0.166 NA
ENDROOT
BRANCH   5   7
ATOM      7  C   UNL     1       8.157   1.300  23.755  0.00  0.00    +0.072 A 
ATOM      8  C   UNL     1       8.387   1.834  22.460  0.00  0.00    -0.023 A 
ATOM      9  C   UNL     1       8.620   1.018  21.216  0.00  0.00    +0.046 C 
ATOM     10  C   UNL     1       8.379   3.238  22.282  0.00  0.00    +0.035 A 
ATOM     11  C   UNL     1       8.154   4.098  23.355  0.00  0.00    +0.117 A 
ATOM     12  C   UNL     1       7.964   3.597  24.631  0.00  0.00    +0.031 A 
ATOM     13  C   UNL     1       7.979   2.213  24.821  0.00  0.00    +0.030 A 
BRANCH  11  14
ATOM     14  S   UNL     1       8.055   5.839  23.058  0.00  0.00    +0.110 S 
ATOM     15  O   UNL     1       9.376   6.389  23.176  0.00  0.00    -0.142 OA
ATOM     16  O   UNL     1       6.927   6.364  23.806  0.00  0.00    -0.142 OA
BRANCH  14  17
ATOM     17  O   UNL     1       7.597   5.935  21.513  0.00  0.00    -0.250 OA
ATOM     18  H   UNL     1       7.947   6.779  21.156  0.00  0.00    +0.245 HD
ENDBRANCH  14  17
ENDBRANCH  11  14
ENDBRANCH   5   7
BRANCH   3  19
ATOM     19  N   UNL     1       6.451  -3.197  24.811  0.00  0.00    -0.142 NA
ATOM     20  N   UNL     1       6.772  -4.369  24.522  0.00  0.00    -0.148 NA
BRANCH  20  21
ATOM     21  C   UNL     1       5.798  -5.265  25.037  0.00  0.00    +0.102 A 
ATOM     22  C   UNL     1       5.911  -5.846  26.316  0.00  0.00    +0.086 A 
ATOM     23  C   UNL     1       4.925  -6.747  26.772  0.00  0.00    +0.019 A 
ATOM     24  C   UNL     1       3.818  -7.059  25.982  0.00  0.00    +0.030 A 
ATOM     25  C   UNL     1       3.685  -6.453  24.737  0.00  0.00    +0.119 A 
ATOM     26  C   UNL     1       4.656  -5.566  24.266  0.00  0.00    +0.060 A 
BRANCH  25  27
ATOM     27  S   UNL     1       2.239  -6.780  23.765  0.00  0.00    +0.110 S 
ATOM     28  O   UNL     1       2.329  -5.974  22.570  0.00  0.00    -0.142 OA
ATOM     29  O   UNL     1       1.091  -6.737  24.644  0.00  0.00    -0.142 OA
BRANCH  27  30
ATOM     30  O   UNL     1       2.402  -8.331  23.360  0.00  0.00    -0.250 OA
ATOM     31  H   UNL     1       1.530  -8.653  23.048  0.00  0.00    +0.245 HD
ENDBRANCH  27  30
ENDBRANCH  25  27
BRANCH  22  32
ATOM     32  C   UNL     1       7.008  -5.545  27.273  0.00  0.00    +0.339 C 
ATOM     33  O   UNL     1       6.784  -5.211  28.421  0.00  0.00    -0.245 OA
BRANCH  32  34
ATOM     34  O   UNL     1       8.260  -5.725  26.804  0.00  0.00    -0.477 OA
ATOM     35  H   UNL     1       8.446  -5.310  25.940  0.00  0.00    +0.295 HD
ENDBRANCH  32  34
ENDBRANCH  22  32
ENDBRANCH  20  21
ENDBRANCH   3  19
BRANCH   4  36
ATOM     36  O   UNL     1       5.679  -0.434  24.173  0.00  0.00    -0.491 OA
ATOM     37  H   UNL     1       5.258  -0.849  23.398  0.00  0.00    +0.294 HD
ENDBRANCH   4  36
TORSDOF 10
ENDMDL
MODEL 3
REMARK VINA RESULT:      -7.8      2.919     10.402
REMARK  Name = 
REMARK  12 active torsions:
REMARK  status: ('A' for Active; 'I' for Inactive)
REMARK    1  A    between atoms: C_1  and  C_2
REMARK    2  A    between atoms: N_4  and  C_23
REMARK    3  A    between atoms: C_5  and  O_6
REMARK    4  A    between atoms: C_7  and  N_8
REMARK    5  A    between atoms: N_9  and  C_10
REMARK    6  A    between atoms: C_12  and  S_19
REMARK    7  A    between atoms: C_15  and  C_16
REMARK    8  A    between atoms: C_16  and  O_17
REMARK    9  A    between atoms: S_19  and  O_20
REMARK   10  A    between atoms: C_26  and  S_30
REMARK   11  A    between atoms: C_28  and  C_29
REMARK   12  A    between atoms: S_30  and  O_31
REMARK                            x       y       z     vdW  Elec       q    Type
REMARK                         _______ _______ _______ _____ _____    ______ ____
ROOT
ATOM      1  C   UNL     1      10.513  -1.462  22.277  0.00  0.00    +0.070 C 
ATOM      2  C   UNL     1       9.796  -1.513  23.577  0.00  0.00    +0.091 A 
ATOM      3  C   UNL     1       9.571  -0.477  24.497  0.00  0.00    +0.170 A 
ATOM      4  C   UNL     1       8.884  -1.040  25.545  0.00  0.00    +0.244 A 
ATOM      5  N   UNL     1       8.659  -2.382  25.207  0.00  0.00    -0.198 N 
ATOM      6  N   UNL     1       9.268  -2.668  24.013  0.00  0.00    -0.166 NA
ENDROOT
BRANCH   5   7
ATOM      7  C   UNL     1       7.957  -3.393  25.975  0.00  0.00    +0.072 A 
ATOM      8  C   UNL     1       8.491  -4.680  26.248  0.00  0.00    -0.023 A 
ATOM      9  C   UNL     1       9.819  -5.189  25.753  0.00  0.00    +0.046 C 
ATOM     10  C   UNL     1       7.757  -5.571  27.066  0.00  0.00    +0.035 A 
ATOM     11  C   UNL     1       6.523  -5.207  27.600  0.00  0.00    +0.117 A 
ATOM     12  C   UNL     1       5.969  -3.971  27.316  0.00  0.00    +0.031 A 
ATOM     13  C   UNL     1       6.681  -3.085  26.501  0.00  0.00    +0.030 A 
BRANCH  11  14
ATOM     14  S   UNL     1       5.695  -6.321  28.698  0.00  0.00    +0.110 S 
ATOM     15  O   UNL     1       4.678  -5.588  29.396  0.00  0.00    -0.142 OA
ATOM     16  O   UNL     1       6.701  -7.105  29.391  0.00  0.00    -0.142 OA
BRANCH  14  17
ATOM     17  O   UNL     1       4.978  -7.371  27.703  0.00  0.00    -0.250 OA
ATOM     18  H   UNL     1       4.300  -7.851  28.224  0.00  0.00    +0.245 HD
ENDBRANCH  14  17
ENDBRANCH  11  14
ENDBRANCH   5   7
BRANCH   3  19
ATOM     19  N   UNL     1       9.897   0.883  24.491  0.00  0.00    -0.142 NA
ATOM     20  N   UNL     1       9.478   1.574  23.540  0.00  0.00    -0.148 NA
BRANCH  20  21
ATOM     21  C   UNL     1       9.795   2.939  23.773  0.00  0.00    +0.102 A 
ATOM     22  C   UNL     1       8.942   3.798  24.494  0.00  0.00    +0.086 A 
ATOM     23  C   UNL     1       9.294   5.151  24.680  0.00  0.00    +0.019 A 
ATOM     24  C   UNL     1      10.494   5.656  24.178  0.00  0.00    +0.030 A 
ATOM     25  C   UNL     1      11.356   4.798  23.502  0.00  0.00    +0.119 A 
ATOM     26  C   UNL     1      11.019   3.457  23.302  0.00  0.00    +0.060 A 
BRANCH  25  27
ATOM     27  S   UNL     1      12.920   5.411  22.936  0.00  0.00    +0.110 S 
ATOM     28  O   UNL     1      12.794   5.681  21.523  0.00  0.00    -0.142 OA
ATOM     29  O   UNL     1      13.955   4.556  23.473  0.00  0.00    -0.142 OA
BRANCH  27  30
ATOM     30  O   UNL     1      13.080   6.810  23.720  0.00  0.00    -0.250 OA
ATOM     31  H   UNL     1      12.282   7.350  23.536  0.00  0.00    +0.245 HD
ENDBRANCH  27  30
ENDBRANCH  25  27
BRANCH  22  32
ATOM     32  C   UNL     1       7.669   3.364  25.130  0.00  0.00    +0.339 C 
ATOM     33  O   UNL     1       6.597   3.842  24.810  0.00  0.00    -0.245 OA
BRANCH  32  34
ATOM     34  O   UNL     1       7.775   2.369  26.034  0.00  0.00    -0.477 OA
ATOM     35  H   UNL     1       6.944   2.124  26.485  0.00  0.00    +0.295 HD
ENDBRANCH  32  34
ENDBRANCH  22  32
ENDBRANCH  20  21
ENDBRANCH   3  19
BRANCH   4  36
ATOM     36  O   UNL     1       8.518  -0.481  26.700  0.00  0.00    -0.491 OA
ATOM     37  H   UNL     1       9.168  -0.750  27.374  0.00  0.00    +0.294 HD
ENDBRANCH   4  36
TORSDOF 10
ENDMDL
MODEL 4
REMARK VINA RESULT:      -7.4      2.512      9.951
REMARK  Name = 
REMARK  12 active torsions:
REMARK  status: ('A' for Active; 'I' for Inactive)
REMARK    1  A    between atoms: C_1  and  C_2
REMARK    2  A    between atoms: N_4  and  C_23
REMARK    3  A    between atoms: C_5  and  O_6
REMARK    4  A    between atoms: C_7  and  N_8
REMARK    5  A    between atoms: N_9  and  C_10
REMARK    6  A    between atoms: C_12  and  S_19
REMARK    7  A    between atoms: C_15  and  C_16
REMARK    8  A    between atoms: C_16  and  O_17
REMARK    9  A    between atoms: S_19  and  O_20
REMARK   10  A    between atoms: C_26  and  S_30
REMARK   11  A    between atoms: C_28  and  C_29
REMARK   12  A    between atoms: S_30  and  O_31
REMARK                            x       y       z     vdW  Elec       q    Type
REMARK                         _______ _______ _______ _____ _____    ______ ____
ROOT
ATOM      1  C   UNL     1      10.174  -1.582  22.774  0.00  0.00    +0.070 C 
ATOM      2  C   UNL     1       8.845  -1.807  23.399  0.00  0.00    +0.091 A 
ATOM      3  C   UNL     1       8.075  -0.921  24.169  0.00  0.00    +0.170 A 
ATOM      4  C   UNL     1       6.945  -1.612  24.530  0.00  0.00    +0.244 A 
ATOM      5  N   UNL     1       7.030  -2.874  23.922  0.00  0.00    -0.198 N 
ATOM      6  N   UNL     1       8.228  -2.992  23.268  0.00  0.00    -0.166 NA
ENDROOT
BRANCH   5   7
ATOM      7  C   UNL     1       6.073  -3.962  23.981  0.00  0.00    +0.072 A 
ATOM      8  C   UNL     1       6.194  -5.065  24.866  0.00  0.00    -0.023 A 
ATOM      9  C   UNL     1       7.335  -5.283  25.826  0.00  0.00    +0.046 C 
ATOM     10  C   UNL     1       5.170  -6.041  24.896  0.00  0.00    +0.035 A 
ATOM     11  C   UNL     1       4.054  -5.938  24.069  0.00  0.00    +0.117 A 
ATOM     12  C   UNL     1       3.935  -4.890  23.173  0.00  0.00    +0.031 A 
ATOM     13  C   UNL     1       4.945  -3.924  23.128  0.00  0.00    +0.030 A 
BRANCH  11  14
ATOM     14  S   UNL     1       2.757  -7.132  24.218  0.00  0.00    +0.110 S 
ATOM     15  O   UNL     1       1.602  -6.472  24.759  0.00  0.00    -0.142 OA
ATOM     16  O   UNL     1       3.313  -8.334  24.812  0.00  0.00    -0.142 OA
BRANCH  14  17
ATOM     17  O   UNL     1       2.442  -7.544  22.689  0.00  0.00    -0.250 OA
ATOM     18  H   UNL     1       2.671  -6.774  22.126  0.00  0.00    +0.245 HD
ENDBRANCH  14  17
ENDBRANCH  11  14
ENDBRANCH   5   7
BRANCH   3  19
ATOM     19  N   UNL     1       8.268   0.408  24.561  0.00  0.00    -0.142 NA
ATOM     20  N   UNL     1       7.420   1.247  24.197  0.00  0.00    -0.148 NA
BRANCH  20  21
ATOM     21  C   UNL     1       7.712   2.503  24.794  0.00  0.00    +0.102 A 
ATOM     22  C   UNL     1       7.100   2.928  25.989  0.00  0.00    +0.086 A 
ATOM     23  C   UNL     1       7.410   4.194  26.530  0.00  0.00    +0.019 A 
ATOM     24  C   UNL     1       8.338   5.032  25.910  0.00  0.00    +0.030 A 
ATOM     25  C   UNL     1       8.973   4.594  24.753  0.00  0.00    +0.119 A 
ATOM     26  C   UNL     1       8.672   3.348  24.199  0.00  0.00    +0.060 A 
BRANCH  25  27
ATOM     27  S   UNL     1      10.215   5.617  24.007  0.00  0.00    +0.110 S 
ATOM     28  O   UNL     1      11.251   4.744  23.506  0.00  0.00    -0.142 OA
ATOM     29  O   UNL     1      10.493   6.711  24.911  0.00  0.00    -0.142 OA
BRANCH  27  30
ATOM     30  O   UNL     1       9.448   6.286  22.758  0.00  0.00    -0.250 OA
ATOM     31  H   UNL     1       8.486   6.150  22.889  0.00  0.00    +0.245 HD
ENDBRANCH  27  30
ENDBRANCH  25  27
BRANCH  22  32
ATOM     32  C   UNL     1       6.144   2.102  26.775  0.00  0.00    +0.339 C 
ATOM     33  O   UNL     1       5.008   2.474  26.998  0.00  0.00    -0.245 OA
BRANCH  32  34
ATOM     34  O   UNL     1       6.599   0.895  27.167  0.00  0.00    -0.477 OA
ATOM     35  H   UNL     1       7.570   0.823  27.254  0.00  0.00    +0.295 HD
ENDBRANCH  32  34
ENDBRANCH  22  32
ENDBRANCH  20  21
ENDBRANCH   3  19
BRANCH   4  36
ATOM     36  O   UNL     1       5.952  -1.228  25.335  0.00  0.00    -0.491 OA
ATOM     37  H   UNL     1       5.450  -2.026  25.582  0.00  0.00    +0.294 HD
ENDBRANCH   4  36
TORSDOF 10
ENDMDL
MODEL 5
REMARK VINA RESULT:      -7.4      2.648      9.993
REMARK  Name = 
REMARK  12 active torsions:
REMARK  status: ('A' for Active; 'I' for Inactive)
REMARK    1  A    between atoms: C_1  and  C_2
REMARK    2  A    between atoms: N_4  and  C_23
REMARK    3  A    between atoms: C_5  and  O_6
REMARK    4  A    between atoms: C_7  and  N_8
REMARK    5  A    between atoms: N_9  and  C_10
REMARK    6  A    between atoms: C_12  and  S_19
REMARK    7  A    between atoms: C_15  and  C_16
REMARK    8  A    between atoms: C_16  and  O_17
REMARK    9  A    between atoms: S_19  and  O_20
REMARK   10  A    between atoms: C_26  and  S_30
REMARK   11  A    between atoms: C_28  and  C_29
REMARK   12  A    between atoms: S_30  and  O_31
REMARK                            x       y       z     vdW  Elec       q    Type
REMARK                         _______ _______ _______ _____ _____    ______ ____
ROOT
ATOM      1  C   UNL     1       9.795  -2.610  23.762  0.00  0.00    +0.070 C 
ATOM      2  C   UNL     1       8.331  -2.727  23.987  0.00  0.00    +0.091 A 
ATOM      3  C   UNL     1       7.398  -1.712  24.244  0.00  0.00    +0.170 A 
ATOM      4  C   UNL     1       6.185  -2.337  24.400  0.00  0.00    +0.244 A 
ATOM      5  N   UNL     1       6.404  -3.704  24.175  0.00  0.00    -0.198 N 
ATOM      6  N   UNL     1       7.739  -3.932  23.968  0.00  0.00    -0.166 NA
ENDROOT
BRANCH   5   7
ATOM      7  C   UNL     1       5.433  -4.782  24.202  0.00  0.00    +0.072 A 
ATOM      8  C   UNL     1       5.314  -5.701  25.277  0.00  0.00    -0.023 A 
ATOM      9  C   UNL     1       6.188  -5.717  26.504  0.00  0.00    +0.046 C 
ATOM     10  C   UNL     1       4.288  -6.675  25.241  0.00  0.00    +0.035 A 
ATOM     11  C   UNL     1       3.402  -6.748  24.168  0.00  0.00    +0.117 A 
ATOM     12  C   UNL     1       3.526  -5.884  23.093  0.00  0.00    +0.031 A 
ATOM     13  C   UNL     1       4.541  -4.923  23.114  0.00  0.00    +0.030 A 
BRANCH  11  14
ATOM     14  S   UNL     1       2.078  -7.920  24.221  0.00  0.00    +0.110 S 
ATOM     15  O   UNL     1       0.900  -7.242  24.682  0.00  0.00    -0.142 OA
ATOM     16  O   UNL     1       2.570  -9.133  24.846  0.00  0.00    -0.142 OA
BRANCH  14  17
ATOM     17  O   UNL     1       1.864  -8.321  22.671  0.00  0.00    -0.250 OA
ATOM     18  H   UNL     1       2.516  -9.022  22.458  0.00  0.00    +0.245 HD
ENDBRANCH  14  17
ENDBRANCH  11  14
ENDBRANCH   5   7
BRANCH   3  19
ATOM     19  N   UNL     1       7.513  -0.320  24.340  0.00  0.00    -0.142 NA
ATOM     20  N   UNL     1       7.826   0.306  23.306  0.00  0.00    -0.148 NA
BRANCH  20  21
ATOM     21  C   UNL     1       7.766   1.702  23.565  0.00  0.00    +0.102 A 
ATOM     22  C   UNL     1       8.867   2.423  24.065  0.00  0.00    +0.086 A 
ATOM     23  C   UNL     1       8.748   3.805  24.324  0.00  0.00    +0.019 A 
ATOM     24  C   UNL     1       7.556   4.483  24.070  0.00  0.00    +0.030 A 
ATOM     25  C   UNL     1       6.481   3.779  23.536  0.00  0.00    +0.119 A 
ATOM     26  C   UNL     1       6.579   2.409  23.282  0.00  0.00    +0.060 A 
BRANCH  25  27
ATOM     27  S   UNL     1       4.991   4.650  23.131  0.00  0.00    +0.110 S 
ATOM     28  O   UNL     1       5.370   5.967  22.675  0.00  0.00    -0.142 OA
ATOM     29  O   UNL     1       4.048   4.444  24.209  0.00  0.00    -0.142 OA
BRANCH  27  30
ATOM     30  O   UNL     1       4.397   3.818  21.886  0.00  0.00    -0.250 OA
ATOM     31  H   UNL     1       4.547   2.865  22.064  0.00  0.00    +0.245 HD
ENDBRANCH  27  30
ENDBRANCH  25  27
BRANCH  22  32
ATOM     32  C   UNL     1      10.207   1.828  24.317  0.00  0.00    +0.339 C 
ATOM     33  O   UNL     1      11.217   2.287  23.818  0.00  0.00    -0.245 OA
BRANCH  32  34
ATOM     34  O   UNL     1      10.234   0.790  25.178  0.00  0.00    -0.477 OA
ATOM     35  H   UNL     1      11.103   0.610  25.587  0.00  0.00    +0.295 HD
ENDBRANCH  32  34
ENDBRANCH  22  32
ENDBRANCH  20  21
ENDBRANCH   3  19
BRANCH   4  36
ATOM     36  O   UNL     1       5.009  -1.807  24.743  0.00  0.00    -0.491 OA
ATOM     37  H   UNL     1       4.848  -1.048  24.155  0.00  0.00    +0.294 HD
ENDBRANCH   4  36
TORSDOF 10
ENDMDL
MODEL 6
REMARK VINA RESULT:      -7.3      2.330     10.128
REMARK  Name = 
REMARK  12 active torsions:
REMARK  status: ('A' for Active; 'I' for Inactive)
REMARK    1  A    between atoms: C_1  and  C_2
REMARK    2  A    between atoms: N_4  and  C_23
REMARK    3  A    between atoms: C_5  and  O_6
REMARK    4  A    between atoms: C_7  and  N_8
REMARK    5  A    between atoms: N_9  and  C_10
REMARK    6  A    between atoms: C_12  and  S_19
REMARK    7  A    between atoms: C_15  and  C_16
REMARK    8  A    between atoms: C_16  and  O_17
REMARK    9  A    between atoms: S_19  and  O_20
REMARK   10  A    between atoms: C_26  and  S_30
REMARK   11  A    between atoms: C_28  and  C_29
REMARK   12  A    between atoms: S_30  and  O_31
REMARK                            x       y       z     vdW  Elec       q    Type
REMARK                         _______ _______ _______ _____ _____    ______ ____
ROOT
ATOM      1  C   UNL     1       9.727  -1.052  21.603  0.00  0.00    +0.070 C 
ATOM      2  C   UNL     1       8.477  -1.266  22.377  0.00  0.00    +0.091 A 
ATOM      3  C   UNL     1       7.600  -0.310  22.911  0.00  0.00    +0.170 A 
ATOM      4  C   UNL     1       6.613  -1.014  23.556  0.00  0.00    +0.244 A 
ATOM      5  N   UNL     1       6.884  -2.374  23.347  0.00  0.00    -0.198 N 
ATOM      6  N   UNL     1       8.061  -2.511  22.658  0.00  0.00    -0.166 NA
ENDROOT
BRANCH   5   7
ATOM      7  C   UNL     1       6.123  -3.519  23.807  0.00  0.00    +0.072 A 
ATOM      8  C   UNL     1       6.480  -4.291  24.944  0.00  0.00    -0.023 A 
ATOM      9  C   UNL     1       7.700  -4.063  25.797  0.00  0.00    +0.046 C 
ATOM     10  C   UNL     1       5.632  -5.347  25.354  0.00  0.00    +0.035 A 
ATOM     11  C   UNL     1       4.462  -5.643  24.657  0.00  0.00    +0.117 A 
ATOM     12  C   UNL     1       4.117  -4.926  23.525  0.00  0.00    +0.031 A 
ATOM     13  C   UNL     1       4.950  -3.886  23.106  0.00  0.00    +0.030 A 
BRANCH  11  14
ATOM     14  S   UNL     1       3.390  -6.909  25.271  0.00  0.00    +0.110 S 
ATOM     15  O   UNL     1       3.397  -7.995  24.333  0.00  0.00    -0.142 OA
ATOM     16  O   UNL     1       2.161  -6.283  25.724  0.00  0.00    -0.142 OA
BRANCH  14  17
ATOM     17  O   UNL     1       4.118  -7.399  26.627  0.00  0.00    -0.250 OA
ATOM     18  H   UNL     1       5.061  -7.559  26.410  0.00  0.00    +0.245 HD
ENDBRANCH  14  17
ENDBRANCH  11  14
ENDBRANCH   5   7
BRANCH   3  19
ATOM     19  N   UNL     1       7.585   1.089  22.872  0.00  0.00    -0.142 NA
ATOM     20  N   UNL     1       7.789   1.699  23.942  0.00  0.00    -0.148 NA
BRANCH  20  21
ATOM     21  C   UNL     1       7.866   3.094  23.682  0.00  0.00    +0.102 A 
ATOM     22  C   UNL     1       9.094   3.774  23.576  0.00  0.00    +0.086 A 
ATOM     23  C   UNL     1       9.114   5.164  23.337  0.00  0.00    +0.019 A 
ATOM     24  C   UNL     1       7.928   5.882  23.179  0.00  0.00    +0.030 A 
ATOM     25  C   UNL     1       6.715   5.204  23.241  0.00  0.00    +0.119 A 
ATOM     26  C   UNL     1       6.677   3.829  23.486  0.00  0.00    +0.060 A 
BRANCH  25  27
ATOM     27  S   UNL     1       5.209   6.094  22.956  0.00  0.00    +0.110 S 
ATOM     28  O   UNL     1       5.106   7.108  23.979  0.00  0.00    -0.142 OA
ATOM     29  O   UNL     1       4.160   5.128  22.712  0.00  0.00    -0.142 OA
BRANCH  27  30
ATOM     30  O   UNL     1       5.462   6.811  21.536  0.00  0.00    -0.250 OA
ATOM     31  H   UNL     1       6.047   6.230  21.006  0.00  0.00    +0.245 HD
ENDBRANCH  27  30
ENDBRANCH  25  27
BRANCH  22  32
ATOM     32  C   UNL     1      10.423   3.111  23.664  0.00  0.00    +0.339 C 
ATOM     33  O   UNL     1      11.451   3.694  23.377  0.00  0.00    -0.245 OA
BRANCH  32  34
ATOM     34  O   UNL     1      10.417   1.848  24.138  0.00  0.00    -0.477 OA
ATOM     35  H   UNL     1      11.250   1.555  24.555  0.00  0.00    +0.295 HD
ENDBRANCH  32  34
ENDBRANCH  22  32
ENDBRANCH  20  21
ENDBRANCH   3  19
BRANCH   4  36
ATOM     36  O   UNL     1       5.600  -0.551  24.291  0.00  0.00    -0.491 OA
ATOM     37  H   UNL     1       5.900   0.273  24.716  0.00  0.00    +0.294 HD
ENDBRANCH   4  36
TORSDOF 10
ENDMDL
MODEL 7
REMARK VINA RESULT:      -7.2      2.830      9.527
REMARK  Name = 
REMARK  12 active torsions:
REMARK  status: ('A' for Active; 'I' for Inactive)
REMARK    1  A    between atoms: C_1  and  C_2
REMARK    2  A    between atoms: N_4  and  C_23
REMARK    3  A    between atoms: C_5  and  O_6
REMARK    4  A    between atoms: C_7  and  N_8
REMARK    5  A    between atoms: N_9  and  C_10
REMARK    6  A    between atoms: C_12  and  S_19
REMARK    7  A    between atoms: C_15  and  C_16
REMARK    8  A    between atoms: C_16  and  O_17
REMARK    9  A    between atoms: S_19  and  O_20
REMARK   10  A    between atoms: C_26  and  S_30
REMARK   11  A    between atoms: C_28  and  C_29
REMARK   12  A    between atoms: S_30  and  O_31
REMARK                            x       y       z     vdW  Elec       q    Type
REMARK                         _______ _______ _______ _____ _____    ______ ____
ROOT
ATOM      1  C   UNL     1      10.120  -2.961  23.752  0.00  0.00    +0.070 C 
ATOM      2  C   UNL     1       8.670  -3.004  24.071  0.00  0.00    +0.091 A 
ATOM      3  C   UNL     1       7.823  -1.952  24.454  0.00  0.00    +0.170 A 
ATOM      4  C   UNL     1       6.586  -2.511  24.655  0.00  0.00    +0.244 A 
ATOM      5  N   UNL     1       6.699  -3.872  24.332  0.00  0.00    -0.198 N 
ATOM      6  N   UNL     1       8.000  -4.166  24.019  0.00  0.00    -0.166 NA
ENDROOT
BRANCH   5   7
ATOM      7  C   UNL     1       5.665  -4.888  24.360  0.00  0.00    +0.072 A 
ATOM      8  C   UNL     1       5.421  -5.726  25.480  0.00  0.00    -0.023 A 
ATOM      9  C   UNL     1       6.214  -5.713  26.760  0.00  0.00    +0.046 C 
ATOM     10  C   UNL     1       4.342  -6.640  25.434  0.00  0.00    +0.035 A 
ATOM     11  C   UNL     1       3.522  -6.731  24.311  0.00  0.00    +0.117 A 
ATOM     12  C   UNL     1       3.766  -5.948  23.196  0.00  0.00    +0.031 A 
ATOM     13  C   UNL     1       4.835  -5.048  23.226  0.00  0.00    +0.030 A 
BRANCH  11  14
ATOM     14  S   UNL     1       2.128  -7.819  24.347  0.00  0.00    +0.110 S 
ATOM     15  O   UNL     1       1.776  -8.141  22.993  0.00  0.00    -0.142 OA
ATOM     16  O   UNL     1       1.163  -7.290  25.294  0.00  0.00    -0.142 OA
BRANCH  14  17
ATOM     17  O   UNL     1       2.703  -9.151  25.057  0.00  0.00    -0.250 OA
ATOM     18  H   UNL     1       2.959  -8.906  25.972  0.00  0.00    +0.245 HD
ENDBRANCH  14  17
ENDBRANCH  11  14
ENDBRANCH   5   7
BRANCH   3  19
ATOM     19  N   UNL     1       8.035  -0.580  24.627  0.00  0.00    -0.142 NA
ATOM     20  N   UNL     1       7.337   0.203  23.949  0.00  0.00    -0.148 NA
BRANCH  20  21
ATOM     21  C   UNL     1       7.600   1.539  24.353  0.00  0.00    +0.102 A 
ATOM     22  C   UNL     1       8.234   2.470  23.507  0.00  0.00    +0.086 A 
ATOM     23  C   UNL     1       8.491   3.780  23.965  0.00  0.00    +0.019 A 
ATOM     24  C   UNL     1       8.104   4.182  25.244  0.00  0.00    +0.030 A 
ATOM     25  C   UNL     1       7.441   3.275  26.064  0.00  0.00    +0.119 A 
ATOM     26  C   UNL     1       7.186   1.972  25.630  0.00  0.00    +0.060 A 
BRANCH  25  27
ATOM     27  S   UNL     1       6.872   3.805  27.657  0.00  0.00    +0.110 S 
ATOM     28  O   UNL     1       5.435   3.657  27.674  0.00  0.00    -0.142 OA
ATOM     29  O   UNL     1       7.527   5.055  27.972  0.00  0.00    -0.142 OA
BRANCH  27  30
ATOM     30  O   UNL     1       7.518   2.724  28.663  0.00  0.00    -0.250 OA
ATOM     31  H   UNL     1       8.245   2.269  28.188  0.00  0.00    +0.245 HD
ENDBRANCH  27  30
ENDBRANCH  25  27
BRANCH  22  32
ATOM     32  C   UNL     1       8.636   2.181  22.104  0.00  0.00    +0.339 C 
ATOM     33  O   UNL     1       7.819   1.900  21.248  0.00  0.00    -0.245 OA
BRANCH  32  34
ATOM     34  O   UNL     1       9.951   2.313  21.833  0.00  0.00    -0.477 OA
ATOM     35  H   UNL     1      10.538   2.333  22.614  0.00  0.00    +0.295 HD
ENDBRANCH  32  34
ENDBRANCH  22  32
ENDBRANCH  20  21
ENDBRANCH   3  19
BRANCH   4  36
ATOM     36  O   UNL     1       5.472  -1.935  25.112  0.00  0.00    -0.491 OA
ATOM     37  H   UNL     1       4.852  -2.646  25.354  0.00  0.00    +0.294 HD
ENDBRANCH   4  36
TORSDOF 10
ENDMDL
MODEL 8
REMARK VINA RESULT:      -7.1      2.642     10.212
REMARK  Name = 
REMARK  12 active torsions:
REMARK  status: ('A' for Active; 'I' for Inactive)
REMARK    1  A    between atoms: C_1  and  C_2
REMARK    2  A    between atoms: N_4  and  C_23
REMARK    3  A    between atoms: C_5  and  O_6
REMARK    4  A    between atoms: C_7  and  N_8
REMARK    5  A    between atoms: N_9  and  C_10
REMARK    6  A    between atoms: C_12  and  S_19
REMARK    7  A    between atoms: C_15  and  C_16
REMARK    8  A    between atoms: C_16  and  O_17
REMARK    9  A    between atoms: S_19  and  O_20
REMARK   10  A    between atoms: C_26  and  S_30
REMARK   11  A    between atoms: C_28  and  C_29
REMARK   12  A    between atoms: S_30  and  O_31
REMARK                            x       y       z     vdW  Elec       q    Type
REMARK                         _______ _______ _______ _____ _____    ______ ____
ROOT
ATOM      1  C   UNL     1       9.480  -1.114  21.482  0.00  0.00    +0.070 C 
ATOM      2  C   UNL     1       8.924  -1.065  22.858  0.00  0.00    +0.091 A 
ATOM      3  C   UNL     1       8.766   0.044  23.703  0.00  0.00    +0.170 A 
ATOM      4  C   UNL     1       8.231  -0.439  24.872  0.00  0.00    +0.244 A 
ATOM      5  N   UNL     1       8.023  -1.813  24.685  0.00  0.00    -0.198 N 
ATOM      6  N   UNL     1       8.499  -2.190  23.456  0.00  0.00    -0.166 NA
ENDROOT
BRANCH   5   7
ATOM      7  C   UNL     1       7.459  -2.769  25.618  0.00  0.00    +0.072 A 
ATOM      8  C   UNL     1       6.099  -2.757  26.024  0.00  0.00    -0.023 A 
ATOM      9  C   UNL     1       5.073  -1.744  25.587  0.00  0.00    +0.046 C 
ATOM     10  C   UNL     1       5.628  -3.776  26.886  0.00  0.00    +0.035 A 
ATOM     11  C   UNL     1       6.477  -4.782  27.343  0.00  0.00    +0.117 A 
ATOM     12  C   UNL     1       7.814  -4.789  26.987  0.00  0.00    +0.031 A 
ATOM     13  C   UNL     1       8.293  -3.783  26.144  0.00  0.00    +0.030 A 
BRANCH  11  14
ATOM     14  S   UNL     1       5.812  -6.086  28.337  0.00  0.00    +0.110 S 
ATOM     15  O   UNL     1       4.687  -5.566  29.062  0.00  0.00    -0.142 OA
ATOM     16  O   UNL     1       6.915  -6.762  28.995  0.00  0.00    -0.142 OA
BRANCH  14  17
ATOM     17  O   UNL     1       5.272  -7.153  27.251  0.00  0.00    -0.250 OA
ATOM     18  H   UNL     1       5.407  -8.048  27.630  0.00  0.00    +0.245 HD
ENDBRANCH  14  17
ENDBRANCH  11  14
ENDBRANCH   5   7
BRANCH   3  19
ATOM     19  N   UNL     1       9.033   1.407  23.538  0.00  0.00    -0.142 NA
ATOM     20  N   UNL     1       8.063   2.193  23.562  0.00  0.00    -0.148 NA
BRANCH  20  21
ATOM     21  C   UNL     1       8.540   3.531  23.509  0.00  0.00    +0.102 A 
ATOM     22  C   UNL     1       7.671   4.638  23.465  0.00  0.00    +0.086 A 
ATOM     23  C   UNL     1       8.196   5.946  23.393  0.00  0.00    +0.019 A 
ATOM     24  C   UNL     1       9.573   6.167  23.388  0.00  0.00    +0.030 A 
ATOM     25  C   UNL     1      10.432   5.076  23.474  0.00  0.00    +0.119 A 
ATOM     26  C   UNL     1       9.929   3.774  23.537  0.00  0.00    +0.060 A 
BRANCH  25  27
ATOM     27  S   UNL     1      12.180   5.354  23.554  0.00  0.00    +0.110 S 
ATOM     28  O   UNL     1      12.820   4.064  23.664  0.00  0.00    -0.142 OA
ATOM     29  O   UNL     1      12.419   6.421  24.501  0.00  0.00    -0.142 OA
BRANCH  27  30
ATOM     30  O   UNL     1      12.526   5.984  22.112  0.00  0.00    -0.250 OA
ATOM     31  H   UNL     1      13.180   5.397  21.677  0.00  0.00    +0.245 HD
ENDBRANCH  27  30
ENDBRANCH  25  27
BRANCH  22  32
ATOM     32  C   UNL     1       6.188   4.536  23.527  0.00  0.00    +0.339 C 
ATOM     33  O   UNL     1       5.594   4.476  24.587  0.00  0.00    -0.245 OA
BRANCH  32  34
ATOM     34  O   UNL     1       5.548   4.576  22.341  0.00  0.00    -0.477 OA
ATOM     35  H   UNL     1       5.960   4.054  21.626  0.00  0.00    +0.295 HD
ENDBRANCH  32  34
ENDBRANCH  22  32
ENDBRANCH  20  21
ENDBRANCH   3  19
BRANCH   4  36
ATOM     36  O   UNL     1       7.981   0.214  26.009  0.00  0.00    -0.491 OA
ATOM     37  H   UNL     1       7.557  -0.416  26.620  0.00  0.00    +0.294 HD
ENDBRANCH   4  36
TORSDOF 10
ENDMDL
MODEL 9
REMARK VINA RESULT:      -7.1      2.441      9.944
REMARK  Name = 
REMARK  12 active torsions:
REMARK  status: ('A' for Active; 'I' for Inactive)
REMARK    1  A    between atoms: C_1  and  C_2
REMARK    2  A    between atoms: N_4  and  C_23
REMARK    3  A    between atoms: C_5  and  O_6
REMARK    4  A    between atoms: C_7  and  N_8
REMARK    5  A    between atoms: N_9  and  C_10
REMARK    6  A    between atoms: C_12  and  S_19
REMARK    7  A    between atoms: C_15  and  C_16
REMARK    8  A    between atoms: C_16  and  O_17
REMARK    9  A    between atoms: S_19  and  O_20
REMARK   10  A    between atoms: C_26  and  S_30
REMARK   11  A    between atoms: C_28  and  C_29
REMARK   12  A    between atoms: S_30  and  O_31
REMARK                            x       y       z     vdW  Elec       q    Type
REMARK                         _______ _______ _______ _____ _____    ______ ____
ROOT
ATOM      1  C   UNL     1       9.453  -1.164  21.864  0.00  0.00    +0.070 C 
ATOM      2  C   UNL     1       8.204  -1.398  22.633  0.00  0.00    +0.091 A 
ATOM      3  C   UNL     1       7.337  -0.455  23.206  0.00  0.00    +0.170 A 
ATOM      4  C   UNL     1       6.345  -1.175  23.826  0.00  0.00    +0.244 A 
ATOM      5  N   UNL     1       6.603  -2.528  23.563  0.00  0.00    -0.198 N 
ATOM      6  N   UNL     1       7.777  -2.649  22.866  0.00  0.00    -0.166 NA
ENDROOT
BRANCH   5   7
ATOM      7  C   UNL     1       5.833  -3.684  23.980  0.00  0.00    +0.072 A 
ATOM      8  C   UNL     1       6.182  -4.498  25.091  0.00  0.00    -0.023 A 
ATOM      9  C   UNL     1       7.401  -4.308  25.954  0.00  0.00    +0.046 C 
ATOM     10  C   UNL     1       5.326  -5.562  25.460  0.00  0.00    +0.035 A 
ATOM     11  C   UNL     1       4.156  -5.826  24.750  0.00  0.00    +0.117 A 
ATOM     12  C   UNL     1       3.819  -5.067  23.643  0.00  0.00    +0.031 A 
ATOM     13  C   UNL     1       4.660  -4.018  23.263  0.00  0.00    +0.030 A 
BRANCH  11  14
ATOM     14  S   UNL     1       3.074  -7.105  25.316  0.00  0.00    +0.110 S 
ATOM     15  O   UNL     1       3.290  -8.267  24.501  0.00  0.00    -0.142 OA
ATOM     16  O   UNL     1       1.756  -6.531  25.514  0.00  0.00    -0.142 OA
BRANCH  14  17
ATOM     17  O   UNL     1       3.606  -7.420  26.808  0.00  0.00    -0.250 OA
ATOM     18  H   UNL     1       3.653  -6.566  27.288  0.00  0.00    +0.245 HD
ENDBRANCH  14  17
ENDBRANCH  11  14
ENDBRANCH   5   7
BRANCH   3  19
ATOM     19  N   UNL     1       7.334   0.944  23.222  0.00  0.00    -0.142 NA
ATOM     20  N   UNL     1       6.318   1.525  22.787  0.00  0.00    -0.148 NA
BRANCH  20  21
ATOM     21  C   UNL     1       6.446   2.923  23.004  0.00  0.00    +0.102 A 
ATOM     22  C   UNL     1       5.353   3.805  22.896  0.00  0.00    +0.086 A 
ATOM     23  C   UNL     1       5.539   5.189  23.101  0.00  0.00    +0.019 A 
ATOM     24  C   UNL     1       6.792   5.704  23.434  0.00  0.00    +0.030 A 
ATOM     25  C   UNL     1       7.863   4.828  23.582  0.00  0.00    +0.119 A 
ATOM     26  C   UNL     1       7.699   3.456  23.374  0.00  0.00    +0.060 A 
BRANCH  25  27
ATOM     27  S   UNL     1       9.438   5.464  24.088  0.00  0.00    +0.110 S 
ATOM     28  O   UNL     1       9.393   5.644  25.520  0.00  0.00    -0.142 OA
ATOM     29  O   UNL     1       9.799   6.533  23.183  0.00  0.00    -0.142 OA
BRANCH  27  30
ATOM     30  O   UNL     1      10.455   4.262  23.746  0.00  0.00    -0.250 OA
ATOM     31  H   UNL     1      11.368   4.615  23.807  0.00  0.00    +0.245 HD
ENDBRANCH  27  30
ENDBRANCH  25  27
BRANCH  22  32
ATOM     32  C   UNL     1       3.960   3.372  22.609  0.00  0.00    +0.339 C 
ATOM     33  O   UNL     1       3.392   3.679  21.577  0.00  0.00    -0.245 OA
BRANCH  32  34
ATOM     34  O   UNL     1       3.394   2.571  23.534  0.00  0.00    -0.477 OA
ATOM     35  H   UNL     1       3.625   2.774  24.461  0.00  0.00    +0.295 HD
ENDBRANCH  32  34
ENDBRANCH  22  32
ENDBRANCH  20  21
ENDBRANCH   3  19
BRANCH   4  36
ATOM     36  O   UNL     1       5.338  -0.732  24.582  0.00  0.00    -0.491 OA
ATOM     37  H   UNL     1       4.556  -0.650  24.008  0.00  0.00    +0.294 HD
ENDBRANCH   4  36
TORSDOF 10
ENDMDL
