MODEL 1
REMARK VINA RESULT:      -6.1      0.000      0.000
REMARK  Name = 
REMARK  11 active torsions:
REMARK  status: ('A' for Active; 'I' for Inactive)
REMARK    1  A    between atoms: C_1  and  O_2
REMARK    2  A    between atoms: O_2  and  C_3
REMARK    3  A    between atoms: C_7  and  O_8
REMARK    4  A    between atoms: O_8  and  C_9
REMARK    5  A    between atoms: C_10  and  C_11
REMARK    6  A    between atoms: C_11  and  N_12
REMARK    7  A    between atoms: C_15  and  N_18
REMARK    8  A    between atoms: C_19  and  C_21
REMARK    9  A    between atoms: C_21  and  C_22
REMARK   10  A    between atoms: C_22  and  C_23
REMARK   11  A    between atoms: C_23  and  S_24
REMARK                            x       y       z     vdW  Elec       q    Type
REMARK                         _______ _______ _______ _____ _____    ______ ____
ROOT
ATOM      1  N   UNL     1       7.426  -3.324  24.560  0.00  0.00    -0.298 NA
ATOM      2  C   UNL     1       7.091  -2.315  23.540  0.00  0.00    +0.086 C 
ATOM      3  C   UNL     1       8.181  -1.939  22.519  0.00  0.00    +0.037 C 
ATOM      4  C   UNL     1       9.595  -1.804  23.108  0.00  0.00    +0.075 C 
ATOM      5  C   UNL     1       9.863  -2.946  24.073  0.00  0.00    +0.037 C 
ATOM      6  C   UNL     1       8.748  -3.012  25.133  0.00  0.00    +0.086 C 
ENDROOT
BRANCH   4   7
ATOM      7  N   UNL     1       9.825  -0.537  23.815  0.00  0.00    -0.312 N 
ATOM      8  H   UNL     1      10.088  -0.596  24.784  0.00  0.00    +0.149 HD
ATOM      9  C   UNL     1      10.094   0.643  23.170  0.00  0.00    +0.213 C 
ATOM     10  O   UNL     1      10.143   0.771  21.953  0.00  0.00    -0.276 OA
BRANCH   9  11
ATOM     11  C   UNL     1      10.354   1.781  24.141  0.00  0.00    +0.096 C 
BRANCH  11  12
ATOM     12  C   UNL     1      10.587   3.076  23.377  0.00  0.00    +0.020 C 
BRANCH  12  13
ATOM     13  C   UNL     1       9.624   4.165  23.815  0.00  0.00    +0.066 C 
BRANCH  13  14
ATOM     14  S   UNL     1      10.483   5.761  23.853  0.00  0.00    -0.178 S 
ATOM     15  H   UNL     1      11.377   5.473  22.894  0.00  0.00    +0.102 HD
ENDBRANCH  13  14
ENDBRANCH  12  13
ENDBRANCH  11  12
ENDBRANCH   9  11
ENDBRANCH   4   7
BRANCH   1  16
ATOM     16  C   UNL     1       7.413  -4.749  24.156  0.00  0.00    +0.127 C 
BRANCH  16  18
ATOM     17  C   UNL     1       5.208  -5.564  23.118  0.00  0.00    +0.128 A 
ATOM     18  C   UNL     1       6.121  -5.542  24.191  0.00  0.00    +0.050 A 
ATOM     19  C   UNL     1       5.698  -6.078  25.436  0.00  0.00    +0.128 A 
ATOM     20  C   UNL     1       4.397  -6.567  25.602  0.00  0.00    +0.046 A 
ATOM     21  C   UNL     1       3.505  -6.563  24.538  0.00  0.00    +0.007 A 
ATOM     22  C   UNL     1       3.912  -6.069  23.303  0.00  0.00    +0.046 A 
BRANCH  17  24
ATOM     23  C   UNL     1       6.169  -5.602  20.948  0.00  0.00    +0.277 C 
ATOM     24  O   UNL     1       5.366  -4.932  21.912  0.00  0.00    -0.495 OA
ENDBRANCH  17  24
BRANCH  19  25
ATOM     25  O   UNL     1       6.574  -5.968  26.487  0.00  0.00    -0.495 OA
ATOM     26  C   UNL     1       6.119  -5.224  27.612  0.00  0.00    +0.277 C 
ENDBRANCH  19  25
ENDBRANCH  16  18
ENDBRANCH   1  16
TORSDOF 9
ENDMDL
MODEL 2
REMARK VINA RESULT:      -6.0      1.202      2.967
REMARK  Name = 
REMARK  11 active torsions:
REMARK  status: ('A' for Active; 'I' for Inactive)
REMARK    1  A    between atoms: C_1  and  O_2
REMARK    2  A    between atoms: O_2  and  C_3
REMARK    3  A    between atoms: C_7  and  O_8
REMARK    4  A    between atoms: O_8  and  C_9
REMARK    5  A    between atoms: C_10  and  C_11
REMARK    6  A    between atoms: C_11  and  N_12
REMARK    7  A    between atoms: C_15  and  N_18
REMARK    8  A    between atoms: C_19  and  C_21
REMARK    9  A    between atoms: C_21  and  C_22
REMARK   10  A    between atoms: C_22  and  C_23
REMARK   11  A    between atoms: C_23  and  S_24
REMARK                            x       y       z     vdW  Elec       q    Type
REMARK                         _______ _______ _______ _____ _____    ______ ____
ROOT
ATOM      1  N   UNL     1       8.701  -3.254  25.020  0.00  0.00    -0.298 NA
ATOM      2  C   UNL     1       7.617  -2.278  25.224  0.00  0.00    +0.086 C 
ATOM      3  C   UNL     1       7.035  -1.585  23.976  0.00  0.00    +0.037 C 
ATOM      4  C   UNL     1       8.077  -1.171  22.925  0.00  0.00    +0.075 C 
ATOM      5  C   UNL     1       9.087  -2.289  22.732  0.00  0.00    +0.037 C 
ATOM      6  C   UNL     1       9.694  -2.689  24.090  0.00  0.00    +0.086 C 
ENDROOT
BRANCH   4   7
ATOM      7  N   UNL     1       8.805   0.058  23.263  0.00  0.00    -0.312 N 
ATOM      8  H   UNL     1       9.259   0.089  24.159  0.00  0.00    +0.149 HD
ATOM      9  C   UNL     1       9.232   0.960  22.320  0.00  0.00    +0.213 C 
ATOM     10  O   UNL     1       9.030   0.851  21.118  0.00  0.00    -0.276 OA
BRANCH   9  11
ATOM     11  C   UNL     1      10.014   2.106  22.937  0.00  0.00    +0.096 C 
BRANCH  11  12
ATOM     12  C   UNL     1       9.368   2.531  24.248  0.00  0.00    +0.020 C 
BRANCH  12  13
ATOM     13  C   UNL     1       9.018   4.008  24.246  0.00  0.00    +0.066 C 
BRANCH  13  14
ATOM     14  S   UNL     1       7.627   4.307  23.124  0.00  0.00    -0.178 S 
ATOM     15  H   UNL     1       8.356   4.405  22.001  0.00  0.00    +0.102 HD
ENDBRANCH  13  14
ENDBRANCH  12  13
ENDBRANCH  11  12
ENDBRANCH   9  11
ENDBRANCH   4   7
BRANCH   1  16
ATOM     16  C   UNL     1       8.333  -4.610  24.550  0.00  0.00    +0.127 C 
BRANCH  16  18
ATOM     17  C   UNL     1       6.460  -5.679  25.947  0.00  0.00    +0.128 A 
ATOM     18  C   UNL     1       6.921  -5.127  24.734  0.00  0.00    +0.050 A 
ATOM     19  C   UNL     1       6.111  -5.292  23.579  0.00  0.00    +0.128 A 
ATOM     20  C   UNL     1       4.919  -6.022  23.635  0.00  0.00    +0.046 A 
ATOM     21  C   UNL     1       4.491  -6.574  24.835  0.00  0.00    +0.007 A 
ATOM     22  C   UNL     1       5.255  -6.398  25.983  0.00  0.00    +0.046 A 
BRANCH  17  24
ATOM     23  C   UNL     1       6.426  -5.944  28.306  0.00  0.00    +0.277 C 
ATOM     24  O   UNL     1       7.179  -5.784  27.109  0.00  0.00    -0.495 OA
ENDBRANCH  17  24
BRANCH  19  25
ATOM     25  O   UNL     1       6.622  -4.821  22.395  0.00  0.00    -0.495 OA
ATOM     26  C   UNL     1       6.635  -5.737  21.305  0.00  0.00    +0.277 C 
ENDBRANCH  19  25
ENDBRANCH  16  18
ENDBRANCH   1  16
TORSDOF 9
ENDMDL
MODEL 3
REMARK VINA RESULT:      -6.0      0.862      2.705
REMARK  Name = 
REMARK  11 active torsions:
REMARK  status: ('A' for Active; 'I' for Inactive)
REMARK    1  A    between atoms: C_1  and  O_2
REMARK    2  A    between atoms: O_2  and  C_3
REMARK    3  A    between atoms: C_7  and  O_8
REMARK    4  A    between atoms: O_8  and  C_9
REMARK    5  A    between atoms: C_10  and  C_11
REMARK    6  A    between atoms: C_11  and  N_12
REMARK    7  A    between atoms: C_15  and  N_18
REMARK    8  A    between atoms: C_19  and  C_21
REMARK    9  A    between atoms: C_21  and  C_22
REMARK   10  A    between atoms: C_22  and  C_23
REMARK   11  A    between atoms: C_23  and  S_24
REMARK                            x       y       z     vdW  Elec       q    Type
REMARK                         _______ _______ _______ _____ _____    ______ ____
ROOT
ATOM      1  N   UNL     1       7.365  -3.111  24.488  0.00  0.00    -0.298 NA
ATOM      2  C   UNL     1       7.166  -2.103  23.432  0.00  0.00    +0.086 C 
ATOM      3  C   UNL     1       8.325  -1.862  22.446  0.00  0.00    +0.037 C 
ATOM      4  C   UNL     1       9.723  -1.848  23.085  0.00  0.00    +0.075 C 
ATOM      5  C   UNL     1       9.843  -2.985  24.085  0.00  0.00    +0.037 C 
ATOM      6  C   UNL     1       8.690  -2.914  25.103  0.00  0.00    +0.086 C 
ENDROOT
BRANCH   4   7
ATOM      7  N   UNL     1      10.050  -0.591  23.770  0.00  0.00    -0.312 N 
ATOM      8  H   UNL     1      10.435  -0.663  24.696  0.00  0.00    +0.149 HD
ATOM      9  C   UNL     1      10.241   0.596  23.108  0.00  0.00    +0.213 C 
ATOM     10  O   UNL     1      10.132   0.738  21.897  0.00  0.00    -0.276 OA
BRANCH   9  11
ATOM     11  C   UNL     1      10.631   1.720  24.051  0.00  0.00    +0.096 C 
BRANCH  11  12
ATOM     12  C   UNL     1      10.213   3.061  23.464  0.00  0.00    +0.020 C 
BRANCH  12  13
ATOM     13  C   UNL     1       8.841   3.484  23.954  0.00  0.00    +0.066 C 
BRANCH  13  14
ATOM     14  S   UNL     1       7.657   3.431  22.582  0.00  0.00    -0.178 S 
ATOM     15  H   UNL     1       7.843   2.138  22.273  0.00  0.00    +0.102 HD
ENDBRANCH  13  14
ENDBRANCH  12  13
ENDBRANCH  11  12
ENDBRANCH   9  11
ENDBRANCH   4   7
BRANCH   1  16
ATOM     16  C   UNL     1       7.227  -4.538  24.117  0.00  0.00    +0.127 C 
BRANCH  16  18
ATOM     17  C   UNL     1       5.677  -5.955  25.599  0.00  0.00    +0.128 A 
ATOM     18  C   UNL     1       5.932  -5.278  24.389  0.00  0.00    +0.050 A 
ATOM     19  C   UNL     1       5.051  -5.509  23.300  0.00  0.00    +0.128 A 
ATOM     20  C   UNL     1       3.993  -6.417  23.412  0.00  0.00    +0.046 A 
ATOM     21  C   UNL     1       3.768  -7.089  24.606  0.00  0.00    +0.007 A 
ATOM     22  C   UNL     1       4.603  -6.853  25.693  0.00  0.00    +0.046 A 
BRANCH  17  24
ATOM     23  C   UNL     1       6.301  -5.018  27.689  0.00  0.00    +0.277 C 
ATOM     24  O   UNL     1       6.510  -6.005  26.686  0.00  0.00    -0.495 OA
ENDBRANCH  17  24
BRANCH  19  25
ATOM     25  O   UNL     1       5.370  -4.905  22.108  0.00  0.00    -0.495 OA
ATOM     26  C   UNL     1       6.038  -5.718  21.149  0.00  0.00    +0.277 C 
ENDBRANCH  19  25
ENDBRANCH  16  18
ENDBRANCH   1  16
TORSDOF 9
ENDMDL
MODEL 4
REMARK VINA RESULT:      -5.9      1.350      1.505
REMARK  Name = 
REMARK  11 active torsions:
REMARK  status: ('A' for Active; 'I' for Inactive)
REMARK    1  A    between atoms: C_1  and  O_2
REMARK    2  A    between atoms: O_2  and  C_3
REMARK    3  A    between atoms: C_7  and  O_8
REMARK    4  A    between atoms: O_8  and  C_9
REMARK    5  A    between atoms: C_10  and  C_11
REMARK    6  A    between atoms: C_11  and  N_12
REMARK    7  A    between atoms: C_15  and  N_18
REMARK    8  A    between atoms: C_19  and  C_21
REMARK    9  A    between atoms: C_21  and  C_22
REMARK   10  A    between atoms: C_22  and  C_23
REMARK   11  A    between atoms: C_23  and  S_24
REMARK                            x       y       z     vdW  Elec       q    Type
REMARK                         _______ _______ _______ _____ _____    ______ ____
ROOT
ATOM      1  N   UNL     1       7.354  -3.211  23.513  0.00  0.00    -0.298 NA
ATOM      2  C   UNL     1       8.374  -2.635  22.619  0.00  0.00    +0.086 C 
ATOM      3  C   UNL     1       9.711  -2.198  23.248  0.00  0.00    +0.037 C 
ATOM      4  C   UNL     1       9.582  -1.491  24.607  0.00  0.00    +0.075 C 
ATOM      5  C   UNL     1       8.575  -2.224  25.475  0.00  0.00    +0.037 C 
ATOM      6  C   UNL     1       7.241  -2.375  24.721  0.00  0.00    +0.086 C 
ENDROOT
BRANCH   4   7
ATOM      7  N   UNL     1       9.172  -0.084  24.509  0.00  0.00    -0.312 N 
ATOM      8  H   UNL     1       8.216   0.130  24.734  0.00  0.00    +0.149 HD
ATOM      9  C   UNL     1      10.063   0.959  24.528  0.00  0.00    +0.213 C 
ATOM     10  O   UNL     1      11.278   0.831  24.600  0.00  0.00    -0.276 OA
BRANCH   9  11
ATOM     11  C   UNL     1       9.366   2.307  24.476  0.00  0.00    +0.096 C 
BRANCH  11  12
ATOM     12  C   UNL     1       9.459   2.888  23.072  0.00  0.00    +0.020 C 
BRANCH  12  13
ATOM     13  C   UNL     1       8.179   2.662  22.287  0.00  0.00    +0.066 C 
BRANCH  13  14
ATOM     14  S   UNL     1       7.045   4.050  22.554  0.00  0.00    -0.178 S 
ATOM     15  H   UNL     1       7.952   4.885  23.086  0.00  0.00    +0.102 HD
ENDBRANCH  13  14
ENDBRANCH  12  13
ENDBRANCH  11  12
ENDBRANCH   9  11
ENDBRANCH   4   7
BRANCH   1  16
ATOM     16  C   UNL     1       7.516  -4.623  23.931  0.00  0.00    +0.127 C 
BRANCH  16  18
ATOM     17  C   UNL     1       5.316  -5.677  23.125  0.00  0.00    +0.128 A 
ATOM     18  C   UNL     1       6.302  -5.510  24.119  0.00  0.00    +0.050 A 
ATOM     19  C   UNL     1       6.017  -5.989  25.425  0.00  0.00    +0.128 A 
ATOM     20  C   UNL     1       4.778  -6.565  25.724  0.00  0.00    +0.046 A 
ATOM     21  C   UNL     1       3.812  -6.704  24.737  0.00  0.00    +0.007 A 
ATOM     22  C   UNL     1       4.084  -6.268  23.445  0.00  0.00    +0.046 A 
BRANCH  17  24
ATOM     23  C   UNL     1       6.118  -5.789  20.894  0.00  0.00    +0.277 C 
ATOM     24  O   UNL     1       5.331  -5.121  21.873  0.00  0.00    -0.495 OA
ENDBRANCH  17  24
BRANCH  19  25
ATOM     25  O   UNL     1       6.957  -5.737  26.393  0.00  0.00    -0.495 OA
ATOM     26  C   UNL     1       6.511  -5.006  27.530  0.00  0.00    +0.277 C 
ENDBRANCH  19  25
ENDBRANCH  16  18
ENDBRANCH   1  16
TORSDOF 9
ENDMDL
MODEL 5
REMARK VINA RESULT:      -5.9      3.657      9.072
REMARK  Name = 
REMARK  11 active torsions:
REMARK  status: ('A' for Active; 'I' for Inactive)
REMARK    1  A    between atoms: C_1  and  O_2
REMARK    2  A    between atoms: O_2  and  C_3
REMARK    3  A    between atoms: C_7  and  O_8
REMARK    4  A    between atoms: O_8  and  C_9
REMARK    5  A    between atoms: C_10  and  C_11
REMARK    6  A    between atoms: C_11  and  N_12
REMARK    7  A    between atoms: C_15  and  N_18
REMARK    8  A    between atoms: C_19  and  C_21
REMARK    9  A    between atoms: C_21  and  C_22
REMARK   10  A    between atoms: C_22  and  C_23
REMARK   11  A    between atoms: C_23  and  S_24
REMARK                            x       y       z     vdW  Elec       q    Type
REMARK                         _______ _______ _______ _____ _____    ______ ____
ROOT
ATOM      1  N   UNL     1       8.699   1.555  23.526  0.00  0.00    -0.298 NA
ATOM      2  C   UNL     1       8.996   0.740  24.717  0.00  0.00    +0.086 C 
ATOM      3  C   UNL     1      10.022  -0.400  24.566  0.00  0.00    +0.037 C 
ATOM      4  C   UNL     1       9.909  -1.200  23.258  0.00  0.00    +0.075 C 
ATOM      5  C   UNL     1       9.697  -0.251  22.091  0.00  0.00    +0.037 C 
ATOM      6  C   UNL     1       8.491   0.666  22.369  0.00  0.00    +0.086 C 
ENDROOT
BRANCH   4   7
ATOM      7  N   UNL     1       8.820  -2.185  23.257  0.00  0.00    -0.312 N 
ATOM      8  H   UNL     1       8.099  -2.069  22.566  0.00  0.00    +0.149 HD
ATOM      9  C   UNL     1       8.929  -3.424  23.837  0.00  0.00    +0.213 C 
ATOM     10  O   UNL     1       9.921  -3.823  24.433  0.00  0.00    -0.276 OA
BRANCH   9  11
ATOM     11  C   UNL     1       7.681  -4.263  23.634  0.00  0.00    +0.096 C 
BRANCH  11  12
ATOM     12  C   UNL     1       6.474  -3.360  23.427  0.00  0.00    +0.020 C 
BRANCH  12  13
ATOM     13  C   UNL     1       5.564  -3.885  22.331  0.00  0.00    +0.066 C 
BRANCH  13  14
ATOM     14  S   UNL     1       6.352  -5.291  21.502  0.00  0.00    -0.178 S 
ATOM     15  H   UNL     1       6.386  -6.098  22.574  0.00  0.00    +0.102 HD
ENDBRANCH  13  14
ENDBRANCH  12  13
ENDBRANCH  11  12
ENDBRANCH   9  11
ENDBRANCH   4   7
BRANCH   1  16
ATOM     16  C   UNL     1       9.673   2.604  23.144  0.00  0.00    +0.127 C 
BRANCH  16  18
ATOM     17  C   UNL     1       8.314   4.610  23.999  0.00  0.00    +0.128 A 
ATOM     18  C   UNL     1       9.554   4.003  23.715  0.00  0.00    +0.050 A 
ATOM     19  C   UNL     1      10.714   4.821  23.730  0.00  0.00    +0.128 A 
ATOM     20  C   UNL     1      10.620   6.196  23.971  0.00  0.00    +0.046 A 
ATOM     21  C   UNL     1       9.388   6.780  24.231  0.00  0.00    +0.007 A 
ATOM     22  C   UNL     1       8.244   5.989  24.250  0.00  0.00    +0.046 A 
BRANCH  17  24
ATOM     23  C   UNL     1       6.361   4.371  22.670  0.00  0.00    +0.277 C 
ATOM     24  O   UNL     1       7.080   4.032  23.851  0.00  0.00    -0.495 OA
ENDBRANCH  17  24
BRANCH  19  25
ATOM     25  O   UNL     1      11.896   4.225  23.366  0.00  0.00    -0.495 OA
ATOM     26  C   UNL     1      12.999   5.095  23.144  0.00  0.00    +0.277 C 
ENDBRANCH  19  25
ENDBRANCH  16  18
ENDBRANCH   1  16
TORSDOF 9
ENDMDL
MODEL 6
REMARK VINA RESULT:      -5.8      3.965      9.794
REMARK  Name = 
REMARK  11 active torsions:
REMARK  status: ('A' for Active; 'I' for Inactive)
REMARK    1  A    between atoms: C_1  and  O_2
REMARK    2  A    between atoms: O_2  and  C_3
REMARK    3  A    between atoms: C_7  and  O_8
REMARK    4  A    between atoms: O_8  and  C_9
REMARK    5  A    between atoms: C_10  and  C_11
REMARK    6  A    between atoms: C_11  and  N_12
REMARK    7  A    between atoms: C_15  and  N_18
REMARK    8  A    between atoms: C_19  and  C_21
REMARK    9  A    between atoms: C_21  and  C_22
REMARK   10  A    between atoms: C_22  and  C_23
REMARK   11  A    between atoms: C_23  and  S_24
REMARK                            x       y       z     vdW  Elec       q    Type
REMARK                         _______ _______ _______ _____ _____    ______ ____
ROOT
ATOM      1  N   UNL     1       8.683   3.279  23.978  0.00  0.00    -0.298 NA
ATOM      2  C   UNL     1       9.816   2.421  24.367  0.00  0.00    +0.086 C 
ATOM      3  C   UNL     1      10.507   1.603  23.260  0.00  0.00    +0.037 C 
ATOM      4  C   UNL     1       9.552   0.971  22.234  0.00  0.00    +0.075 C 
ATOM      5  C   UNL     1       8.483   1.976  21.839  0.00  0.00    +0.037 C 
ATOM      6  C   UNL     1       7.780   2.519  23.096  0.00  0.00    +0.086 C 
ENDROOT
BRANCH   4   7
ATOM      7  N   UNL     1       8.887  -0.247  22.714  0.00  0.00    -0.312 N 
ATOM      8  H   UNL     1       7.888  -0.211  22.819  0.00  0.00    +0.149 HD
ATOM      9  C   UNL     1       9.459  -1.492  22.638  0.00  0.00    +0.213 C 
ATOM     10  O   UNL     1      10.578  -1.714  22.196  0.00  0.00    -0.276 OA
BRANCH   9  11
ATOM     11  C   UNL     1       8.530  -2.581  23.146  0.00  0.00    +0.096 C 
BRANCH  11  12
ATOM     12  C   UNL     1       7.362  -2.758  22.187  0.00  0.00    +0.020 C 
BRANCH  12  13
ATOM     13  C   UNL     1       6.786  -4.161  22.259  0.00  0.00    +0.066 C 
BRANCH  13  14
ATOM     14  S   UNL     1       7.638  -5.106  23.550  0.00  0.00    -0.178 S 
ATOM     15  H   UNL     1       7.058  -6.286  23.279  0.00  0.00    +0.102 HD
ENDBRANCH  13  14
ENDBRANCH  12  13
ENDBRANCH  11  12
ENDBRANCH   9  11
ENDBRANCH   4   7
BRANCH   1  16
ATOM     16  C   UNL     1       8.987   4.577  23.334  0.00  0.00    +0.127 C 
BRANCH  16  18
ATOM     17  C   UNL     1      11.252   5.701  23.793  0.00  0.00    +0.128 A 
ATOM     18  C   UNL     1       9.868   5.593  24.035  0.00  0.00    +0.050 A 
ATOM     19  C   UNL     1       9.332   6.287  25.151  0.00  0.00    +0.128 A 
ATOM     20  C   UNL     1      10.163   7.015  26.010  0.00  0.00    +0.046 A 
ATOM     21  C   UNL     1      11.527   7.095  25.767  0.00  0.00    +0.007 A 
ATOM     22  C   UNL     1      12.066   6.445  24.660  0.00  0.00    +0.046 A 
BRANCH  17  24
ATOM     23  C   UNL     1      13.273   5.446  22.573  0.00  0.00    +0.277 C 
ATOM     24  O   UNL     1      11.972   4.964  22.889  0.00  0.00    -0.495 OA
ENDBRANCH  17  24
BRANCH  19  25
ATOM     25  O   UNL     1       7.999   6.097  25.416  0.00  0.00    -0.495 OA
ATOM     26  C   UNL     1       7.665   5.745  26.753  0.00  0.00    +0.277 C 
ENDBRANCH  19  25
ENDBRANCH  16  18
ENDBRANCH   1  16
TORSDOF 9
ENDMDL
MODEL 7
REMARK VINA RESULT:      -5.6      1.990      2.653
REMARK  Name = 
REMARK  11 active torsions:
REMARK  status: ('A' for Active; 'I' for Inactive)
REMARK    1  A    between atoms: C_1  and  O_2
REMARK    2  A    between atoms: O_2  and  C_3
REMARK    3  A    between atoms: C_7  and  O_8
REMARK    4  A    between atoms: O_8  and  C_9
REMARK    5  A    between atoms: C_10  and  C_11
REMARK    6  A    between atoms: C_11  and  N_12
REMARK    7  A    between atoms: C_15  and  N_18
REMARK    8  A    between atoms: C_19  and  C_21
REMARK    9  A    between atoms: C_21  and  C_22
REMARK   10  A    between atoms: C_22  and  C_23
REMARK   11  A    between atoms: C_23  and  S_24
REMARK                            x       y       z     vdW  Elec       q    Type
REMARK                         _______ _______ _______ _____ _____    ______ ____
ROOT
ATOM      1  N   UNL     1       6.147  -1.769  24.474  0.00  0.00    -0.298 NA
ATOM      2  C   UNL     1       6.768  -1.197  23.268  0.00  0.00    +0.086 C 
ATOM      3  C   UNL     1       8.282  -0.912  23.309  0.00  0.00    +0.037 C 
ATOM      4  C   UNL     1       8.789  -0.314  24.631  0.00  0.00    +0.075 C 
ATOM      5  C   UNL     1       8.152  -1.041  25.803  0.00  0.00    +0.037 C 
ATOM      6  C   UNL     1       6.619  -1.031  25.659  0.00  0.00    +0.086 C 
ENDROOT
BRANCH   4   7
ATOM      7  N   UNL     1       8.518   1.122  24.775  0.00  0.00    -0.312 N 
ATOM      8  H   UNL     1       7.832   1.391  25.459  0.00  0.00    +0.149 HD
ATOM      9  C   UNL     1       9.389   2.095  24.354  0.00  0.00    +0.213 C 
ATOM     10  O   UNL     1      10.456   1.874  23.796  0.00  0.00    -0.276 OA
BRANCH   9  11
ATOM     11  C   UNL     1       8.891   3.491  24.683  0.00  0.00    +0.096 C 
BRANCH  11  12
ATOM     12  C   UNL     1       8.134   4.067  23.495  0.00  0.00    +0.020 C 
BRANCH  12  13
ATOM     13  C   UNL     1       8.396   5.554  23.332  0.00  0.00    +0.066 C 
BRANCH  13  14
ATOM     14  S   UNL     1      10.087   5.939  23.856  0.00  0.00    -0.178 S 
ATOM     15  H   UNL     1       9.825   7.171  24.320  0.00  0.00    +0.102 HD
ENDBRANCH  13  14
ENDBRANCH  12  13
ENDBRANCH  11  12
ENDBRANCH   9  11
ENDBRANCH   4   7
BRANCH   1  16
ATOM     16  C   UNL     1       6.322  -3.219  24.723  0.00  0.00    +0.127 C 
BRANCH  16  18
ATOM     17  C   UNL     1       5.362  -4.637  22.807  0.00  0.00    +0.128 A 
ATOM     18  C   UNL     1       6.463  -4.184  23.563  0.00  0.00    +0.050 A 
ATOM     19  C   UNL     1       7.707  -4.845  23.389  0.00  0.00    +0.128 A 
ATOM     20  C   UNL     1       7.822  -5.944  22.531  0.00  0.00    +0.046 A 
ATOM     21  C   UNL     1       6.723  -6.389  21.808  0.00  0.00    +0.007 A 
ATOM     22  C   UNL     1       5.503  -5.734  21.943  0.00  0.00    +0.046 A 
BRANCH  17  24
ATOM     23  C   UNL     1       3.176  -5.229  23.518  0.00  0.00    +0.277 C 
ATOM     24  O   UNL     1       4.057  -4.254  22.973  0.00  0.00    -0.495 OA
ENDBRANCH  17  24
BRANCH  19  25
ATOM     25  O   UNL     1       8.740  -4.442  24.198  0.00  0.00    -0.495 OA
ATOM     26  C   UNL     1       9.224  -5.402  25.129  0.00  0.00    +0.277 C 
ENDBRANCH  19  25
ENDBRANCH  16  18
ENDBRANCH   1  16
TORSDOF 9
ENDMDL
MODEL 8
REMARK VINA RESULT:      -5.4      3.280      8.244
REMARK  Name = 
REMARK  11 active torsions:
REMARK  status: ('A' for Active; 'I' for Inactive)
REMARK    1  A    between atoms: C_1  and  O_2
REMARK    2  A    between atoms: O_2  and  C_3
REMARK    3  A    between atoms: C_7  and  O_8
REMARK    4  A    between atoms: O_8  and  C_9
REMARK    5  A    between atoms: C_10  and  C_11
REMARK    6  A    between atoms: C_11  and  N_12
REMARK    7  A    between atoms: C_15  and  N_18
REMARK    8  A    between atoms: C_19  and  C_21
REMARK    9  A    between atoms: C_21  and  C_22
REMARK   10  A    between atoms: C_22  and  C_23
REMARK   11  A    between atoms: C_23  and  S_24
REMARK                            x       y       z     vdW  Elec       q    Type
REMARK                         _______ _______ _______ _____ _____    ______ ____
ROOT
ATOM      1  N   UNL     1       9.333   0.495  23.811  0.00  0.00    -0.298 NA
ATOM      2  C   UNL     1      10.452  -0.350  23.358  0.00  0.00    +0.086 C 
ATOM      3  C   UNL     1      10.122  -1.536  22.432  0.00  0.00    +0.037 C 
ATOM      4  C   UNL     1       8.848  -2.311  22.806  0.00  0.00    +0.075 C 
ATOM      5  C   UNL     1       7.739  -1.337  23.165  0.00  0.00    +0.037 C 
ATOM      6  C   UNL     1       8.224  -0.366  24.258  0.00  0.00    +0.086 C 
ENDROOT
BRANCH   4   7
ATOM      7  N   UNL     1       9.028  -3.242  23.928  0.00  0.00    -0.312 N 
ATOM      8  H   UNL     1       9.391  -2.861  24.784  0.00  0.00    +0.149 HD
ATOM      9  C   UNL     1       8.381  -4.449  24.010  0.00  0.00    +0.213 C 
ATOM     10  O   UNL     1       7.619  -4.885  23.158  0.00  0.00    -0.276 OA
BRANCH   9  11
ATOM     11  C   UNL     1       8.699  -5.181  25.302  0.00  0.00    +0.096 C 
BRANCH  11  12
ATOM     12  C   UNL     1       8.518  -4.246  26.489  0.00  0.00    +0.020 C 
BRANCH  12  13
ATOM     13  C   UNL     1       7.120  -4.344  27.071  0.00  0.00    +0.066 C 
BRANCH  13  14
ATOM     14  S   UNL     1       6.192  -2.835  26.691  0.00  0.00    -0.178 S 
ATOM     15  H   UNL     1       6.992  -2.411  25.700  0.00  0.00    +0.102 HD
ENDBRANCH  13  14
ENDBRANCH  12  13
ENDBRANCH  11  12
ENDBRANCH   9  11
ENDBRANCH   4   7
BRANCH   1  16
ATOM     16  C   UNL     1       8.797   1.501  22.865  0.00  0.00    +0.127 C 
BRANCH  16  18
ATOM     17  C   UNL     1       9.713   3.788  23.595  0.00  0.00    +0.128 A 
ATOM     18  C   UNL     1       8.624   2.943  23.297  0.00  0.00    +0.050 A 
ATOM     19  C   UNL     1       7.323   3.385  23.654  0.00  0.00    +0.128 A 
ATOM     20  C   UNL     1       7.135   4.598  24.326  0.00  0.00    +0.046 A 
ATOM     21  C   UNL     1       8.221   5.408  24.628  0.00  0.00    +0.007 A 
ATOM     22  C   UNL     1       9.501   5.006  24.259  0.00  0.00    +0.046 A 
BRANCH  17  24
ATOM     23  C   UNL     1      11.952   4.539  23.352  0.00  0.00    +0.277 C 
ATOM     24  O   UNL     1      11.039   3.457  23.499  0.00  0.00    -0.495 OA
ENDBRANCH  17  24
BRANCH  19  25
ATOM     25  O   UNL     1       6.290   2.508  23.432  0.00  0.00    -0.495 OA
ATOM     26  C   UNL     1       5.003   2.925  23.873  0.00  0.00    +0.277 C 
ENDBRANCH  19  25
ENDBRANCH  16  18
ENDBRANCH   1  16
TORSDOF 9
ENDMDL
MODEL 9
REMARK VINA RESULT:      -5.4      2.129      3.075
REMARK  Name = 
REMARK  11 active torsions:
REMARK  status: ('A' for Active; 'I' for Inactive)
REMARK    1  A    between atoms: C_1  and  O_2
REMARK    2  A    between atoms: O_2  and  C_3
REMARK    3  A    between atoms: C_7  and  O_8
REMARK    4  A    between atoms: O_8  and  C_9
REMARK    5  A    between atoms: C_10  and  C_11
REMARK    6  A    between atoms: C_11  and  N_12
REMARK    7  A    between atoms: C_15  and  N_18
REMARK    8  A    between atoms: C_19  and  C_21
REMARK    9  A    between atoms: C_21  and  C_22
REMARK   10  A    between atoms: C_22  and  C_23
REMARK   11  A    between atoms: C_23  and  S_24
REMARK                            x       y       z     vdW  Elec       q    Type
REMARK                         _______ _______ _______ _____ _____    ______ ____
ROOT
ATOM      1  N   UNL     1       6.026  -2.231  25.086  0.00  0.00    -0.298 NA
ATOM      2  C   UNL     1       6.468  -1.708  23.782  0.00  0.00    +0.086 C 
ATOM      3  C   UNL     1       7.964  -1.384  23.611  0.00  0.00    +0.037 C 
ATOM      4  C   UNL     1       8.619  -0.704  24.825  0.00  0.00    +0.075 C 
ATOM      5  C   UNL     1       8.162  -1.384  26.104  0.00  0.00    +0.037 C 
ATOM      6  C   UNL     1       6.624  -1.419  26.161  0.00  0.00    +0.086 C 
ENDROOT
BRANCH   4   7
ATOM      7  N   UNL     1       8.324   0.730  24.932  0.00  0.00    -0.312 N 
ATOM      8  H   UNL     1       7.581   0.999  25.554  0.00  0.00    +0.149 HD
ATOM      9  C   UNL     1       9.218   1.708  24.575  0.00  0.00    +0.213 C 
ATOM     10  O   UNL     1      10.330   1.492  24.110  0.00  0.00    -0.276 OA
BRANCH   9  11
ATOM     11  C   UNL     1       8.682   3.102  24.848  0.00  0.00    +0.096 C 
BRANCH  11  12
ATOM     12  C   UNL     1       8.751   3.944  23.583  0.00  0.00    +0.020 C 
BRANCH  12  13
ATOM     13  C   UNL     1       7.810   3.424  22.512  0.00  0.00    +0.066 C 
BRANCH  13  14
ATOM     14  S   UNL     1       6.144   4.082  22.790  0.00  0.00    -0.178 S 
ATOM     15  H   UNL     1       6.531   5.284  23.245  0.00  0.00    +0.102 HD
ENDBRANCH  13  14
ENDBRANCH  12  13
ENDBRANCH  11  12
ENDBRANCH   9  11
ENDBRANCH   4   7
BRANCH   1  16
ATOM     16  C   UNL     1       6.276  -3.660  25.381  0.00  0.00    +0.127 C 
BRANCH  16  18
ATOM     17  C   UNL     1       7.603  -5.082  23.701  0.00  0.00    +0.128 A 
ATOM     18  C   UNL     1       6.373  -4.669  24.254  0.00  0.00    +0.050 A 
ATOM     19  C   UNL     1       5.183  -5.021  23.565  0.00  0.00    +0.128 A 
ATOM     20  C   UNL     1       5.234  -5.713  22.350  0.00  0.00    +0.046 A 
ATOM     21  C   UNL     1       6.455  -6.095  21.811  0.00  0.00    +0.007 A 
ATOM     22  C   UNL     1       7.631  -5.786  22.487  0.00  0.00    +0.046 A 
BRANCH  17  24
ATOM     23  C   UNL     1       9.388  -5.366  25.240  0.00  0.00    +0.277 C 
ATOM     24  O   UNL     1       8.847  -4.684  24.114  0.00  0.00    -0.495 OA
ENDBRANCH  17  24
BRANCH  19  25
ATOM     25  O   UNL     1       4.006  -4.534  24.077  0.00  0.00    -0.495 OA
ATOM     26  C   UNL     1       2.809  -5.089  23.544  0.00  0.00    +0.277 C 
ENDBRANCH  19  25
ENDBRANCH  16  18
ENDBRANCH   1  16
TORSDOF 9
ENDMDL
