MODEL 1
REMARK VINA RESULT:      -7.2      0.000      0.000
REMARK  Name = 
REMARK  19 active torsions:
REMARK  status: ('A' for Active; 'I' for Inactive)
REMARK    1  A    between atoms: C_1  and  C_2
REMARK    2  A    between atoms: C_2  and  N_4
REMARK    3  A    between atoms: C_2  and  C_29
REMARK    4  A    between atoms: C_5  and  C_7
REMARK    5  A    between atoms: C_7  and  C_9
REMARK    6  A    between atoms: C_7  and  N_25
REMARK    7  A    between atoms: C_9  and  C_10
REMARK    8  A    between atoms: C_13  and  O_14
REMARK    9  A    between atoms: O_14  and  C_15
REMARK   10  A    between atoms: C_15  and  C_16
REMARK   11  A    between atoms: C_16  and  O_17
REMARK   12  A    between atoms: C_19  and  P_21
REMARK   13  A    between atoms: P_21  and  O_22
REMARK   14  A    between atoms: P_21  and  O_23
REMARK   15  A    between atoms: C_26  and  C_27
REMARK   16  A    between atoms: C_32  and  O_33
REMARK   17  A    between atoms: O_33  and  C_34
REMARK   18  A    between atoms: C_34  and  C_35
REMARK   19  A    between atoms: C_41  and  C_43
REMARK                            x       y       z     vdW  Elec       q    Type
REMARK                         _______ _______ _______ _____ _____    ______ ____
ROOT
ATOM      1  N   UNL     1       4.494  -6.412  22.609  0.00  0.00    -0.307 N 
ATOM      2  H   UNL     1       3.820  -6.113  21.913  0.00  0.00    +0.149 HD
ATOM      3  C   UNL     1       3.978  -7.081  23.723  0.00  0.00    +0.234 C 
ATOM      4  O   UNL     1       4.707  -7.475  24.635  0.00  0.00    -0.274 OA
ENDROOT
BRANCH   1   6
ATOM      5  C   UNL     1       6.199  -5.851  20.855  0.00  0.00    +0.033 C 
ATOM      6  C   UNL     1       5.897  -5.949  22.358  0.00  0.00    +0.100 C 
BRANCH   6   7
ATOM      7  C   UNL     1       6.488  -4.875  23.301  0.00  0.00    -0.027 A 
ATOM      8  C   UNL     1       7.597  -5.168  24.101  0.00  0.00    +0.022 A 
ATOM      9  C   UNL     1       8.348  -4.160  24.770  0.00  0.00    +0.078 A 
ATOM     10  C   UNL     1       8.004  -2.791  24.671  0.00  0.00    +0.133 A 
ATOM     11  C   UNL     1       6.866  -2.482  23.919  0.00  0.00    +0.047 A 
ATOM     12  C   UNL     1       6.129  -3.505  23.246  0.00  0.00    +0.009 A 
BRANCH   9  13
ATOM     13  C   UNL     1       9.545  -4.660  25.517  0.00  0.00    +0.245 C 
ATOM     14  O   UNL     1      10.541  -5.052  24.919  0.00  0.00    -0.270 OA
ATOM     15  N   UNL     1       9.508  -4.679  26.874  0.00  0.00    -0.325 N 
ATOM     16  H   UNL     1      10.328  -4.974  27.384  0.00  0.00    +0.145 HD
ATOM     17  H   UNL     1       8.734  -4.263  27.385  0.00  0.00    +0.145 HD
ENDBRANCH   9  13
BRANCH  10  18
ATOM     18  O   UNL     1       8.828  -1.897  25.301  0.00  0.00    -0.491 OA
BRANCH  18  19
ATOM     19  C   UNL     1       8.989  -0.515  24.957  0.00  0.00    +0.232 C 
BRANCH  19  20
ATOM     20  C   UNL     1      10.276  -0.285  24.134  0.00  0.00    +0.027 C 
ATOM     21  C   UNL     1      10.868   1.124  24.322  0.00  0.00    +0.007 C 
ATOM     22  C   UNL     1      10.155   2.213  23.521  0.00  0.00    +0.000 C 
ATOM     23  C   UNL     1      10.119   1.882  22.035  0.00  0.00    +0.000 C 
ATOM     24  C   UNL     1       9.500   0.512  21.783  0.00  0.00    +0.000 C 
ATOM     25  C   UNL     1      10.134  -0.597  22.628  0.00  0.00    +0.007 C 
ENDBRANCH  19  20
ENDBRANCH  18  19
ENDBRANCH  10  18
ENDBRANCH   6   7
ENDBRANCH   1   6
BRANCH   3  26
ATOM     26  C   UNL     1       2.402  -7.090  23.856  0.00  0.00    +0.163 C 
BRANCH  26  27
ATOM     27  N   UNL     1       1.798  -6.858  22.533  0.00  0.00    -0.304 N 
ATOM     28  H   UNL     1       1.514  -5.906  22.337  0.00  0.00    +0.149 HD
ATOM     29  C   UNL     1       1.188  -7.885  21.841  0.00  0.00    +0.211 C 
ATOM     30  O   UNL     1       1.233  -9.059  22.197  0.00  0.00    -0.276 OA
ATOM     31  C   UNL     1       0.445  -7.461  20.603  0.00  0.00    +0.109 C 
ENDBRANCH  26  27
BRANCH  26  32
ATOM     32  C   UNL     1       1.783  -6.107  24.894  0.00  0.00    +0.067 C 
BRANCH  32  33
ATOM     33  C   UNL     1       2.678  -5.048  25.505  0.00  0.00    -0.044 A 
ATOM     34  C   UNL     1       3.446  -5.423  26.593  0.00  0.00    +0.023 A 
ATOM     35  C   UNL     1       4.386  -4.564  27.217  0.00  0.00    +0.105 A 
ATOM     36  C   UNL     1       4.500  -3.247  26.792  0.00  0.00    +0.136 A 
ATOM     37  C   UNL     1       3.678  -2.830  25.730  0.00  0.00    +0.047 A 
ATOM     38  C   UNL     1       2.783  -3.722  25.089  0.00  0.00    +0.007 A 
BRANCH  35  39
ATOM     39  P   UNL     1       5.427  -5.307  28.527  0.00  0.00    +0.362 P 
ATOM     40  O   UNL     1       6.308  -5.935  29.634  0.00  0.00    -0.253 OA
BRANCH  39  41
ATOM     41  O   UNL     1       5.221  -6.734  27.717  0.00  0.00    -0.321 OA
ATOM     42  H   UNL     1       4.306  -6.895  27.429  0.00  0.00    +0.220 HD
ENDBRANCH  39  41
BRANCH  39  43
ATOM     43  O   UNL     1       6.765  -4.771  27.715  0.00  0.00    -0.321 OA
ATOM     44  H   UNL     1       7.635  -5.061  28.051  0.00  0.00    +0.220 HD
ENDBRANCH  39  43
ENDBRANCH  35  39
BRANCH  36  45
ATOM     45  O   UNL     1       5.438  -2.479  27.430  0.00  0.00    -0.480 OA
BRANCH  45  46
ATOM     46  C   UNL     1       4.940  -1.304  28.083  0.00  0.00    +0.349 C 
BRANCH  46  47
ATOM     47  C   UNL     1       5.414  -0.036  27.386  0.00  0.00    +0.343 C 
ATOM     48  O   UNL     1       4.672   0.709  26.760  0.00  0.00    -0.247 OA
BRANCH  47  49
ATOM     49  O   UNL     1       6.743   0.185  27.490  0.00  0.00    -0.478 OA
ATOM     50  H   UNL     1       7.029   0.187  28.426  0.00  0.00    +0.295 HD
ENDBRANCH  47  49
ENDBRANCH  46  47
ENDBRANCH  45  46
ENDBRANCH  36  45
ENDBRANCH  32  33
ENDBRANCH  26  32
ENDBRANCH   3  26
TORSDOF 17
ENDMDL
MODEL 2
REMARK VINA RESULT:      -7.0      2.421      4.633
REMARK  Name = 
REMARK  19 active torsions:
REMARK  status: ('A' for Active; 'I' for Inactive)
REMARK    1  A    between atoms: C_1  and  C_2
REMARK    2  A    between atoms: C_2  and  N_4
REMARK    3  A    between atoms: C_2  and  C_29
REMARK    4  A    between atoms: C_5  and  C_7
REMARK    5  A    between atoms: C_7  and  C_9
REMARK    6  A    between atoms: C_7  and  N_25
REMARK    7  A    between atoms: C_9  and  C_10
REMARK    8  A    between atoms: C_13  and  O_14
REMARK    9  A    between atoms: O_14  and  C_15
REMARK   10  A    between atoms: C_15  and  C_16
REMARK   11  A    between atoms: C_16  and  O_17
REMARK   12  A    between atoms: C_19  and  P_21
REMARK   13  A    between atoms: P_21  and  O_22
REMARK   14  A    between atoms: P_21  and  O_23
REMARK   15  A    between atoms: C_26  and  C_27
REMARK   16  A    between atoms: C_32  and  O_33
REMARK   17  A    between atoms: O_33  and  C_34
REMARK   18  A    between atoms: C_34  and  C_35
REMARK   19  A    between atoms: C_41  and  C_43
REMARK                            x       y       z     vdW  Elec       q    Type
REMARK                         _______ _______ _______ _____ _____    ______ ____
ROOT
ATOM      1  N   UNL     1       3.308  -4.796  27.095  0.00  0.00    -0.307 N 
ATOM      2  H   UNL     1       3.994  -5.495  27.358  0.00  0.00    +0.149 HD
ATOM      3  C   UNL     1       2.340  -5.196  26.169  0.00  0.00    +0.234 C 
ATOM      4  O   UNL     1       1.468  -4.421  25.771  0.00  0.00    -0.274 OA
ENDROOT
BRANCH   1   6
ATOM      5  C   UNL     1       3.952  -3.493  29.141  0.00  0.00    +0.033 C 
ATOM      6  C   UNL     1       3.564  -3.430  27.657  0.00  0.00    +0.100 C 
BRANCH   6   7
ATOM      7  C   UNL     1       4.272  -2.393  26.753  0.00  0.00    -0.027 A 
ATOM      8  C   UNL     1       4.910  -1.283  27.315  0.00  0.00    +0.022 A 
ATOM      9  C   UNL     1       5.803  -0.456  26.576  0.00  0.00    +0.078 A 
ATOM     10  C   UNL     1       6.087  -0.706  25.212  0.00  0.00    +0.133 A 
ATOM     11  C   UNL     1       5.417  -1.780  24.617  0.00  0.00    +0.047 A 
ATOM     12  C   UNL     1       4.531  -2.605  25.377  0.00  0.00    +0.009 A 
BRANCH   9  13
ATOM     13  C   UNL     1       6.449   0.637  27.368  0.00  0.00    +0.245 C 
ATOM     14  O   UNL     1       5.788   1.576  27.799  0.00  0.00    -0.270 OA
ATOM     15  N   UNL     1       7.785   0.577  27.599  0.00  0.00    -0.325 N 
ATOM     16  H   UNL     1       8.218   1.288  28.169  0.00  0.00    +0.145 HD
ATOM     17  H   UNL     1       8.327  -0.242  27.338  0.00  0.00    +0.145 HD
ENDBRANCH   9  13
BRANCH  10  18
ATOM     18  O   UNL     1       7.007   0.110  24.610  0.00  0.00    -0.491 OA
BRANCH  18  19
ATOM     19  C   UNL     1       6.865   0.737  23.329  0.00  0.00    +0.232 C 
BRANCH  19  20
ATOM     20  C   UNL     1       7.553   2.120  23.298  0.00  0.00    +0.027 C 
ATOM     21  C   UNL     1       8.326   2.380  21.993  0.00  0.00    +0.007 C 
ATOM     22  C   UNL     1       9.690   1.693  21.927  0.00  0.00    +0.000 C 
ATOM     23  C   UNL     1      10.567   2.080  23.111  0.00  0.00    +0.000 C 
ATOM     24  C   UNL     1       9.870   1.802  24.437  0.00  0.00    +0.000 C 
ATOM     25  C   UNL     1       8.464   2.406  24.513  0.00  0.00    +0.007 C 
ENDBRANCH  19  20
ENDBRANCH  18  19
ENDBRANCH  10  18
ENDBRANCH   6   7
ENDBRANCH   1   6
BRANCH   3  26
ATOM     26  C   UNL     1       2.568  -6.607  25.494  0.00  0.00    +0.163 C 
BRANCH  26  27
ATOM     27  N   UNL     1       1.711  -7.608  26.152  0.00  0.00    -0.304 N 
ATOM     28  H   UNL     1       1.805  -7.680  27.157  0.00  0.00    +0.149 HD
ATOM     29  C   UNL     1       1.229  -8.698  25.454  0.00  0.00    +0.211 C 
ATOM     30  O   UNL     1       1.351  -8.830  24.240  0.00  0.00    -0.276 OA
ATOM     31  C   UNL     1       0.537  -9.734  26.298  0.00  0.00    +0.109 C 
ENDBRANCH  26  27
BRANCH  26  32
ATOM     32  C   UNL     1       4.036  -7.127  25.443  0.00  0.00    +0.067 C 
BRANCH  32  33
ATOM     33  C   UNL     1       5.056  -6.330  24.656  0.00  0.00    -0.044 A 
ATOM     34  C   UNL     1       6.176  -5.891  25.338  0.00  0.00    +0.023 A 
ATOM     35  C   UNL     1       7.249  -5.204  24.717  0.00  0.00    +0.105 A 
ATOM     36  C   UNL     1       7.159  -4.866  23.373  0.00  0.00    +0.136 A 
ATOM     37  C   UNL     1       5.998  -5.246  22.679  0.00  0.00    +0.047 A 
ATOM     38  C   UNL     1       4.961  -5.977  23.312  0.00  0.00    +0.007 A 
BRANCH  35  39
ATOM     39  P   UNL     1       8.715  -4.864  25.759  0.00  0.00    +0.362 P 
ATOM     40  O   UNL     1       9.955  -4.578  26.640  0.00  0.00    -0.253 OA
BRANCH  39  41
ATOM     41  O   UNL     1       8.094  -5.996  26.793  0.00  0.00    -0.321 OA
ATOM     42  H   UNL     1       7.589  -5.619  27.532  0.00  0.00    +0.220 HD
ENDBRANCH  39  41
BRANCH  39  43
ATOM     43  O   UNL     1       9.589  -5.887  24.796  0.00  0.00    -0.321 OA
ATOM     44  H   UNL     1      10.283  -6.421  25.229  0.00  0.00    +0.220 HD
ENDBRANCH  39  43
ENDBRANCH  35  39
BRANCH  36  45
ATOM     45  O   UNL     1       8.239  -4.215  22.834  0.00  0.00    -0.480 OA
BRANCH  45  46
ATOM     46  C   UNL     1       8.059  -2.817  22.578  0.00  0.00    +0.349 C 
BRANCH  46  47
ATOM     47  C   UNL     1       9.309  -2.021  22.926  0.00  0.00    +0.343 C 
ATOM     48  O   UNL     1      10.213  -1.802  22.132  0.00  0.00    -0.247 OA
BRANCH  47  49
ATOM     49  O   UNL     1       9.354  -1.598  24.209  0.00  0.00    -0.478 OA
ATOM     50  H   UNL     1       8.680  -2.052  24.754  0.00  0.00    +0.295 HD
ENDBRANCH  47  49
ENDBRANCH  46  47
ENDBRANCH  45  46
ENDBRANCH  36  45
ENDBRANCH  32  33
ENDBRANCH  26  32
ENDBRANCH   3  26
TORSDOF 17
ENDMDL
MODEL 3
REMARK VINA RESULT:      -7.0      3.047      5.364
REMARK  Name = 
REMARK  19 active torsions:
REMARK  status: ('A' for Active; 'I' for Inactive)
REMARK    1  A    between atoms: C_1  and  C_2
REMARK    2  A    between atoms: C_2  and  N_4
REMARK    3  A    between atoms: C_2  and  C_29
REMARK    4  A    between atoms: C_5  and  C_7
REMARK    5  A    between atoms: C_7  and  C_9
REMARK    6  A    between atoms: C_7  and  N_25
REMARK    7  A    between atoms: C_9  and  C_10
REMARK    8  A    between atoms: C_13  and  O_14
REMARK    9  A    between atoms: O_14  and  C_15
REMARK   10  A    between atoms: C_15  and  C_16
REMARK   11  A    between atoms: C_16  and  O_17
REMARK   12  A    between atoms: C_19  and  P_21
REMARK   13  A    between atoms: P_21  and  O_22
REMARK   14  A    between atoms: P_21  and  O_23
REMARK   15  A    between atoms: C_26  and  C_27
REMARK   16  A    between atoms: C_32  and  O_33
REMARK   17  A    between atoms: O_33  and  C_34
REMARK   18  A    between atoms: C_34  and  C_35
REMARK   19  A    between atoms: C_41  and  C_43
REMARK                            x       y       z     vdW  Elec       q    Type
REMARK                         _______ _______ _______ _____ _____    ______ ____
ROOT
ATOM      1  N   UNL     1       3.651  -4.283  28.092  0.00  0.00    -0.307 N 
ATOM      2  H   UNL     1       4.399  -4.742  28.600  0.00  0.00    +0.149 HD
ATOM      3  C   UNL     1       2.851  -5.105  27.292  0.00  0.00    +0.234 C 
ATOM      4  O   UNL     1       1.924  -4.649  26.621  0.00  0.00    -0.274 OA
ENDROOT
BRANCH   1   6
ATOM      5  C   UNL     1       3.729  -2.328  29.663  0.00  0.00    +0.033 C 
ATOM      6  C   UNL     1       3.649  -2.788  28.200  0.00  0.00    +0.100 C 
BRANCH   6   7
ATOM      7  C   UNL     1       4.419  -1.980  27.129  0.00  0.00    -0.027 A 
ATOM      8  C   UNL     1       5.438  -1.100  27.504  0.00  0.00    +0.022 A 
ATOM      9  C   UNL     1       6.357  -0.547  26.567  0.00  0.00    +0.078 A 
ATOM     10  C   UNL     1       6.281  -0.851  25.187  0.00  0.00    +0.133 A 
ATOM     11  C   UNL     1       5.235  -1.687  24.784  0.00  0.00    +0.047 A 
ATOM     12  C   UNL     1       4.327  -2.241  25.740  0.00  0.00    +0.009 A 
BRANCH   9  13
ATOM     13  C   UNL     1       7.425   0.313  27.167  0.00  0.00    +0.245 C 
ATOM     14  O   UNL     1       7.149   1.391  27.683  0.00  0.00    -0.270 OA
ATOM     15  N   UNL     1       8.712  -0.118  27.126  0.00  0.00    -0.325 N 
ATOM     16  H   UNL     1       9.430   0.437  27.568  0.00  0.00    +0.145 HD
ATOM     17  H   UNL     1       8.944  -1.051  26.796  0.00  0.00    +0.145 HD
ENDBRANCH   9  13
BRANCH  10  18
ATOM     18  O   UNL     1       7.251  -0.318  24.380  0.00  0.00    -0.491 OA
BRANCH  18  19
ATOM     19  C   UNL     1       7.121  -0.041  22.979  0.00  0.00    +0.232 C 
BRANCH  19  20
ATOM     20  C   UNL     1       7.357   1.455  22.676  0.00  0.00    +0.027 C 
ATOM     21  C   UNL     1       8.364   1.687  21.535  0.00  0.00    +0.007 C 
ATOM     22  C   UNL     1       9.826   1.535  21.952  0.00  0.00    +0.000 C 
ATOM     23  C   UNL     1      10.174   2.452  23.117  0.00  0.00    +0.000 C 
ATOM     24  C   UNL     1       9.234   2.235  24.298  0.00  0.00    +0.000 C 
ATOM     25  C   UNL     1       7.754   2.300  23.907  0.00  0.00    +0.007 C 
ENDBRANCH  19  20
ENDBRANCH  18  19
ENDBRANCH  10  18
ENDBRANCH   6   7
ENDBRANCH   1   6
BRANCH   3  26
ATOM     26  C   UNL     1       3.349  -6.596  27.117  0.00  0.00    +0.163 C 
BRANCH  26  27
ATOM     27  N   UNL     1       2.595  -7.474  28.029  0.00  0.00    -0.304 N 
ATOM     28  H   UNL     1       1.726  -7.846  27.666  0.00  0.00    +0.149 HD
ATOM     29  C   UNL     1       2.755  -7.380  29.397  0.00  0.00    +0.211 C 
ATOM     30  O   UNL     1       3.617  -6.688  29.930  0.00  0.00    -0.276 OA
ATOM     31  C   UNL     1       1.781  -8.194  30.205  0.00  0.00    +0.109 C 
ENDBRANCH  26  27
BRANCH  26  32
ATOM     32  C   UNL     1       4.877  -6.847  27.291  0.00  0.00    +0.067 C 
BRANCH  32  33
ATOM     33  C   UNL     1       5.843  -5.973  26.519  0.00  0.00    -0.044 A 
ATOM     34  C   UNL     1       5.742  -5.987  25.139  0.00  0.00    +0.023 A 
ATOM     35  C   UNL     1       6.524  -5.163  24.291  0.00  0.00    +0.105 A 
ATOM     36  C   UNL     1       7.509  -4.353  24.840  0.00  0.00    +0.136 A 
ATOM     37  C   UNL     1       7.671  -4.375  26.236  0.00  0.00    +0.047 A 
ATOM     38  C   UNL     1       6.842  -5.171  27.067  0.00  0.00    +0.007 A 
BRANCH  35  39
ATOM     39  P   UNL     1       6.114  -5.205  22.507  0.00  0.00    +0.362 P 
ATOM     40  O   UNL     1       5.768  -5.242  20.999  0.00  0.00    -0.253 OA
BRANCH  39  41
ATOM     41  O   UNL     1       7.562  -5.981  22.315  0.00  0.00    -0.321 OA
ATOM     42  H   UNL     1       7.843  -6.067  21.388  0.00  0.00    +0.220 HD
ENDBRANCH  39  41
BRANCH  39  43
ATOM     43  O   UNL     1       5.175  -6.536  22.794  0.00  0.00    -0.321 OA
ATOM     44  H   UNL     1       5.578  -7.262  23.308  0.00  0.00    +0.220 HD
ENDBRANCH  39  43
ENDBRANCH  35  39
BRANCH  36  45
ATOM     45  O   UNL     1       8.217  -3.573  23.963  0.00  0.00    -0.480 OA
BRANCH  45  46
ATOM     46  C   UNL     1       9.582  -3.321  24.316  0.00  0.00    +0.349 C 
BRANCH  46  47
ATOM     47  C   UNL     1      10.070  -1.997  23.746  0.00  0.00    +0.343 C 
ATOM     48  O   UNL     1      10.255  -0.996  24.424  0.00  0.00    -0.247 OA
BRANCH  47  49
ATOM     49  O   UNL     1      10.255  -2.008  22.407  0.00  0.00    -0.478 OA
ATOM     50  H   UNL     1      10.174  -2.914  22.047  0.00  0.00    +0.295 HD
ENDBRANCH  47  49
ENDBRANCH  46  47
ENDBRANCH  45  46
ENDBRANCH  36  45
ENDBRANCH  32  33
ENDBRANCH  26  32
ENDBRANCH   3  26
TORSDOF 17
ENDMDL
MODEL 4
REMARK VINA RESULT:      -6.9      3.047      5.410
REMARK  Name = 
REMARK  19 active torsions:
REMARK  status: ('A' for Active; 'I' for Inactive)
REMARK    1  A    between atoms: C_1  and  C_2
REMARK    2  A    between atoms: C_2  and  N_4
REMARK    3  A    between atoms: C_2  and  C_29
REMARK    4  A    between atoms: C_5  and  C_7
REMARK    5  A    between atoms: C_7  and  C_9
REMARK    6  A    between atoms: C_7  and  N_25
REMARK    7  A    between atoms: C_9  and  C_10
REMARK    8  A    between atoms: C_13  and  O_14
REMARK    9  A    between atoms: O_14  and  C_15
REMARK   10  A    between atoms: C_15  and  C_16
REMARK   11  A    between atoms: C_16  and  O_17
REMARK   12  A    between atoms: C_19  and  P_21
REMARK   13  A    between atoms: P_21  and  O_22
REMARK   14  A    between atoms: P_21  and  O_23
REMARK   15  A    between atoms: C_26  and  C_27
REMARK   16  A    between atoms: C_32  and  O_33
REMARK   17  A    between atoms: O_33  and  C_34
REMARK   18  A    between atoms: C_34  and  C_35
REMARK   19  A    between atoms: C_41  and  C_43
REMARK                            x       y       z     vdW  Elec       q    Type
REMARK                         _______ _______ _______ _____ _____    ______ ____
ROOT
ATOM      1  N   UNL     1       4.131  -2.563  27.351  0.00  0.00    -0.307 N 
ATOM      2  H   UNL     1       4.637  -3.181  27.976  0.00  0.00    +0.149 HD
ATOM      3  C   UNL     1       3.115  -3.149  26.590  0.00  0.00    +0.234 C 
ATOM      4  O   UNL     1       2.448  -2.492  25.788  0.00  0.00    -0.274 OA
ENDROOT
BRANCH   1   6
ATOM      5  C   UNL     1       4.624  -0.466  28.638  0.00  0.00    +0.033 C 
ATOM      6  C   UNL     1       4.678  -1.170  27.274  0.00  0.00    +0.100 C 
BRANCH   6   7
ATOM      7  C   UNL     1       5.902  -0.918  26.362  0.00  0.00    -0.027 A 
ATOM      8  C   UNL     1       5.762  -0.199  25.171  0.00  0.00    +0.022 A 
ATOM      9  C   UNL     1       6.878   0.300  24.440  0.00  0.00    +0.078 A 
ATOM     10  C   UNL     1       8.206   0.082  24.876  0.00  0.00    +0.133 A 
ATOM     11  C   UNL     1       8.370  -0.682  26.037  0.00  0.00    +0.047 A 
ATOM     12  C   UNL     1       7.238  -1.166  26.763  0.00  0.00    +0.009 A 
BRANCH   9  13
ATOM     13  C   UNL     1       6.526   1.111  23.232  0.00  0.00    +0.245 C 
ATOM     14  O   UNL     1       7.131   0.962  22.177  0.00  0.00    -0.270 OA
ATOM     15  N   UNL     1       5.525   2.023  23.326  0.00  0.00    -0.325 N 
ATOM     16  H   UNL     1       5.254   2.542  22.503  0.00  0.00    +0.145 HD
ATOM     17  H   UNL     1       4.947   2.086  24.160  0.00  0.00    +0.145 HD
ENDBRANCH   9  13
BRANCH  10  18
ATOM     18  O   UNL     1       9.204   0.657  24.136  0.00  0.00    -0.491 OA
BRANCH  18  19
ATOM     19  C   UNL     1       9.868   1.892  24.434  0.00  0.00    +0.232 C 
BRANCH  19  20
ATOM     20  C   UNL     1       9.694   2.916  23.290  0.00  0.00    +0.027 C 
ATOM     21  C   UNL     1      11.031   3.482  22.780  0.00  0.00    +0.007 C 
ATOM     22  C   UNL     1      11.630   4.570  23.671  0.00  0.00    +0.000 C 
ATOM     23  C   UNL     1      10.652   5.718  23.884  0.00  0.00    +0.000 C 
ATOM     24  C   UNL     1       9.320   5.222  24.434  0.00  0.00    +0.000 C 
ATOM     25  C   UNL     1       8.723   4.074  23.613  0.00  0.00    +0.007 C 
ENDBRANCH  19  20
ENDBRANCH  18  19
ENDBRANCH  10  18
ENDBRANCH   6   7
ENDBRANCH   1   6
BRANCH   3  26
ATOM     26  C   UNL     1       3.031  -4.727  26.644  0.00  0.00    +0.163 C 
BRANCH  26  27
ATOM     27  N   UNL     1       3.535  -5.199  27.946  0.00  0.00    -0.304 N 
ATOM     28  H   UNL     1       4.483  -4.926  28.178  0.00  0.00    +0.149 HD
ATOM     29  C   UNL     1       3.004  -6.322  28.547  0.00  0.00    +0.211 C 
ATOM     30  O   UNL     1       2.006  -6.903  28.131  0.00  0.00    -0.276 OA
ATOM     31  C   UNL     1       3.746  -6.798  29.767  0.00  0.00    +0.109 C 
ENDBRANCH  26  27
BRANCH  26  32
ATOM     32  C   UNL     1       3.740  -5.503  25.495  0.00  0.00    +0.067 C 
BRANCH  32  33
ATOM     33  C   UNL     1       4.898  -4.835  24.782  0.00  0.00    -0.044 A 
ATOM     34  C   UNL     1       6.137  -4.899  25.394  0.00  0.00    +0.023 A 
ATOM     35  C   UNL     1       7.324  -4.389  24.809  0.00  0.00    +0.105 A 
ATOM     36  C   UNL     1       7.255  -3.711  23.600  0.00  0.00    +0.136 A 
ATOM     37  C   UNL     1       5.993  -3.579  22.994  0.00  0.00    +0.047 A 
ATOM     38  C   UNL     1       4.829  -4.142  23.575  0.00  0.00    +0.007 A 
BRANCH  35  39
ATOM     39  P   UNL     1       8.885  -4.729  25.702  0.00  0.00    +0.362 P 
ATOM     40  O   UNL     1      10.206  -5.017  26.456  0.00  0.00    -0.253 OA
BRANCH  39  41
ATOM     41  O   UNL     1       8.027  -5.880  26.522  0.00  0.00    -0.321 OA
ATOM     42  H   UNL     1       7.063  -5.783  26.445  0.00  0.00    +0.220 HD
ENDBRANCH  39  41
BRANCH  39  43
ATOM     43  O   UNL     1       9.366  -5.665  24.426  0.00  0.00    -0.321 OA
ATOM     44  H   UNL     1      10.317  -5.656  24.201  0.00  0.00    +0.220 HD
ENDBRANCH  39  43
ENDBRANCH  35  39
BRANCH  36  45
ATOM     45  O   UNL     1       8.442  -3.258  23.086  0.00  0.00    -0.480 OA
BRANCH  45  46
ATOM     46  C   UNL     1       8.343  -2.188  22.138  0.00  0.00    +0.349 C 
BRANCH  46  47
ATOM     47  C   UNL     1       9.690  -1.515  21.914  0.00  0.00    +0.343 C 
ATOM     48  O   UNL     1      10.730  -1.895  22.434  0.00  0.00    -0.247 OA
BRANCH  47  49
ATOM     49  O   UNL     1       9.637  -0.431  21.109  0.00  0.00    -0.478 OA
ATOM     50  H   UNL     1       8.726  -0.275  20.787  0.00  0.00    +0.295 HD
ENDBRANCH  47  49
ENDBRANCH  46  47
ENDBRANCH  45  46
ENDBRANCH  36  45
ENDBRANCH  32  33
ENDBRANCH  26  32
ENDBRANCH   3  26
TORSDOF 17
ENDMDL
MODEL 5
REMARK VINA RESULT:      -6.8      3.276      5.362
REMARK  Name = 
REMARK  19 active torsions:
REMARK  status: ('A' for Active; 'I' for Inactive)
REMARK    1  A    between atoms: C_1  and  C_2
REMARK    2  A    between atoms: C_2  and  N_4
REMARK    3  A    between atoms: C_2  and  C_29
REMARK    4  A    between atoms: C_5  and  C_7
REMARK    5  A    between atoms: C_7  and  C_9
REMARK    6  A    between atoms: C_7  and  N_25
REMARK    7  A    between atoms: C_9  and  C_10
REMARK    8  A    between atoms: C_13  and  O_14
REMARK    9  A    between atoms: O_14  and  C_15
REMARK   10  A    between atoms: C_15  and  C_16
REMARK   11  A    between atoms: C_16  and  O_17
REMARK   12  A    between atoms: C_19  and  P_21
REMARK   13  A    between atoms: P_21  and  O_22
REMARK   14  A    between atoms: P_21  and  O_23
REMARK   15  A    between atoms: C_26  and  C_27
REMARK   16  A    between atoms: C_32  and  O_33
REMARK   17  A    between atoms: O_33  and  C_34
REMARK   18  A    between atoms: C_34  and  C_35
REMARK   19  A    between atoms: C_41  and  C_43
REMARK                            x       y       z     vdW  Elec       q    Type
REMARK                         _______ _______ _______ _____ _____    ______ ____
ROOT
ATOM      1  N   UNL     1       4.028  -3.466  27.490  0.00  0.00    -0.307 N 
ATOM      2  H   UNL     1       4.539  -3.953  28.219  0.00  0.00    +0.149 HD
ATOM      3  C   UNL     1       3.354  -4.270  26.565  0.00  0.00    +0.234 C 
ATOM      4  O   UNL     1       2.715  -3.782  25.631  0.00  0.00    -0.274 OA
ENDROOT
BRANCH   1   6
ATOM      5  C   UNL     1       3.734  -1.339  28.788  0.00  0.00    +0.033 C 
ATOM      6  C   UNL     1       4.221  -1.980  27.480  0.00  0.00    +0.100 C 
BRANCH   6   7
ATOM      7  C   UNL     1       5.497  -1.416  26.812  0.00  0.00    -0.027 A 
ATOM      8  C   UNL     1       5.593  -1.344  25.418  0.00  0.00    +0.022 A 
ATOM      9  C   UNL     1       6.606  -0.591  24.758  0.00  0.00    +0.078 A 
ATOM     10  C   UNL     1       7.589   0.124  25.483  0.00  0.00    +0.133 A 
ATOM     11  C   UNL     1       7.542   0.019  26.876  0.00  0.00    +0.047 A 
ATOM     12  C   UNL     1       6.513  -0.733  27.523  0.00  0.00    +0.009 A 
BRANCH   9  13
ATOM     13  C   UNL     1       6.500  -0.570  23.265  0.00  0.00    +0.245 C 
ATOM     14  O   UNL     1       6.475  -1.614  22.622  0.00  0.00    -0.270 OA
ATOM     15  N   UNL     1       6.438   0.628  22.630  0.00  0.00    -0.325 N 
ATOM     16  H   UNL     1       6.322   0.647  21.627  0.00  0.00    +0.145 HD
ATOM     17  H   UNL     1       6.354   1.496  23.152  0.00  0.00    +0.145 HD
ENDBRANCH   9  13
BRANCH  10  18
ATOM     18  O   UNL     1       8.479   0.867  24.753  0.00  0.00    -0.491 OA
BRANCH  18  19
ATOM     19  C   UNL     1       8.674   2.283  24.855  0.00  0.00    +0.232 C 
BRANCH  19  20
ATOM     20  C   UNL     1       8.995   2.908  23.479  0.00  0.00    +0.027 C 
ATOM     21  C   UNL     1      10.397   3.540  23.418  0.00  0.00    +0.007 C 
ATOM     22  C   UNL     1      10.490   4.918  24.072  0.00  0.00    +0.000 C 
ATOM     23  C   UNL     1       9.480   5.890  23.476  0.00  0.00    +0.000 C 
ATOM     24  C   UNL     1       8.062   5.335  23.550  0.00  0.00    +0.000 C 
ATOM     25  C   UNL     1       7.941   3.919  22.976  0.00  0.00    +0.007 C 
ENDBRANCH  19  20
ENDBRANCH  18  19
ENDBRANCH  10  18
ENDBRANCH   6   7
ENDBRANCH   1   6
BRANCH   3  26
ATOM     26  C   UNL     1       3.652  -5.821  26.648  0.00  0.00    +0.163 C 
BRANCH  26  27
ATOM     27  N   UNL     1       2.809  -6.425  27.693  0.00  0.00    -0.304 N 
ATOM     28  H   UNL     1       3.272  -6.635  28.569  0.00  0.00    +0.149 HD
ATOM     29  C   UNL     1       1.667  -7.128  27.365  0.00  0.00    +0.211 C 
ATOM     30  O   UNL     1       1.204  -7.171  26.229  0.00  0.00    -0.276 OA
ATOM     31  C   UNL     1       1.019  -7.854  28.512  0.00  0.00    +0.109 C 
ENDBRANCH  26  27
BRANCH  26  32
ATOM     32  C   UNL     1       5.138  -6.235  26.868  0.00  0.00    +0.067 C 
BRANCH  32  33
ATOM     33  C   UNL     1       6.206  -5.558  26.035  0.00  0.00    -0.044 A 
ATOM     34  C   UNL     1       6.072  -5.629  24.660  0.00  0.00    +0.023 A 
ATOM     35  C   UNL     1       6.948  -4.978  23.755  0.00  0.00    +0.105 A 
ATOM     36  C   UNL     1       8.056  -4.298  24.244  0.00  0.00    +0.136 A 
ATOM     37  C   UNL     1       8.244  -4.270  25.636  0.00  0.00    +0.047 A 
ATOM     38  C   UNL     1       7.326  -4.887  26.522  0.00  0.00    +0.007 A 
BRANCH  35  39
ATOM     39  P   UNL     1       6.496  -5.052  21.983  0.00  0.00    +0.362 P 
ATOM     40  O   UNL     1       6.113  -5.115  20.485  0.00  0.00    -0.253 OA
BRANCH  39  41
ATOM     41  O   UNL     1       6.005  -6.600  22.295  0.00  0.00    -0.321 OA
ATOM     42  H   UNL     1       5.574  -7.036  21.541  0.00  0.00    +0.220 HD
ENDBRANCH  39  41
BRANCH  39  43
ATOM     43  O   UNL     1       5.080  -4.281  22.351  0.00  0.00    -0.321 OA
ATOM     44  H   UNL     1       5.082  -3.305  22.314  0.00  0.00    +0.220 HD
ENDBRANCH  39  43
ENDBRANCH  35  39
BRANCH  36  45
ATOM     45  O   UNL     1       8.852  -3.680  23.314  0.00  0.00    -0.480 OA
BRANCH  45  46
ATOM     46  C   UNL     1       9.674  -2.616  23.808  0.00  0.00    +0.349 C 
BRANCH  46  47
ATOM     47  C   UNL     1      10.008  -1.615  22.711  0.00  0.00    +0.343 C 
ATOM     48  O   UNL     1      10.725  -0.638  22.882  0.00  0.00    -0.247 OA
BRANCH  47  49
ATOM     49  O   UNL     1       9.416  -1.879  21.525  0.00  0.00    -0.478 OA
ATOM     50  H   UNL     1      10.081  -2.059  20.830  0.00  0.00    +0.295 HD
ENDBRANCH  47  49
ENDBRANCH  46  47
ENDBRANCH  45  46
ENDBRANCH  36  45
ENDBRANCH  32  33
ENDBRANCH  26  32
ENDBRANCH   3  26
TORSDOF 17
ENDMDL
MODEL 6
REMARK VINA RESULT:      -6.7      2.668      8.063
REMARK  Name = 
REMARK  19 active torsions:
REMARK  status: ('A' for Active; 'I' for Inactive)
REMARK    1  A    between atoms: C_1  and  C_2
REMARK    2  A    between atoms: C_2  and  N_4
REMARK    3  A    between atoms: C_2  and  C_29
REMARK    4  A    between atoms: C_5  and  C_7
REMARK    5  A    between atoms: C_7  and  C_9
REMARK    6  A    between atoms: C_7  and  N_25
REMARK    7  A    between atoms: C_9  and  C_10
REMARK    8  A    between atoms: C_13  and  O_14
REMARK    9  A    between atoms: O_14  and  C_15
REMARK   10  A    between atoms: C_15  and  C_16
REMARK   11  A    between atoms: C_16  and  O_17
REMARK   12  A    between atoms: C_19  and  P_21
REMARK   13  A    between atoms: P_21  and  O_22
REMARK   14  A    between atoms: P_21  and  O_23
REMARK   15  A    between atoms: C_26  and  C_27
REMARK   16  A    between atoms: C_32  and  O_33
REMARK   17  A    between atoms: O_33  and  C_34
REMARK   18  A    between atoms: C_34  and  C_35
REMARK   19  A    between atoms: C_41  and  C_43
REMARK                            x       y       z     vdW  Elec       q    Type
REMARK                         _______ _______ _______ _____ _____    ______ ____
ROOT
ATOM      1  N   UNL     1       8.087  -0.168  23.702  0.00  0.00    -0.307 N 
ATOM      2  H   UNL     1       8.807  -0.407  24.374  0.00  0.00    +0.149 HD
ATOM      3  C   UNL     1       7.295   0.942  24.011  0.00  0.00    +0.234 C 
ATOM      4  O   UNL     1       6.382   1.311  23.270  0.00  0.00    -0.274 OA
ENDROOT
BRANCH   1   6
ATOM      5  C   UNL     1       9.298  -1.647  22.075  0.00  0.00    +0.033 C 
ATOM      6  C   UNL     1       7.935  -1.146  22.576  0.00  0.00    +0.100 C 
BRANCH   6   7
ATOM      7  C   UNL     1       6.758  -2.149  22.638  0.00  0.00    -0.027 A 
ATOM      8  C   UNL     1       6.801  -3.336  21.899  0.00  0.00    +0.022 A 
ATOM      9  C   UNL     1       5.894  -4.411  22.124  0.00  0.00    +0.078 A 
ATOM     10  C   UNL     1       4.882  -4.333  23.110  0.00  0.00    +0.133 A 
ATOM     11  C   UNL     1       4.788  -3.133  23.822  0.00  0.00    +0.047 A 
ATOM     12  C   UNL     1       5.713  -2.067  23.590  0.00  0.00    +0.009 A 
BRANCH   9  13
ATOM     13  C   UNL     1       6.144  -5.628  21.289  0.00  0.00    +0.245 C 
ATOM     14  O   UNL     1       6.030  -5.587  20.069  0.00  0.00    -0.270 OA
ATOM     15  N   UNL     1       6.496  -6.785  21.907  0.00  0.00    -0.325 N 
ATOM     16  H   UNL     1       6.708  -7.596  21.346  0.00  0.00    +0.145 HD
ATOM     17  H   UNL     1       6.694  -6.809  22.903  0.00  0.00    +0.145 HD
ENDBRANCH   9  13
BRANCH  10  18
ATOM     18  O   UNL     1       4.104  -5.446  23.289  0.00  0.00    -0.491 OA
BRANCH  18  19
ATOM     19  C   UNL     1       3.704  -5.998  24.550  0.00  0.00    +0.232 C 
BRANCH  19  20
ATOM     20  C   UNL     1       2.169  -6.152  24.636  0.00  0.00    +0.027 C 
ATOM     21  C   UNL     1       1.732  -7.428  25.377  0.00  0.00    +0.007 C 
ATOM     22  C   UNL     1       1.818  -8.700  24.533  0.00  0.00    +0.000 C 
ATOM     23  C   UNL     1       1.015  -8.572  23.245  0.00  0.00    +0.000 C 
ATOM     24  C   UNL     1       1.436  -7.345  22.445  0.00  0.00    +0.000 C 
ATOM     25  C   UNL     1       1.441  -6.059  23.277  0.00  0.00    +0.007 C 
ENDBRANCH  19  20
ENDBRANCH  18  19
ENDBRANCH  10  18
ENDBRANCH   6   7
ENDBRANCH   1   6
BRANCH   3  26
ATOM     26  C   UNL     1       7.482   1.542  25.463  0.00  0.00    +0.163 C 
BRANCH  26  27
ATOM     27  N   UNL     1       8.328   2.746  25.388  0.00  0.00    -0.304 N 
ATOM     28  H   UNL     1       9.257   2.658  25.782  0.00  0.00    +0.149 HD
ATOM     29  C   UNL     1       7.766   4.003  25.294  0.00  0.00    +0.211 C 
ATOM     30  O   UNL     1       6.567   4.195  25.118  0.00  0.00    -0.276 OA
ATOM     31  C   UNL     1       8.739   5.143  25.427  0.00  0.00    +0.109 C 
ENDBRANCH  26  27
BRANCH  26  32
ATOM     32  C   UNL     1       8.038   0.576  26.551  0.00  0.00    +0.067 C 
BRANCH  32  33
ATOM     33  C   UNL     1       7.426  -0.804  26.670  0.00  0.00    -0.044 A 
ATOM     34  C   UNL     1       8.163  -1.865  26.174  0.00  0.00    +0.023 A 
ATOM     35  C   UNL     1       7.755  -3.218  26.286  0.00  0.00    +0.105 A 
ATOM     36  C   UNL     1       6.517  -3.517  26.839  0.00  0.00    +0.136 A 
ATOM     37  C   UNL     1       5.726  -2.446  27.289  0.00  0.00    +0.047 A 
ATOM     38  C   UNL     1       6.178  -1.106  27.212  0.00  0.00    +0.007 A 
BRANCH  35  39
ATOM     39  P   UNL     1       8.953  -4.482  25.722  0.00  0.00    +0.362 P 
ATOM     40  O   UNL     1       9.966  -5.551  25.245  0.00  0.00    -0.253 OA
BRANCH  39  41
ATOM     41  O   UNL     1       8.836  -5.103  27.251  0.00  0.00    -0.321 OA
ATOM     42  H   UNL     1       7.936  -5.374  27.498  0.00  0.00    +0.220 HD
ENDBRANCH  39  41
BRANCH  39  43
ATOM     43  O   UNL     1       7.697  -5.313  25.039  0.00  0.00    -0.321 OA
ATOM     44  H   UNL     1       6.805  -5.148  25.401  0.00  0.00    +0.220 HD
ENDBRANCH  39  43
ENDBRANCH  35  39
BRANCH  36  45
ATOM     45  O   UNL     1       6.194  -4.847  26.929  0.00  0.00    -0.480 OA
BRANCH  45  46
ATOM     46  C   UNL     1       5.469  -5.233  28.103  0.00  0.00    +0.349 C 
BRANCH  46  47
ATOM     47  C   UNL     1       5.934  -6.586  28.624  0.00  0.00    +0.343 C 
ATOM     48  O   UNL     1       6.992  -6.756  29.214  0.00  0.00    -0.247 OA
BRANCH  47  49
ATOM     49  O   UNL     1       5.086  -7.603  28.351  0.00  0.00    -0.478 OA
ATOM     50  H   UNL     1       5.315  -8.402  28.867  0.00  0.00    +0.295 HD
ENDBRANCH  47  49
ENDBRANCH  46  47
ENDBRANCH  45  46
ENDBRANCH  36  45
ENDBRANCH  32  33
ENDBRANCH  26  32
ENDBRANCH   3  26
TORSDOF 17
ENDMDL
MODEL 7
REMARK VINA RESULT:      -6.6      2.607      7.669
REMARK  Name = 
REMARK  19 active torsions:
REMARK  status: ('A' for Active; 'I' for Inactive)
REMARK    1  A    between atoms: C_1  and  C_2
REMARK    2  A    between atoms: C_2  and  N_4
REMARK    3  A    between atoms: C_2  and  C_29
REMARK    4  A    between atoms: C_5  and  C_7
REMARK    5  A    between atoms: C_7  and  C_9
REMARK    6  A    between atoms: C_7  and  N_25
REMARK    7  A    between atoms: C_9  and  C_10
REMARK    8  A    between atoms: C_13  and  O_14
REMARK    9  A    between atoms: O_14  and  C_15
REMARK   10  A    between atoms: C_15  and  C_16
REMARK   11  A    between atoms: C_16  and  O_17
REMARK   12  A    between atoms: C_19  and  P_21
REMARK   13  A    between atoms: P_21  and  O_22
REMARK   14  A    between atoms: P_21  and  O_23
REMARK   15  A    between atoms: C_26  and  C_27
REMARK   16  A    between atoms: C_32  and  O_33
REMARK   17  A    between atoms: O_33  and  C_34
REMARK   18  A    between atoms: C_34  and  C_35
REMARK   19  A    between atoms: C_41  and  C_43
REMARK                            x       y       z     vdW  Elec       q    Type
REMARK                         _______ _______ _______ _____ _____    ______ ____
ROOT
ATOM      1  N   UNL     1       8.210   0.104  23.385  0.00  0.00    -0.307 N 
ATOM      2  H   UNL     1       8.823   0.081  24.193  0.00  0.00    +0.149 HD
ATOM      3  C   UNL     1       7.249   1.119  23.367  0.00  0.00    +0.234 C 
ATOM      4  O   UNL     1       6.444   1.230  22.440  0.00  0.00    -0.274 OA
ENDROOT
BRANCH   1   6
ATOM      5  C   UNL     1       9.797  -1.099  21.858  0.00  0.00    +0.033 C 
ATOM      6  C   UNL     1       8.377  -1.049  22.442  0.00  0.00    +0.100 C 
BRANCH   6   7
ATOM      7  C   UNL     1       7.676  -2.382  22.791  0.00  0.00    -0.027 A 
ATOM      8  C   UNL     1       8.341  -3.357  23.541  0.00  0.00    +0.022 A 
ATOM      9  C   UNL     1       7.667  -4.469  24.124  0.00  0.00    +0.078 A 
ATOM     10  C   UNL     1       6.274  -4.656  23.965  0.00  0.00    +0.133 A 
ATOM     11  C   UNL     1       5.599  -3.722  23.173  0.00  0.00    +0.047 A 
ATOM     12  C   UNL     1       6.290  -2.607  22.603  0.00  0.00    +0.009 A 
BRANCH   9  13
ATOM     13  C   UNL     1       8.533  -5.363  24.955  0.00  0.00    +0.245 C 
ATOM     14  O   UNL     1       9.616  -5.757  24.535  0.00  0.00    -0.270 OA
ATOM     15  N   UNL     1       8.097  -5.737  26.185  0.00  0.00    -0.325 N 
ATOM     16  H   UNL     1       8.697  -6.304  26.767  0.00  0.00    +0.145 HD
ATOM     17  H   UNL     1       7.254  -5.339  26.588  0.00  0.00    +0.145 HD
ENDBRANCH   9  13
BRANCH  10  18
ATOM     18  O   UNL     1       5.713  -5.721  24.619  0.00  0.00    -0.491 OA
BRANCH  18  19
ATOM     19  C   UNL     1       4.854  -6.710  24.035  0.00  0.00    +0.232 C 
BRANCH  19  20
ATOM     20  C   UNL     1       3.486  -6.762  24.751  0.00  0.00    +0.027 C 
ATOM     21  C   UNL     1       2.486  -7.712  24.069  0.00  0.00    +0.007 C 
ATOM     22  C   UNL     1       1.818  -7.128  22.824  0.00  0.00    +0.000 C 
ATOM     23  C   UNL     1       1.123  -5.808  23.130  0.00  0.00    +0.000 C 
ATOM     24  C   UNL     1       2.080  -4.807  23.768  0.00  0.00    +0.000 C 
ATOM     25  C   UNL     1       2.831  -5.381  24.974  0.00  0.00    +0.007 C 
ENDBRANCH  19  20
ENDBRANCH  18  19
ENDBRANCH  10  18
ENDBRANCH   6   7
ENDBRANCH   1   6
BRANCH   3  26
ATOM     26  C   UNL     1       7.103   1.958  24.700  0.00  0.00    +0.163 C 
BRANCH  26  27
ATOM     27  N   UNL     1       7.779   3.257  24.536  0.00  0.00    -0.304 N 
ATOM     28  H   UNL     1       7.191   4.028  24.243  0.00  0.00    +0.149 HD
ATOM     29  C   UNL     1       9.133   3.324  24.279  0.00  0.00    +0.211 C 
ATOM     30  O   UNL     1       9.877   2.349  24.317  0.00  0.00    -0.276 OA
ATOM     31  C   UNL     1       9.646   4.698  23.940  0.00  0.00    +0.109 C 
ENDBRANCH  26  27
BRANCH  26  32
ATOM     32  C   UNL     1       7.591   1.275  26.012  0.00  0.00    +0.067 C 
BRANCH  32  33
ATOM     33  C   UNL     1       6.977  -0.053  26.404  0.00  0.00    -0.044 A 
ATOM     34  C   UNL     1       5.638  -0.050  26.753  0.00  0.00    +0.023 A 
ATOM     35  C   UNL     1       4.910  -1.226  27.066  0.00  0.00    +0.105 A 
ATOM     36  C   UNL     1       5.570  -2.447  27.115  0.00  0.00    +0.136 A 
ATOM     37  C   UNL     1       6.945  -2.460  26.827  0.00  0.00    +0.047 A 
ATOM     38  C   UNL     1       7.639  -1.277  26.468  0.00  0.00    +0.007 A 
BRANCH  35  39
ATOM     39  P   UNL     1       3.110  -1.026  27.331  0.00  0.00    +0.362 P 
ATOM     40  O   UNL     1       1.588  -0.858  27.554  0.00  0.00    -0.253 OA
BRANCH  39  41
ATOM     41  O   UNL     1       3.273   0.415  26.536  0.00  0.00    -0.321 OA
ATOM     42  H   UNL     1       4.100   0.494  26.030  0.00  0.00    +0.220 HD
ENDBRANCH  39  41
BRANCH  39  43
ATOM     43  O   UNL     1       2.848  -1.989  26.012  0.00  0.00    -0.321 OA
ATOM     44  H   UNL     1       2.354  -1.597  25.266  0.00  0.00    +0.220 HD
ENDBRANCH  39  43
ENDBRANCH  35  39
BRANCH  36  45
ATOM     45  O   UNL     1       4.801  -3.543  27.409  0.00  0.00    -0.480 OA
BRANCH  45  46
ATOM     46  C   UNL     1       5.401  -4.507  28.283  0.00  0.00    +0.349 C 
BRANCH  46  47
ATOM     47  C   UNL     1       4.823  -5.898  28.061  0.00  0.00    +0.343 C 
ATOM     48  O   UNL     1       3.682  -6.212  28.371  0.00  0.00    -0.247 OA
BRANCH  47  49
ATOM     49  O   UNL     1       5.693  -6.776  27.516  0.00  0.00    -0.478 OA
ATOM     50  H   UNL     1       5.225  -7.544  27.130  0.00  0.00    +0.295 HD
ENDBRANCH  47  49
ENDBRANCH  46  47
ENDBRANCH  45  46
ENDBRANCH  36  45
ENDBRANCH  32  33
ENDBRANCH  26  32
ENDBRANCH   3  26
TORSDOF 17
ENDMDL
MODEL 8
REMARK VINA RESULT:      -6.5      3.773      8.557
REMARK  Name = 
REMARK  19 active torsions:
REMARK  status: ('A' for Active; 'I' for Inactive)
REMARK    1  A    between atoms: C_1  and  C_2
REMARK    2  A    between atoms: C_2  and  N_4
REMARK    3  A    between atoms: C_2  and  C_29
REMARK    4  A    between atoms: C_5  and  C_7
REMARK    5  A    between atoms: C_7  and  C_9
REMARK    6  A    between atoms: C_7  and  N_25
REMARK    7  A    between atoms: C_9  and  C_10
REMARK    8  A    between atoms: C_13  and  O_14
REMARK    9  A    between atoms: O_14  and  C_15
REMARK   10  A    between atoms: C_15  and  C_16
REMARK   11  A    between atoms: C_16  and  O_17
REMARK   12  A    between atoms: C_19  and  P_21
REMARK   13  A    between atoms: P_21  and  O_22
REMARK   14  A    between atoms: P_21  and  O_23
REMARK   15  A    between atoms: C_26  and  C_27
REMARK   16  A    between atoms: C_32  and  O_33
REMARK   17  A    between atoms: O_33  and  C_34
REMARK   18  A    between atoms: C_34  and  C_35
REMARK   19  A    between atoms: C_41  and  C_43
REMARK                            x       y       z     vdW  Elec       q    Type
REMARK                         _______ _______ _______ _____ _____    ______ ____
ROOT
ATOM      1  N   UNL     1       7.297  -3.743  22.248  0.00  0.00    -0.307 N 
ATOM      2  H   UNL     1       8.251  -4.085  22.201  0.00  0.00    +0.149 HD
ATOM      3  C   UNL     1       7.141  -2.376  22.497  0.00  0.00    +0.234 C 
ATOM      4  O   UNL     1       6.026  -1.859  22.588  0.00  0.00    -0.274 OA
ENDROOT
BRANCH   1   6
ATOM      5  C   UNL     1       6.406  -5.673  20.915  0.00  0.00    +0.033 C 
ATOM      6  C   UNL     1       6.248  -4.811  22.176  0.00  0.00    +0.100 C 
BRANCH   6   7
ATOM      7  C   UNL     1       5.821  -5.501  23.493  0.00  0.00    -0.027 A 
ATOM      8  C   UNL     1       6.521  -5.258  24.678  0.00  0.00    +0.022 A 
ATOM      9  C   UNL     1       6.019  -5.635  25.957  0.00  0.00    +0.078 A 
ATOM     10  C   UNL     1       4.775  -6.296  26.098  0.00  0.00    +0.133 A 
ATOM     11  C   UNL     1       4.085  -6.597  24.920  0.00  0.00    +0.047 A 
ATOM     12  C   UNL     1       4.599  -6.202  23.646  0.00  0.00    +0.009 A 
BRANCH   9  13
ATOM     13  C   UNL     1       6.873  -5.223  27.114  0.00  0.00    +0.245 C 
ATOM     14  O   UNL     1       7.085  -4.038  27.348  0.00  0.00    -0.270 OA
ATOM     15  N   UNL     1       7.416  -6.185  27.902  0.00  0.00    -0.325 N 
ATOM     16  H   UNL     1       7.957  -5.912  28.710  0.00  0.00    +0.145 HD
ATOM     17  H   UNL     1       7.168  -7.164  27.785  0.00  0.00    +0.145 HD
ENDBRANCH   9  13
BRANCH  10  18
ATOM     18  O   UNL     1       4.354  -6.558  27.375  0.00  0.00    -0.491 OA
BRANCH  18  19
ATOM     19  C   UNL     1       3.014  -6.882  27.769  0.00  0.00    +0.232 C 
BRANCH  19  20
ATOM     20  C   UNL     1       2.442  -5.828  28.742  0.00  0.00    +0.027 C 
ATOM     21  C   UNL     1       2.065  -4.508  28.047  0.00  0.00    +0.007 C 
ATOM     22  C   UNL     1       3.255  -3.596  27.749  0.00  0.00    +0.000 C 
ATOM     23  C   UNL     1       4.050  -3.285  29.011  0.00  0.00    +0.000 C 
ATOM     24  C   UNL     1       4.491  -4.559  29.721  0.00  0.00    +0.000 C 
ATOM     25  C   UNL     1       3.338  -5.538  29.967  0.00  0.00    +0.007 C 
ENDBRANCH  19  20
ENDBRANCH  18  19
ENDBRANCH  10  18
ENDBRANCH   6   7
ENDBRANCH   1   6
BRANCH   3  26
ATOM     26  C   UNL     1       8.456  -1.589  22.886  0.00  0.00    +0.163 C 
BRANCH  26  27
ATOM     27  N   UNL     1       8.312  -1.037  24.244  0.00  0.00    -0.304 N 
ATOM     28  H   UNL     1       8.221  -0.030  24.305  0.00  0.00    +0.149 HD
ATOM     29  C   UNL     1       8.783  -1.725  25.344  0.00  0.00    +0.211 C 
ATOM     30  O   UNL     1       9.206  -2.876  25.290  0.00  0.00    -0.276 OA
ATOM     31  C   UNL     1       8.746  -0.955  26.636  0.00  0.00    +0.109 C 
ENDBRANCH  26  27
BRANCH  26  32
ATOM     32  C   UNL     1       8.912  -0.465  21.909  0.00  0.00    +0.067 C 
BRANCH  32  33
ATOM     33  C   UNL     1       9.226   0.903  22.479  0.00  0.00    -0.044 A 
ATOM     34  C   UNL     1       8.245   1.872  22.373  0.00  0.00    +0.023 A 
ATOM     35  C   UNL     1       8.366   3.170  22.929  0.00  0.00    +0.105 A 
ATOM     36  C   UNL     1       9.554   3.544  23.543  0.00  0.00    +0.136 A 
ATOM     37  C   UNL     1      10.587   2.593  23.602  0.00  0.00    +0.047 A 
ATOM     38  C   UNL     1      10.422   1.285  23.083  0.00  0.00    +0.007 A 
BRANCH  35  39
ATOM     39  P   UNL     1       6.886   4.243  22.830  0.00  0.00    +0.362 P 
ATOM     40  O   UNL     1       5.634   5.149  22.745  0.00  0.00    -0.253 OA
BRANCH  39  41
ATOM     41  O   UNL     1       7.802   5.215  21.855  0.00  0.00    -0.321 OA
ATOM     42  H   UNL     1       8.573   5.606  22.300  0.00  0.00    +0.220 HD
ENDBRANCH  39  41
BRANCH  39  43
ATOM     43  O   UNL     1       6.286   3.241  21.659  0.00  0.00    -0.321 OA
ATOM     44  H   UNL     1       6.793   2.429  21.466  0.00  0.00    +0.220 HD
ENDBRANCH  39  43
ENDBRANCH  35  39
BRANCH  36  45
ATOM     45  O   UNL     1       9.596   4.809  24.071  0.00  0.00    -0.480 OA
BRANCH  45  46
ATOM     46  C   UNL     1      10.745   5.590  23.723  0.00  0.00    +0.349 C 
BRANCH  46  47
ATOM     47  C   UNL     1      11.194   6.467  24.883  0.00  0.00    +0.343 C 
ATOM     48  O   UNL     1      12.362   6.766  25.092  0.00  0.00    -0.247 OA
BRANCH  47  49
ATOM     49  O   UNL     1      10.189   6.868  25.693  0.00  0.00    -0.478 OA
ATOM     50  H   UNL     1       9.327   6.830  25.231  0.00  0.00    +0.295 HD
ENDBRANCH  47  49
ENDBRANCH  46  47
ENDBRANCH  45  46
ENDBRANCH  36  45
ENDBRANCH  32  33
ENDBRANCH  26  32
ENDBRANCH   3  26
TORSDOF 17
ENDMDL
MODEL 9
REMARK VINA RESULT:      -6.5      3.726      6.701
REMARK  Name = 
REMARK  19 active torsions:
REMARK  status: ('A' for Active; 'I' for Inactive)
REMARK    1  A    between atoms: C_1  and  C_2
REMARK    2  A    between atoms: C_2  and  N_4
REMARK    3  A    between atoms: C_2  and  C_29
REMARK    4  A    between atoms: C_5  and  C_7
REMARK    5  A    between atoms: C_7  and  C_9
REMARK    6  A    between atoms: C_7  and  N_25
REMARK    7  A    between atoms: C_9  and  C_10
REMARK    8  A    between atoms: C_13  and  O_14
REMARK    9  A    between atoms: O_14  and  C_15
REMARK   10  A    between atoms: C_15  and  C_16
REMARK   11  A    between atoms: C_16  and  O_17
REMARK   12  A    between atoms: C_19  and  P_21
REMARK   13  A    between atoms: P_21  and  O_22
REMARK   14  A    between atoms: P_21  and  O_23
REMARK   15  A    between atoms: C_26  and  C_27
REMARK   16  A    between atoms: C_32  and  O_33
REMARK   17  A    between atoms: O_33  and  C_34
REMARK   18  A    between atoms: C_34  and  C_35
REMARK   19  A    between atoms: C_41  and  C_43
REMARK                            x       y       z     vdW  Elec       q    Type
REMARK                         _______ _______ _______ _____ _____    ______ ____
ROOT
ATOM      1  N   UNL     1       8.937  -1.151  23.494  0.00  0.00    -0.307 N 
ATOM      2  H   UNL     1       7.994  -0.924  23.789  0.00  0.00    +0.149 HD
ATOM      3  C   UNL     1       9.366  -2.458  23.745  0.00  0.00    +0.234 C 
ATOM      4  O   UNL     1      10.499  -2.836  23.441  0.00  0.00    -0.274 OA
ENDROOT
BRANCH   1   6
ATOM      5  C   UNL     1       9.758   0.027  21.436  0.00  0.00    +0.033 C 
ATOM      6  C   UNL     1       9.725   0.012  22.971  0.00  0.00    +0.100 C 
BRANCH   6   7
ATOM      7  C   UNL     1       9.614   1.361  23.720  0.00  0.00    -0.027 A 
ATOM      8  C   UNL     1      10.501   2.404  23.434  0.00  0.00    +0.022 A 
ATOM      9  C   UNL     1      10.281   3.740  23.877  0.00  0.00    +0.078 A 
ATOM     10  C   UNL     1       9.148   4.087  24.651  0.00  0.00    +0.133 A 
ATOM     11  C   UNL     1       8.278   3.047  24.993  0.00  0.00    +0.047 A 
ATOM     12  C   UNL     1       8.508   1.714  24.531  0.00  0.00    +0.009 A 
BRANCH   9  13
ATOM     13  C   UNL     1      11.299   4.732  23.408  0.00  0.00    +0.245 C 
ATOM     14  O   UNL     1      12.489   4.440  23.368  0.00  0.00    -0.270 OA
ATOM     15  N   UNL     1      10.882   5.968  23.032  0.00  0.00    -0.325 N 
ATOM     16  H   UNL     1      11.559   6.626  22.674  0.00  0.00    +0.145 HD
ATOM     17  H   UNL     1       9.893   6.191  22.962  0.00  0.00    +0.145 HD
ENDBRANCH   9  13
BRANCH  10  18
ATOM     18  O   UNL     1       8.999   5.410  24.972  0.00  0.00    -0.491 OA
BRANCH  18  19
ATOM     19  C   UNL     1       7.954   5.966  25.781  0.00  0.00    +0.232 C 
BRANCH  19  20
ATOM     20  C   UNL     1       7.066   6.934  24.967  0.00  0.00    +0.027 C 
ATOM     21  C   UNL     1       5.570   6.582  25.036  0.00  0.00    +0.007 C 
ATOM     22  C   UNL     1       5.157   5.427  24.123  0.00  0.00    +0.000 C 
ATOM     23  C   UNL     1       5.539   5.697  22.673  0.00  0.00    +0.000 C 
ATOM     24  C   UNL     1       7.025   6.009  22.536  0.00  0.00    +0.000 C 
ATOM     25  C   UNL     1       7.497   7.108  23.494  0.00  0.00    +0.007 C 
ENDBRANCH  19  20
ENDBRANCH  18  19
ENDBRANCH  10  18
ENDBRANCH   6   7
ENDBRANCH   1   6
BRANCH   3  26
ATOM     26  C   UNL     1       8.410  -3.339  24.645  0.00  0.00    +0.163 C 
BRANCH  26  27
ATOM     27  N   UNL     1       7.960  -4.513  23.877  0.00  0.00    -0.304 N 
ATOM     28  H   UNL     1       8.407  -5.392  24.110  0.00  0.00    +0.149 HD
ATOM     29  C   UNL     1       7.400  -4.369  22.624  0.00  0.00    +0.211 C 
ATOM     30  O   UNL     1       7.106  -3.281  22.137  0.00  0.00    -0.276 OA
ATOM     31  C   UNL     1       7.173  -5.656  21.879  0.00  0.00    +0.109 C 
ENDBRANCH  26  27
BRANCH  26  32
ATOM     32  C   UNL     1       7.178  -2.618  25.269  0.00  0.00    +0.067 C 
BRANCH  32  33
ATOM     33  C   UNL     1       5.983  -3.454  25.675  0.00  0.00    -0.044 A 
ATOM     34  C   UNL     1       6.178  -4.392  26.673  0.00  0.00    +0.023 A 
ATOM     35  C   UNL     1       5.136  -5.189  27.210  0.00  0.00    +0.105 A 
ATOM     36  C   UNL     1       3.861  -5.108  26.666  0.00  0.00    +0.136 A 
ATOM     37  C   UNL     1       3.659  -4.208  25.606  0.00  0.00    +0.047 A 
ATOM     38  C   UNL     1       4.706  -3.385  25.121  0.00  0.00    +0.007 A 
BRANCH  35  39
ATOM     39  P   UNL     1       5.569  -6.242  28.644  0.00  0.00    +0.362 P 
ATOM     40  O   UNL     1       5.936  -7.132  29.856  0.00  0.00    -0.253 OA
BRANCH  39  41
ATOM     41  O   UNL     1       5.159  -7.520  27.678  0.00  0.00    -0.321 OA
ATOM     42  H   UNL     1       5.319  -8.388  28.085  0.00  0.00    +0.220 HD
ENDBRANCH  39  41
BRANCH  39  43
ATOM     43  O   UNL     1       7.159  -6.121  28.204  0.00  0.00    -0.321 OA
ATOM     44  H   UNL     1       7.550  -5.225  28.191  0.00  0.00    +0.220 HD
ENDBRANCH  39  43
ENDBRANCH  35  39
BRANCH  36  45
ATOM     45  O   UNL     1       2.900  -5.897  27.243  0.00  0.00    -0.480 OA
BRANCH  45  46
ATOM     46  C   UNL     1       1.844  -6.326  26.375  0.00  0.00    +0.349 C 
BRANCH  46  47
ATOM     47  C   UNL     1       1.947  -7.813  26.065  0.00  0.00    +0.343 C 
ATOM     48  O   UNL     1       1.066  -8.620  26.323  0.00  0.00    -0.247 OA
BRANCH  47  49
ATOM     49  O   UNL     1       3.121  -8.178  25.503  0.00  0.00    -0.478 OA
ATOM     50  H   UNL     1       3.760  -8.476  26.181  0.00  0.00    +0.295 HD
ENDBRANCH  47  49
ENDBRANCH  46  47
ENDBRANCH  45  46
ENDBRANCH  36  45
ENDBRANCH  32  33
ENDBRANCH  26  32
ENDBRANCH   3  26
TORSDOF 17
ENDMDL
