MODEL 1
REMARK VINA RESULT:      -5.8      0.000      0.000
REMARK  Name = 
REMARK  12 active torsions:
REMARK  status: ('A' for Active; 'I' for Inactive)
REMARK    1  A    between atoms: C_1  and  C_2
REMARK    2  A    between atoms: C_2  and  C_3
REMARK    3  A    between atoms: C_4  and  C_5
REMARK    4  A    between atoms: C_9  and  N_10
REMARK    5  A    between atoms: N_10  and  C_11
REMARK    6  A    between atoms: N_10  and  C_12
REMARK    7  A    between atoms: C_12  and  C_13
REMARK    8  A    between atoms: C_13  and  O_14
REMARK    9  A    between atoms: O_14  and  C_15
REMARK   10  A    between atoms: C_16  and  C_17
REMARK   11  A    between atoms: C_17  and  C_18
REMARK   12  A    between atoms: C_22  and  C_23
REMARK                            x       y       z     vdW  Elec       q    Type
REMARK                         _______ _______ _______ _____ _____    ______ ____
ROOT
ATOM      1  C   UNL     1       8.702  -0.438  23.742  0.00  0.00    -0.023 A 
ATOM      2  C   UNL     1       7.503  -1.149  24.243  0.00  0.00    -0.012 A 
ATOM      3  C   UNL     1       7.243  -1.196  25.574  0.00  0.00    +0.099 A 
ATOM      4  C   UNL     1       8.248  -0.571  26.528  0.00  0.00    +0.270 A 
ATOM      5  O   UNL     1       8.022  -0.392  27.716  0.00  0.00    -0.266 OA
ATOM      6  N   UNL     1       9.426  -0.156  25.967  0.00  0.00    -0.325 N 
ATOM      7  H   UNL     1      10.078   0.248  26.629  0.00  0.00    +0.169 HD
ATOM      8  C   UNL     1       9.658  -0.032  24.615  0.00  0.00    +0.020 A 
ATOM      9  C   UNL     1      10.933   0.688  24.270  0.00  0.00    +0.063 C 
ENDROOT
BRANCH   1  11
ATOM     10  C   UNL     1       9.492  -1.064  21.487  0.00  0.00    +0.009 C 
ATOM     11  C   UNL     1       8.727  -0.016  22.290  0.00  0.00    +0.034 C 
ENDBRANCH   1  11
BRANCH   3  12
ATOM     12  N   UNL     1       6.062  -1.741  26.112  0.00  0.00    -0.326 N 
ATOM     13  C   UNL     1       4.965  -0.810  26.407  0.00  0.00    +0.129 C 
BRANCH  12  14
ATOM     14  C   UNL     1       6.106  -2.865  27.090  0.00  0.00    +0.133 C 
BRANCH  14  15
ATOM     15  C   UNL     1       6.778  -4.155  26.597  0.00  0.00    +0.178 C 
BRANCH  15  16
ATOM     16  O   UNL     1       8.110  -4.238  27.110  0.00  0.00    -0.381 OA
ATOM     17  C   UNL     1       9.065  -4.511  26.102  0.00  0.00    +0.194 C 
ENDBRANCH  15  16
ENDBRANCH  14  15
ENDBRANCH  12  14
ENDBRANCH   3  12
BRANCH   2  18
ATOM     18  C   UNL     1       6.479  -1.708  23.255  0.00  0.00    +0.072 C 
BRANCH  18  19
ATOM     19  C   UNL     1       6.286  -3.211  23.118  0.00  0.00    -0.043 A 
ATOM     20  C   UNL     1       5.078  -3.877  23.360  0.00  0.00    +0.007 A 
ATOM     21  C   UNL     1       4.901  -5.210  22.953  0.00  0.00    -0.050 A 
ATOM     22  C   UNL     1       3.533  -5.827  22.997  0.00  0.00    +0.044 C 
ATOM     23  C   UNL     1       5.972  -5.914  22.384  0.00  0.00    +0.003 A 
ATOM     24  C   UNL     1       7.202  -5.288  22.215  0.00  0.00    +0.001 A 
ATOM     25  C   UNL     1       7.351  -3.948  22.567  0.00  0.00    +0.004 A 
ENDBRANCH  18  19
ENDBRANCH   2  18
TORSDOF 7
ENDMDL
MODEL 2
REMARK VINA RESULT:      -5.7      1.705      5.237
REMARK  Name = 
REMARK  12 active torsions:
REMARK  status: ('A' for Active; 'I' for Inactive)
REMARK    1  A    between atoms: C_1  and  C_2
REMARK    2  A    between atoms: C_2  and  C_3
REMARK    3  A    between atoms: C_4  and  C_5
REMARK    4  A    between atoms: C_9  and  N_10
REMARK    5  A    between atoms: N_10  and  C_11
REMARK    6  A    between atoms: N_10  and  C_12
REMARK    7  A    between atoms: C_12  and  C_13
REMARK    8  A    between atoms: C_13  and  O_14
REMARK    9  A    between atoms: O_14  and  C_15
REMARK   10  A    between atoms: C_16  and  C_17
REMARK   11  A    between atoms: C_17  and  C_18
REMARK   12  A    between atoms: C_22  and  C_23
REMARK                            x       y       z     vdW  Elec       q    Type
REMARK                         _______ _______ _______ _____ _____    ______ ____
ROOT
ATOM      1  C   UNL     1       5.987  -4.455  22.974  0.00  0.00    -0.023 A 
ATOM      2  C   UNL     1       7.219  -3.938  23.613  0.00  0.00    -0.012 A 
ATOM      3  C   UNL     1       7.442  -4.147  24.935  0.00  0.00    +0.099 A 
ATOM      4  C   UNL     1       6.367  -4.852  25.746  0.00  0.00    +0.270 A 
ATOM      5  O   UNL     1       6.544  -5.255  26.887  0.00  0.00    -0.266 OA
ATOM      6  N   UNL     1       5.179  -5.070  25.101  0.00  0.00    -0.325 N 
ATOM      7  H   UNL     1       4.479  -5.533  25.670  0.00  0.00    +0.169 HD
ATOM      8  C   UNL     1       4.979  -4.934  23.745  0.00  0.00    +0.020 A 
ATOM      9  C   UNL     1       3.666  -5.483  23.256  0.00  0.00    +0.063 C 
ENDROOT
BRANCH   1  11
ATOM     10  C   UNL     1       6.455  -6.017  21.118  0.00  0.00    +0.009 C 
ATOM     11  C   UNL     1       5.974  -4.611  21.470  0.00  0.00    +0.034 C 
ENDBRANCH   1  11
BRANCH   3  12
ATOM     12  N   UNL     1       8.643  -3.797  25.580  0.00  0.00    -0.326 N 
ATOM     13  C   UNL     1       9.541  -4.892  25.970  0.00  0.00    +0.129 C 
BRANCH  12  14
ATOM     14  C   UNL     1       8.697  -2.671  26.555  0.00  0.00    +0.133 C 
BRANCH  14  15
ATOM     15  C   UNL     1       7.651  -1.564  26.357  0.00  0.00    +0.178 C 
BRANCH  15  16
ATOM     16  O   UNL     1       8.288  -0.285  26.364  0.00  0.00    -0.381 OA
ATOM     17  C   UNL     1       9.485  -0.268  25.610  0.00  0.00    +0.194 C 
ENDBRANCH  15  16
ENDBRANCH  14  15
ENDBRANCH  12  14
ENDBRANCH   3  12
BRANCH   2  18
ATOM     18  C   UNL     1       8.310  -3.293  22.757  0.00  0.00    +0.072 C 
BRANCH  18  19
ATOM     19  C   UNL     1       8.235  -1.815  22.404  0.00  0.00    -0.043 A 
ATOM     20  C   UNL     1       7.238  -0.944  22.861  0.00  0.00    +0.007 A 
ATOM     21  C   UNL     1       7.383   0.446  22.723  0.00  0.00    -0.050 A 
ATOM     22  C   UNL     1       6.432   1.369  23.430  0.00  0.00    +0.044 C 
ATOM     23  C   UNL     1       8.489   0.967  22.037  0.00  0.00    +0.003 A 
ATOM     24  C   UNL     1       9.444   0.108  21.505  0.00  0.00    +0.001 A 
ATOM     25  C   UNL     1       9.323  -1.267  21.700  0.00  0.00    +0.004 A 
ENDBRANCH  18  19
ENDBRANCH   2  18
TORSDOF 7
ENDMDL
MODEL 3
REMARK VINA RESULT:      -5.6      2.112      4.498
REMARK  Name = 
REMARK  12 active torsions:
REMARK  status: ('A' for Active; 'I' for Inactive)
REMARK    1  A    between atoms: C_1  and  C_2
REMARK    2  A    between atoms: C_2  and  C_3
REMARK    3  A    between atoms: C_4  and  C_5
REMARK    4  A    between atoms: C_9  and  N_10
REMARK    5  A    between atoms: N_10  and  C_11
REMARK    6  A    between atoms: N_10  and  C_12
REMARK    7  A    between atoms: C_12  and  C_13
REMARK    8  A    between atoms: C_13  and  O_14
REMARK    9  A    between atoms: O_14  and  C_15
REMARK   10  A    between atoms: C_16  and  C_17
REMARK   11  A    between atoms: C_17  and  C_18
REMARK   12  A    between atoms: C_22  and  C_23
REMARK                            x       y       z     vdW  Elec       q    Type
REMARK                         _______ _______ _______ _____ _____    ______ ____
ROOT
ATOM      1  C   UNL     1       6.753  -0.455  25.540  0.00  0.00    -0.023 A 
ATOM      2  C   UNL     1       7.325  -0.690  24.194  0.00  0.00    -0.012 A 
ATOM      3  C   UNL     1       8.596  -0.306  23.916  0.00  0.00    +0.099 A 
ATOM      4  C   UNL     1       9.378   0.432  24.989  0.00  0.00    +0.270 A 
ATOM      5  O   UNL     1      10.579   0.652  24.912  0.00  0.00    -0.266 OA
ATOM      6  N   UNL     1       8.668   0.799  26.101  0.00  0.00    -0.325 N 
ATOM      7  H   UNL     1       9.214   1.297  26.794  0.00  0.00    +0.169 HD
ATOM      8  C   UNL     1       7.408   0.342  26.420  0.00  0.00    +0.020 A 
ATOM      9  C   UNL     1       6.960   0.689  27.814  0.00  0.00    +0.063 C 
ENDROOT
BRANCH   1  11
ATOM     10  C   UNL     1       6.027  -2.460  26.787  0.00  0.00    +0.009 C 
ATOM     11  C   UNL     1       5.550  -1.271  25.957  0.00  0.00    +0.034 C 
ENDBRANCH   1  11
BRANCH   3  12
ATOM     12  N   UNL     1       9.247  -0.609  22.705  0.00  0.00    -0.326 N 
ATOM     13  C   UNL     1      10.315  -1.616  22.748  0.00  0.00    +0.129 C 
BRANCH  12  14
ATOM     14  C   UNL     1       9.533   0.450  21.696  0.00  0.00    +0.133 C 
BRANCH  14  15
ATOM     15  C   UNL     1       8.424   1.491  21.485  0.00  0.00    +0.178 C 
BRANCH  15  16
ATOM     16  O   UNL     1       8.701   2.663  22.255  0.00  0.00    -0.381 OA
ATOM     17  C   UNL     1       7.573   3.120  22.976  0.00  0.00    +0.194 C 
ENDBRANCH  15  16
ENDBRANCH  14  15
ENDBRANCH  12  14
ENDBRANCH   3  12
BRANCH   2  18
ATOM     18  C   UNL     1       6.536  -1.494  23.159  0.00  0.00    +0.072 C 
BRANCH  18  19
ATOM     19  C   UNL     1       6.712  -3.002  23.064  0.00  0.00    -0.043 A 
ATOM     20  C   UNL     1       6.144  -3.801  22.064  0.00  0.00    +0.007 A 
ATOM     21  C   UNL     1       6.567  -5.128  21.880  0.00  0.00    -0.050 A 
ATOM     22  C   UNL     1       6.132  -5.888  20.660  0.00  0.00    +0.044 C 
ATOM     23  C   UNL     1       7.497  -5.692  22.765  0.00  0.00    +0.003 A 
ATOM     24  C   UNL     1       8.005  -4.934  23.814  0.00  0.00    +0.001 A 
ATOM     25  C   UNL     1       7.625  -3.601  23.951  0.00  0.00    +0.004 A 
ENDBRANCH  18  19
ENDBRANCH   2  18
TORSDOF 7
ENDMDL
MODEL 4
REMARK VINA RESULT:      -5.4      2.226      5.291
REMARK  Name = 
REMARK  12 active torsions:
REMARK  status: ('A' for Active; 'I' for Inactive)
REMARK    1  A    between atoms: C_1  and  C_2
REMARK    2  A    between atoms: C_2  and  C_3
REMARK    3  A    between atoms: C_4  and  C_5
REMARK    4  A    between atoms: C_9  and  N_10
REMARK    5  A    between atoms: N_10  and  C_11
REMARK    6  A    between atoms: N_10  and  C_12
REMARK    7  A    between atoms: C_12  and  C_13
REMARK    8  A    between atoms: C_13  and  O_14
REMARK    9  A    between atoms: O_14  and  C_15
REMARK   10  A    between atoms: C_16  and  C_17
REMARK   11  A    between atoms: C_17  and  C_18
REMARK   12  A    between atoms: C_22  and  C_23
REMARK                            x       y       z     vdW  Elec       q    Type
REMARK                         _______ _______ _______ _____ _____    ______ ____
ROOT
ATOM      1  C   UNL     1       6.603  -0.924  26.108  0.00  0.00    -0.023 A 
ATOM      2  C   UNL     1       7.506  -1.838  25.372  0.00  0.00    -0.012 A 
ATOM      3  C   UNL     1       6.995  -2.866  24.649  0.00  0.00    +0.099 A 
ATOM      4  C   UNL     1       5.493  -3.093  24.679  0.00  0.00    +0.270 A 
ATOM      5  O   UNL     1       4.916  -3.862  23.923  0.00  0.00    -0.266 OA
ATOM      6  N   UNL     1       4.792  -2.335  25.578  0.00  0.00    -0.325 N 
ATOM      7  H   UNL     1       3.794  -2.515  25.581  0.00  0.00    +0.169 HD
ATOM      8  C   UNL     1       5.292  -1.241  26.250  0.00  0.00    +0.020 A 
ATOM      9  C   UNL     1       4.251  -0.431  26.973  0.00  0.00    +0.063 C 
ENDROOT
BRANCH   1  11
ATOM     10  C   UNL     1       6.735   1.454  25.450  0.00  0.00    +0.009 C 
ATOM     11  C   UNL     1       7.136   0.433  26.512  0.00  0.00    +0.034 C 
ENDBRANCH   1  11
BRANCH   3  12
ATOM     12  N   UNL     1       7.779  -3.695  23.825  0.00  0.00    -0.326 N 
ATOM     13  C   UNL     1       7.570  -3.594  22.374  0.00  0.00    +0.129 C 
BRANCH  12  14
ATOM     14  C   UNL     1       8.123  -5.087  24.233  0.00  0.00    +0.133 C 
BRANCH  14  15
ATOM     15  C   UNL     1       8.351  -5.306  25.736  0.00  0.00    +0.178 C 
BRANCH  15  16
ATOM     16  O   UNL     1       7.201  -5.921  26.320  0.00  0.00    -0.381 OA
ATOM     17  C   UNL     1       6.773  -5.266  27.499  0.00  0.00    +0.194 C 
ENDBRANCH  15  16
ENDBRANCH  14  15
ENDBRANCH  12  14
ENDBRANCH   3  12
BRANCH   2  18
ATOM     18  C   UNL     1       9.005  -1.542  25.307  0.00  0.00    +0.072 C 
BRANCH  18  19
ATOM     19  C   UNL     1       9.538  -0.488  24.348  0.00  0.00    -0.043 A 
ATOM     20  C   UNL     1       9.001  -0.231  23.081  0.00  0.00    +0.007 A 
ATOM     21  C   UNL     1       9.363   0.927  22.372  0.00  0.00    -0.050 A 
ATOM     22  C   UNL     1       8.602   1.312  21.135  0.00  0.00    +0.044 C 
ATOM     23  C   UNL     1      10.342   1.786  22.891  0.00  0.00    +0.003 A 
ATOM     24  C   UNL     1      10.944   1.496  24.110  0.00  0.00    +0.001 A 
ATOM     25  C   UNL     1      10.535   0.378  24.835  0.00  0.00    +0.004 A 
ENDBRANCH  18  19
ENDBRANCH   2  18
TORSDOF 7
ENDMDL
MODEL 5
REMARK VINA RESULT:      -5.4      2.044      5.625
REMARK  Name = 
REMARK  12 active torsions:
REMARK  status: ('A' for Active; 'I' for Inactive)
REMARK    1  A    between atoms: C_1  and  C_2
REMARK    2  A    between atoms: C_2  and  C_3
REMARK    3  A    between atoms: C_4  and  C_5
REMARK    4  A    between atoms: C_9  and  N_10
REMARK    5  A    between atoms: N_10  and  C_11
REMARK    6  A    between atoms: N_10  and  C_12
REMARK    7  A    between atoms: C_12  and  C_13
REMARK    8  A    between atoms: C_13  and  O_14
REMARK    9  A    between atoms: O_14  and  C_15
REMARK   10  A    between atoms: C_16  and  C_17
REMARK   11  A    between atoms: C_17  and  C_18
REMARK   12  A    between atoms: C_22  and  C_23
REMARK                            x       y       z     vdW  Elec       q    Type
REMARK                         _______ _______ _______ _____ _____    ______ ____
ROOT
ATOM      1  C   UNL     1       7.419  -3.754  24.245  0.00  0.00    -0.023 A 
ATOM      2  C   UNL     1       7.360  -2.429  24.905  0.00  0.00    -0.012 A 
ATOM      3  C   UNL     1       6.163  -1.891  25.251  0.00  0.00    +0.099 A 
ATOM      4  C   UNL     1       4.898  -2.644  24.875  0.00  0.00    +0.270 A 
ATOM      5  O   UNL     1       3.790  -2.348  25.300  0.00  0.00    -0.266 OA
ATOM      6  N   UNL     1       5.069  -3.733  24.063  0.00  0.00    -0.325 N 
ATOM      7  H   UNL     1       4.207  -4.208  23.822  0.00  0.00    +0.169 HD
ATOM      8  C   UNL     1       6.280  -4.325  23.780  0.00  0.00    +0.020 A 
ATOM      9  C   UNL     1       6.170  -5.653  23.080  0.00  0.00    +0.063 C 
ENDROOT
BRANCH   1  11
ATOM     10  C   UNL     1       8.808  -5.279  25.605  0.00  0.00    +0.009 C 
ATOM     11  C   UNL     1       8.725  -4.514  24.286  0.00  0.00    +0.034 C 
ENDBRANCH   1  11
BRANCH   3  12
ATOM     12  N   UNL     1       6.036  -0.701  25.992  0.00  0.00    -0.326 N 
ATOM     13  C   UNL     1       5.780  -0.829  27.432  0.00  0.00    +0.129 C 
BRANCH  12  14
ATOM     14  C   UNL     1       5.359   0.497  25.419  0.00  0.00    +0.133 C 
BRANCH  14  15
ATOM     15  C   UNL     1       6.285   1.569  24.826  0.00  0.00    +0.178 C 
BRANCH  15  16
ATOM     16  O   UNL     1       7.314   1.898  25.762  0.00  0.00    -0.381 OA
ATOM     17  C   UNL     1       7.939   3.134  25.472  0.00  0.00    +0.194 C 
ENDBRANCH  15  16
ENDBRANCH  14  15
ENDBRANCH  12  14
ENDBRANCH   3  12
BRANCH   2  18
ATOM     18  C   UNL     1       8.652  -1.730  25.330  0.00  0.00    +0.072 C 
BRANCH  18  19
ATOM     19  C   UNL     1       9.293  -0.688  24.425  0.00  0.00    -0.043 A 
ATOM     20  C   UNL     1       8.818  -0.348  23.152  0.00  0.00    +0.007 A 
ATOM     21  C   UNL     1       9.288   0.801  22.495  0.00  0.00    -0.050 A 
ATOM     22  C   UNL     1       8.597   1.285  21.252  0.00  0.00    +0.044 C 
ATOM     23  C   UNL     1      10.312   1.565  23.073  0.00  0.00    +0.003 A 
ATOM     24  C   UNL     1      10.852   1.189  24.298  0.00  0.00    +0.001 A 
ATOM     25  C   UNL     1      10.337   0.082  24.970  0.00  0.00    +0.004 A 
ENDBRANCH  18  19
ENDBRANCH   2  18
TORSDOF 7
ENDMDL
MODEL 6
REMARK VINA RESULT:      -5.4      1.336      1.660
REMARK  Name = 
REMARK  12 active torsions:
REMARK  status: ('A' for Active; 'I' for Inactive)
REMARK    1  A    between atoms: C_1  and  C_2
REMARK    2  A    between atoms: C_2  and  C_3
REMARK    3  A    between atoms: C_4  and  C_5
REMARK    4  A    between atoms: C_9  and  N_10
REMARK    5  A    between atoms: N_10  and  C_11
REMARK    6  A    between atoms: N_10  and  C_12
REMARK    7  A    between atoms: C_12  and  C_13
REMARK    8  A    between atoms: C_13  and  O_14
REMARK    9  A    between atoms: O_14  and  C_15
REMARK   10  A    between atoms: C_16  and  C_17
REMARK   11  A    between atoms: C_17  and  C_18
REMARK   12  A    between atoms: C_22  and  C_23
REMARK                            x       y       z     vdW  Elec       q    Type
REMARK                         _______ _______ _______ _____ _____    ______ ____
ROOT
ATOM      1  C   UNL     1       8.893  -0.283  23.697  0.00  0.00    -0.023 A 
ATOM      2  C   UNL     1       7.637  -0.943  24.121  0.00  0.00    -0.012 A 
ATOM      3  C   UNL     1       7.190  -0.807  25.394  0.00  0.00    +0.099 A 
ATOM      4  C   UNL     1       8.046  -0.030  26.380  0.00  0.00    +0.270 A 
ATOM      5  O   UNL     1       7.653   0.310  27.487  0.00  0.00    -0.266 OA
ATOM      6  N   UNL     1       9.291   0.328  25.937  0.00  0.00    -0.325 N 
ATOM      7  H   UNL     1       9.841   0.837  26.620  0.00  0.00    +0.169 HD
ATOM      8  C   UNL     1       9.713   0.264  24.628  0.00  0.00    +0.020 A 
ATOM      9  C   UNL     1      11.022   0.958  24.366  0.00  0.00    +0.063 C 
ENDROOT
BRANCH   1  11
ATOM     10  C   UNL     1       8.517   1.272  21.814  0.00  0.00    +0.009 C 
ATOM     11  C   UNL     1       9.123  -0.070  22.217  0.00  0.00    +0.034 C 
ENDBRANCH   1  11
BRANCH   3  12
ATOM     12  N   UNL     1       5.946  -1.298  25.833  0.00  0.00    -0.326 N 
ATOM     13  C   UNL     1       4.890  -0.313  26.101  0.00  0.00    +0.129 C 
BRANCH  12  14
ATOM     14  C   UNL     1       5.858  -2.461  26.761  0.00  0.00    +0.133 C 
BRANCH  14  15
ATOM     15  C   UNL     1       4.937  -3.606  26.314  0.00  0.00    +0.178 C 
BRANCH  15  16
ATOM     16  O   UNL     1       5.644  -4.847  26.360  0.00  0.00    -0.381 OA
ATOM     17  C   UNL     1       5.002  -5.867  25.617  0.00  0.00    +0.194 C 
ENDBRANCH  15  16
ENDBRANCH  14  15
ENDBRANCH  12  14
ENDBRANCH   3  12
BRANCH   2  18
ATOM     18  C   UNL     1       6.765  -1.661  23.089  0.00  0.00    +0.072 C 
BRANCH  18  19
ATOM     19  C   UNL     1       6.843  -3.173  22.936  0.00  0.00    -0.043 A 
ATOM     20  C   UNL     1       6.208  -3.897  21.920  0.00  0.00    +0.007 A 
ATOM     21  C   UNL     1       6.543  -5.240  21.681  0.00  0.00    -0.050 A 
ATOM     22  C   UNL     1       6.039  -5.926  20.444  0.00  0.00    +0.044 C 
ATOM     23  C   UNL     1       7.451  -5.894  22.526  0.00  0.00    +0.003 A 
ATOM     24  C   UNL     1       8.025  -5.208  23.591  0.00  0.00    +0.001 A 
ATOM     25  C   UNL     1       7.733  -3.859  23.783  0.00  0.00    +0.004 A 
ENDBRANCH  18  19
ENDBRANCH   2  18
TORSDOF 7
ENDMDL
MODEL 7
REMARK VINA RESULT:      -5.4      2.974      4.531
REMARK  Name = 
REMARK  12 active torsions:
REMARK  status: ('A' for Active; 'I' for Inactive)
REMARK    1  A    between atoms: C_1  and  C_2
REMARK    2  A    between atoms: C_2  and  C_3
REMARK    3  A    between atoms: C_4  and  C_5
REMARK    4  A    between atoms: C_9  and  N_10
REMARK    5  A    between atoms: N_10  and  C_11
REMARK    6  A    between atoms: N_10  and  C_12
REMARK    7  A    between atoms: C_12  and  C_13
REMARK    8  A    between atoms: C_13  and  O_14
REMARK    9  A    between atoms: O_14  and  C_15
REMARK   10  A    between atoms: C_16  and  C_17
REMARK   11  A    between atoms: C_17  and  C_18
REMARK   12  A    between atoms: C_22  and  C_23
REMARK                            x       y       z     vdW  Elec       q    Type
REMARK                         _______ _______ _______ _____ _____    ______ ____
ROOT
ATOM      1  C   UNL     1       6.728   2.403  23.786  0.00  0.00    -0.023 A 
ATOM      2  C   UNL     1       7.577   1.220  24.054  0.00  0.00    -0.012 A 
ATOM      3  C   UNL     1       8.836   1.155  23.553  0.00  0.00    +0.099 A 
ATOM      4  C   UNL     1       9.315   2.284  22.657  0.00  0.00    +0.270 A 
ATOM      5  O   UNL     1      10.481   2.418  22.312  0.00  0.00    -0.266 OA
ATOM      6  N   UNL     1       8.366   3.200  22.291  0.00  0.00    -0.325 N 
ATOM      7  H   UNL     1       8.713   3.935  21.685  0.00  0.00    +0.169 HD
ATOM      8  C   UNL     1       7.116   3.314  22.859  0.00  0.00    +0.020 A 
ATOM      9  C   UNL     1       6.368   4.558  22.463  0.00  0.00    +0.063 C 
ENDROOT
BRANCH   1  11
ATOM     10  C   UNL     1       6.026   3.453  25.909  0.00  0.00    +0.009 C 
ATOM     11  C   UNL     1       5.548   2.657  24.697  0.00  0.00    +0.034 C 
ENDBRANCH   1  11
BRANCH   3  12
ATOM     12  N   UNL     1       9.741   0.124  23.870  0.00  0.00    -0.326 N 
ATOM     13  C   UNL     1      10.754   0.410  24.895  0.00  0.00    +0.129 C 
BRANCH  12  14
ATOM     14  C   UNL     1      10.268  -0.792  22.819  0.00  0.00    +0.133 C 
BRANCH  14  15
ATOM     15  C   UNL     1       9.667  -2.205  22.801  0.00  0.00    +0.178 C 
BRANCH  15  16
ATOM     16  O   UNL     1      10.213  -2.981  23.870  0.00  0.00    -0.381 OA
ATOM     17  C   UNL     1       9.214  -3.603  24.656  0.00  0.00    +0.194 C 
ENDBRANCH  15  16
ENDBRANCH  14  15
ENDBRANCH  12  14
ENDBRANCH   3  12
BRANCH   2  18
ATOM     18  C   UNL     1       7.090   0.133  25.014  0.00  0.00    +0.072 C 
BRANCH  18  19
ATOM     19  C   UNL     1       6.215  -1.003  24.507  0.00  0.00    -0.043 A 
ATOM     20  C   UNL     1       6.359  -1.612  23.254  0.00  0.00    +0.007 A 
ATOM     21  C   UNL     1       5.705  -2.821  22.965  0.00  0.00    -0.050 A 
ATOM     22  C   UNL     1       6.060  -3.582  21.719  0.00  0.00    +0.044 C 
ATOM     23  C   UNL     1       4.823  -3.378  23.902  0.00  0.00    +0.003 A 
ATOM     24  C   UNL     1       4.607  -2.738  25.117  0.00  0.00    +0.001 A 
ATOM     25  C   UNL     1       5.307  -1.572  25.419  0.00  0.00    +0.004 A 
ENDBRANCH  18  19
ENDBRANCH   2  18
TORSDOF 7
ENDMDL
MODEL 8
REMARK VINA RESULT:      -5.2      2.533      5.259
REMARK  Name = 
REMARK  12 active torsions:
REMARK  status: ('A' for Active; 'I' for Inactive)
REMARK    1  A    between atoms: C_1  and  C_2
REMARK    2  A    between atoms: C_2  and  C_3
REMARK    3  A    between atoms: C_4  and  C_5
REMARK    4  A    between atoms: C_9  and  N_10
REMARK    5  A    between atoms: N_10  and  C_11
REMARK    6  A    between atoms: N_10  and  C_12
REMARK    7  A    between atoms: C_12  and  C_13
REMARK    8  A    between atoms: C_13  and  O_14
REMARK    9  A    between atoms: O_14  and  C_15
REMARK   10  A    between atoms: C_16  and  C_17
REMARK   11  A    between atoms: C_17  and  C_18
REMARK   12  A    between atoms: C_22  and  C_23
REMARK                            x       y       z     vdW  Elec       q    Type
REMARK                         _______ _______ _______ _____ _____    ______ ____
ROOT
ATOM      1  C   UNL     1       9.298  -0.589  24.316  0.00  0.00    -0.023 A 
ATOM      2  C   UNL     1       8.741  -1.432  25.398  0.00  0.00    -0.012 A 
ATOM      3  C   UNL     1       8.431  -2.732  25.161  0.00  0.00    +0.099 A 
ATOM      4  C   UNL     1       8.599  -3.267  23.749  0.00  0.00    +0.270 A 
ATOM      5  O   UNL     1       8.531  -4.456  23.470  0.00  0.00    -0.266 OA
ATOM      6  N   UNL     1       8.893  -2.337  22.789  0.00  0.00    -0.325 N 
ATOM      7  H   UNL     1       8.990  -2.723  21.856  0.00  0.00    +0.169 HD
ATOM      8  C   UNL     1       9.287  -1.040  23.037  0.00  0.00    +0.020 A 
ATOM      9  C   UNL     1       9.802  -0.308  21.828  0.00  0.00    +0.063 C 
ENDROOT
BRANCH   1  11
ATOM     10  C   UNL     1       9.085   1.856  24.595  0.00  0.00    +0.009 C 
ATOM     11  C   UNL     1      10.041   0.670  24.703  0.00  0.00    +0.034 C 
ENDBRANCH   1  11
BRANCH   3  12
ATOM     12  N   UNL     1       8.018  -3.624  26.169  0.00  0.00    -0.326 N 
ATOM     13  C   UNL     1       9.004  -4.603  26.646  0.00  0.00    +0.129 C 
BRANCH  12  14
ATOM     14  C   UNL     1       6.637  -4.184  26.186  0.00  0.00    +0.133 C 
BRANCH  14  15
ATOM     15  C   UNL     1       6.298  -5.090  27.379  0.00  0.00    +0.178 C 
BRANCH  15  16
ATOM     16  O   UNL     1       6.075  -6.428  26.928  0.00  0.00    -0.381 OA
ATOM     17  C   UNL     1       4.977  -6.527  26.039  0.00  0.00    +0.194 C 
ENDBRANCH  15  16
ENDBRANCH  14  15
ENDBRANCH  12  14
ENDBRANCH   3  12
BRANCH   2  18
ATOM     18  C   UNL     1       8.648  -0.883  26.823  0.00  0.00    +0.072 C 
BRANCH  18  19
ATOM     19  C   UNL     1       7.427  -0.087  27.260  0.00  0.00    -0.043 A 
ATOM     20  C   UNL     1       7.401   0.775  28.363  0.00  0.00    +0.007 A 
ATOM     21  C   UNL     1       6.338   1.676  28.543  0.00  0.00    -0.050 A 
ATOM     22  C   UNL     1       6.442   2.755  29.583  0.00  0.00    +0.044 C 
ATOM     23  C   UNL     1       5.244   1.649  27.666  0.00  0.00    +0.003 A 
ATOM     24  C   UNL     1       5.220   0.738  26.615  0.00  0.00    +0.001 A 
ATOM     25  C   UNL     1       6.306  -0.110  26.409  0.00  0.00    +0.004 A 
ENDBRANCH  18  19
ENDBRANCH   2  18
TORSDOF 7
ENDMDL
MODEL 9
REMARK VINA RESULT:      -5.1      2.484      6.012
REMARK  Name = 
REMARK  12 active torsions:
REMARK  status: ('A' for Active; 'I' for Inactive)
REMARK    1  A    between atoms: C_1  and  C_2
REMARK    2  A    between atoms: C_2  and  C_3
REMARK    3  A    between atoms: C_4  and  C_5
REMARK    4  A    between atoms: C_9  and  N_10
REMARK    5  A    between atoms: N_10  and  C_11
REMARK    6  A    between atoms: N_10  and  C_12
REMARK    7  A    between atoms: C_12  and  C_13
REMARK    8  A    between atoms: C_13  and  O_14
REMARK    9  A    between atoms: O_14  and  C_15
REMARK   10  A    between atoms: C_16  and  C_17
REMARK   11  A    between atoms: C_17  and  C_18
REMARK   12  A    between atoms: C_22  and  C_23
REMARK                            x       y       z     vdW  Elec       q    Type
REMARK                         _______ _______ _______ _____ _____    ______ ____
ROOT
ATOM      1  C   UNL     1       5.977  -3.872  24.912  0.00  0.00    -0.023 A 
ATOM      2  C   UNL     1       6.905  -2.875  24.331  0.00  0.00    -0.012 A 
ATOM      3  C   UNL     1       8.231  -3.149  24.240  0.00  0.00    +0.099 A 
ATOM      4  C   UNL     1       8.738  -4.460  24.816  0.00  0.00    +0.270 A 
ATOM      5  O   UNL     1       9.868  -4.885  24.621  0.00  0.00    -0.266 OA
ATOM      6  N   UNL     1       7.829  -5.188  25.535  0.00  0.00    -0.325 N 
ATOM      7  H   UNL     1       8.199  -6.053  25.914  0.00  0.00    +0.169 HD
ATOM      8  C   UNL     1       6.471  -4.956  25.559  0.00  0.00    +0.020 A 
ATOM      9  C   UNL     1       5.669  -6.049  26.211  0.00  0.00    +0.063 C 
ENDROOT
BRANCH   1  11
ATOM     10  C   UNL     1       4.212  -4.514  23.306  0.00  0.00    +0.009 C 
ATOM     11  C   UNL     1       4.504  -3.746  24.593  0.00  0.00    +0.034 C 
ENDBRANCH   1  11
BRANCH   3  12
ATOM     12  N   UNL     1       9.151  -2.306  23.587  0.00  0.00    -0.326 N 
ATOM     13  C   UNL     1       9.795  -1.260  24.393  0.00  0.00    +0.129 C 
BRANCH  12  14
ATOM     14  C   UNL     1       8.925  -1.856  22.185  0.00  0.00    +0.133 C 
BRANCH  14  15
ATOM     15  C   UNL     1       9.883  -0.774  21.667  0.00  0.00    +0.178 C 
BRANCH  15  16
ATOM     16  O   UNL     1       9.155   0.417  21.362  0.00  0.00    -0.381 OA
ATOM     17  C   UNL     1       9.748   1.576  21.919  0.00  0.00    +0.194 C 
ENDBRANCH  15  16
ENDBRANCH  14  15
ENDBRANCH  12  14
ENDBRANCH   3  12
BRANCH   2  18
ATOM     18  C   UNL     1       6.355  -1.596  23.699  0.00  0.00    +0.072 C 
BRANCH  18  19
ATOM     19  C   UNL     1       6.350  -0.293  24.486  0.00  0.00    -0.043 A 
ATOM     20  C   UNL     1       6.334  -0.215  25.884  0.00  0.00    +0.007 A 
ATOM     21  C   UNL     1       6.606   0.999  26.537  0.00  0.00    -0.050 A 
ATOM     22  C   UNL     1       6.826   1.013  28.022  0.00  0.00    +0.044 C 
ATOM     23  C   UNL     1       6.801   2.166  25.786  0.00  0.00    +0.003 A 
ATOM     24  C   UNL     1       6.735   2.118  24.397  0.00  0.00    +0.001 A 
ATOM     25  C   UNL     1       6.526   0.898  23.757  0.00  0.00    +0.004 A 
ENDBRANCH  18  19
ENDBRANCH   2  18
TORSDOF 7
ENDMDL
