MODEL 1
REMARK VINA RESULT:      -7.0      0.000      0.000
REMARK  Name = 
REMARK  8 active torsions:
REMARK  status: ('A' for Active; 'I' for Inactive)
REMARK    1  A    between atoms: C_1  and  C_2
REMARK    2  A    between atoms: C_2  and  C_3
REMARK    3  A    between atoms: C_2  and  C_4
REMARK    4  A    between atoms: C_7  and  C_8
REMARK    5  A    between atoms: C_8  and  N_9
REMARK    6  A    between atoms: N_9  and  N_10
REMARK    7  A    between atoms: C_11  and  C_13
REMARK    8  A    between atoms: C_16  and  O_17
REMARK                            x       y       z     vdW  Elec       q    Type
REMARK                         _______ _______ _______ _____ _____    ______ ____
ROOT
ATOM      1  N   UNL     1      10.080  -2.369  23.779  0.00  0.00    -0.236 NA
ATOM      2  H   UNL     1       9.983  -1.691  24.548  0.00  0.00    +0.145 HD
ENDROOT
BRANCH   1   3
ATOM      3  N   UNL     1       8.817  -2.979  23.600  0.00  0.00    -0.247 N 
ATOM      4  H   UNL     1       8.171  -2.546  22.946  0.00  0.00    +0.169 HD
ATOM      5  C   UNL     1       8.619  -4.278  24.051  0.00  0.00    +0.258 C 
ATOM      6  O   UNL     1       9.478  -4.924  24.645  0.00  0.00    -0.269 OA
BRANCH   5   7
ATOM      7  C   UNL     1       7.298  -4.885  23.736  0.00  0.00    +0.038 A 
ATOM      8  C   UNL     1       6.277  -4.989  24.693  0.00  0.00    +0.016 A 
ATOM      9  C   UNL     1       5.042  -5.534  24.334  0.00  0.00    +0.046 A 
ATOM     10  C   UNL     1       4.834  -5.972  23.031  0.00  0.00    +0.117 A 
ATOM     11  C   UNL     1       5.849  -5.909  22.080  0.00  0.00    +0.046 A 
ATOM     12  C   UNL     1       7.086  -5.368  22.437  0.00  0.00    +0.016 A 
BRANCH  10  13
ATOM     13  O   UNL     1       3.603  -6.469  22.720  0.00  0.00    -0.507 OA
ATOM     14  H   UNL     1       3.689  -7.056  21.951  0.00  0.00    +0.292 HD
ENDBRANCH  10  13
ENDBRANCH   5   7
ENDBRANCH   1   3
BRANCH   1  15
ATOM     15  C   UNL     1      10.444  -1.601  22.583  0.00  0.00    +0.137 C 
BRANCH  15  19
ATOM     16  C   UNL     1       9.462   2.570  23.202  0.00  0.00    -0.045 A 
ATOM     17  C   UNL     1      10.158   1.844  24.179  0.00  0.00    +0.004 A 
ATOM     18  C   UNL     1      10.520   0.513  23.956  0.00  0.00    +0.005 A 
ATOM     19  C   UNL     1      10.188  -0.125  22.757  0.00  0.00    -0.032 A 
ATOM     20  C   UNL     1       9.539   0.612  21.758  0.00  0.00    +0.005 A 
ATOM     21  C   UNL     1       9.183   1.944  21.977  0.00  0.00    +0.004 A 
BRANCH  16  23
ATOM     22  C   UNL     1       7.625   4.140  22.636  0.00  0.00    +0.012 C 
ATOM     23  C   UNL     1       8.896   3.952  23.471  0.00  0.00    +0.013 C 
ATOM     24  C   UNL     1       8.612   4.246  24.947  0.00  0.00    +0.012 C 
ENDBRANCH  16  23
ENDBRANCH  15  19
ENDBRANCH   1  15
TORSDOF 6
ENDMDL
MODEL 2
REMARK VINA RESULT:      -6.9      2.384      8.148
REMARK  Name = 
REMARK  8 active torsions:
REMARK  status: ('A' for Active; 'I' for Inactive)
REMARK    1  A    between atoms: C_1  and  C_2
REMARK    2  A    between atoms: C_2  and  C_3
REMARK    3  A    between atoms: C_2  and  C_4
REMARK    4  A    between atoms: C_7  and  C_8
REMARK    5  A    between atoms: C_8  and  N_9
REMARK    6  A    between atoms: N_9  and  N_10
REMARK    7  A    between atoms: C_11  and  C_13
REMARK    8  A    between atoms: C_16  and  O_17
REMARK                            x       y       z     vdW  Elec       q    Type
REMARK                         _______ _______ _______ _____ _____    ______ ____
ROOT
ATOM      1  N   UNL     1       9.715  -3.909  24.210  0.00  0.00    -0.236 NA
ATOM      2  H   UNL     1       9.206  -4.177  23.355  0.00  0.00    +0.145 HD
ENDROOT
BRANCH   1   3
ATOM      3  N   UNL     1       9.920  -2.511  24.152  0.00  0.00    -0.247 N 
ATOM      4  H   UNL     1      10.577  -2.101  24.809  0.00  0.00    +0.169 HD
ATOM      5  C   UNL     1       9.487  -1.807  23.036  0.00  0.00    +0.258 C 
ATOM      6  O   UNL     1       8.890  -2.328  22.098  0.00  0.00    -0.269 OA
BRANCH   5   7
ATOM      7  C   UNL     1       9.829  -0.359  23.004  0.00  0.00    +0.038 A 
ATOM      8  C   UNL     1       9.632   0.429  21.860  0.00  0.00    +0.016 A 
ATOM      9  C   UNL     1       9.935   1.792  21.896  0.00  0.00    +0.046 A 
ATOM     10  C   UNL     1      10.434   2.357  23.063  0.00  0.00    +0.117 A 
ATOM     11  C   UNL     1      10.671   1.581  24.195  0.00  0.00    +0.046 A 
ATOM     12  C   UNL     1      10.371   0.217  24.161  0.00  0.00    +0.016 A 
BRANCH  10  13
ATOM     13  O   UNL     1      10.688   3.697  23.059  0.00  0.00    -0.507 OA
ATOM     14  H   UNL     1      11.045   3.950  23.927  0.00  0.00    +0.292 HD
ENDBRANCH  10  13
ENDBRANCH   5   7
ENDBRANCH   1   3
BRANCH   1  15
ATOM     15  C   UNL     1       8.843  -4.245  25.341  0.00  0.00    +0.137 C 
BRANCH  15  19
ATOM     16  C   UNL     1       5.103  -5.990  24.033  0.00  0.00    -0.045 A 
ATOM     17  C   UNL     1       6.111  -5.679  23.110  0.00  0.00    +0.004 A 
ATOM     18  C   UNL     1       7.337  -5.164  23.539  0.00  0.00    +0.005 A 
ATOM     19  C   UNL     1       7.581  -4.941  24.898  0.00  0.00    -0.032 A 
ATOM     20  C   UNL     1       6.596  -5.301  25.828  0.00  0.00    +0.005 A 
ATOM     21  C   UNL     1       5.374  -5.821  25.400  0.00  0.00    +0.004 A 
BRANCH  16  23
ATOM     22  C   UNL     1       3.147  -7.415  24.585  0.00  0.00    +0.012 C 
ATOM     23  C   UNL     1       3.701  -6.380  23.600  0.00  0.00    +0.013 C 
ATOM     24  C   UNL     1       2.730  -5.205  23.460  0.00  0.00    +0.012 C 
ENDBRANCH  16  23
ENDBRANCH  15  19
ENDBRANCH   1  15
TORSDOF 6
ENDMDL
MODEL 3
REMARK VINA RESULT:      -6.7      1.895      2.807
REMARK  Name = 
REMARK  8 active torsions:
REMARK  status: ('A' for Active; 'I' for Inactive)
REMARK    1  A    between atoms: C_1  and  C_2
REMARK    2  A    between atoms: C_2  and  C_3
REMARK    3  A    between atoms: C_2  and  C_4
REMARK    4  A    between atoms: C_7  and  C_8
REMARK    5  A    between atoms: C_8  and  N_9
REMARK    6  A    between atoms: N_9  and  N_10
REMARK    7  A    between atoms: C_11  and  C_13
REMARK    8  A    between atoms: C_16  and  O_17
REMARK                            x       y       z     vdW  Elec       q    Type
REMARK                         _______ _______ _______ _____ _____    ______ ____
ROOT
ATOM      1  N   UNL     1       9.127  -1.549  21.804  0.00  0.00    -0.236 NA
ATOM      2  H   UNL     1       9.417  -2.177  21.042  0.00  0.00    +0.145 HD
ENDROOT
BRANCH   1   3
ATOM      3  N   UNL     1       8.984  -2.341  22.966  0.00  0.00    -0.247 N 
ATOM      4  H   UNL     1       9.504  -2.066  23.794  0.00  0.00    +0.169 HD
ATOM      5  C   UNL     1       7.933  -3.246  23.047  0.00  0.00    +0.258 C 
ATOM      6  O   UNL     1       7.131  -3.431  22.136  0.00  0.00    -0.269 OA
BRANCH   5   7
ATOM      7  C   UNL     1       7.791  -3.968  24.340  0.00  0.00    +0.038 A 
ATOM      8  C   UNL     1       6.678  -4.773  24.626  0.00  0.00    +0.016 A 
ATOM      9  C   UNL     1       6.612  -5.460  25.841  0.00  0.00    +0.046 A 
ATOM     10  C   UNL     1       7.648  -5.337  26.759  0.00  0.00    +0.117 A 
ATOM     11  C   UNL     1       8.741  -4.513  26.505  0.00  0.00    +0.046 A 
ATOM     12  C   UNL     1       8.808  -3.823  25.293  0.00  0.00    +0.016 A 
BRANCH  10  13
ATOM     13  O   UNL     1       7.552  -6.049  27.918  0.00  0.00    -0.507 OA
ATOM     14  H   UNL     1       8.328  -5.854  28.470  0.00  0.00    +0.292 HD
ENDBRANCH  10  13
ENDBRANCH   5   7
ENDBRANCH   1   3
BRANCH   1  15
ATOM     15  C   UNL     1      10.213  -0.579  21.985  0.00  0.00    +0.137 C 
BRANCH  15  19
ATOM     16  C   UNL     1       8.562   3.298  22.977  0.00  0.00    -0.045 A 
ATOM     17  C   UNL     1       9.717   2.825  23.616  0.00  0.00    +0.004 A 
ATOM     18  C   UNL     1      10.278   1.598  23.259  0.00  0.00    +0.005 A 
ATOM     19  C   UNL     1       9.695   0.810  22.260  0.00  0.00    -0.032 A 
ATOM     20  C   UNL     1       8.572   1.303  21.583  0.00  0.00    +0.005 A 
ATOM     21  C   UNL     1       8.014   2.533  21.936  0.00  0.00    +0.004 A 
BRANCH  16  23
ATOM     22  C   UNL     1       8.780   5.402  24.277  0.00  0.00    +0.012 C 
ATOM     23  C   UNL     1       7.821   4.534  23.455  0.00  0.00    +0.013 C 
ATOM     24  C   UNL     1       7.180   5.362  22.338  0.00  0.00    +0.012 C 
ENDBRANCH  16  23
ENDBRANCH  15  19
ENDBRANCH   1  15
TORSDOF 6
ENDMDL
MODEL 4
REMARK VINA RESULT:      -6.4      1.699      2.104
REMARK  Name = 
REMARK  8 active torsions:
REMARK  status: ('A' for Active; 'I' for Inactive)
REMARK    1  A    between atoms: C_1  and  C_2
REMARK    2  A    between atoms: C_2  and  C_3
REMARK    3  A    between atoms: C_2  and  C_4
REMARK    4  A    between atoms: C_7  and  C_8
REMARK    5  A    between atoms: C_8  and  N_9
REMARK    6  A    between atoms: N_9  and  N_10
REMARK    7  A    between atoms: C_11  and  C_13
REMARK    8  A    between atoms: C_16  and  O_17
REMARK                            x       y       z     vdW  Elec       q    Type
REMARK                         _______ _______ _______ _____ _____    ______ ____
ROOT
ATOM      1  N   UNL     1       9.975  -1.396  23.702  0.00  0.00    -0.236 NA
ATOM      2  H   UNL     1      10.961  -1.685  23.762  0.00  0.00    +0.145 HD
ENDROOT
BRANCH   1   3
ATOM      3  N   UNL     1       9.191  -2.572  23.744  0.00  0.00    -0.247 N 
ATOM      4  H   UNL     1       9.383  -3.242  24.483  0.00  0.00    +0.169 HD
ATOM      5  C   UNL     1       8.015  -2.632  23.008  0.00  0.00    +0.258 C 
ATOM      6  O   UNL     1       7.630  -1.724  22.277  0.00  0.00    -0.269 OA
BRANCH   5   7
ATOM      7  C   UNL     1       7.197  -3.862  23.183  0.00  0.00    +0.038 A 
ATOM      8  C   UNL     1       6.585  -4.183  24.404  0.00  0.00    +0.016 A 
ATOM      9  C   UNL     1       5.796  -5.331  24.505  0.00  0.00    +0.046 A 
ATOM     10  C   UNL     1       5.626  -6.150  23.395  0.00  0.00    +0.117 A 
ATOM     11  C   UNL     1       6.257  -5.865  22.187  0.00  0.00    +0.046 A 
ATOM     12  C   UNL     1       7.048  -4.719  22.084  0.00  0.00    +0.016 A 
BRANCH  10  13
ATOM     13  O   UNL     1       4.823  -7.244  23.533  0.00  0.00    -0.507 OA
ATOM     14  H   UNL     1       5.319  -8.032  23.255  0.00  0.00    +0.292 HD
ENDBRANCH  10  13
ENDBRANCH   5   7
ENDBRANCH   1   3
BRANCH   1  15
ATOM     15  C   UNL     1       9.707  -0.569  24.885  0.00  0.00    +0.137 C 
BRANCH  15  19
ATOM     16  C   UNL     1       9.446   3.682  24.110  0.00  0.00    -0.045 A 
ATOM     17  C   UNL     1      10.484   2.915  23.563  0.00  0.00    +0.004 A 
ATOM     18  C   UNL     1      10.538   1.536  23.771  0.00  0.00    +0.005 A 
ATOM     19  C   UNL     1       9.561   0.891  24.537  0.00  0.00    -0.032 A 
ATOM     20  C   UNL     1       8.493   1.644  25.040  0.00  0.00    +0.005 A 
ATOM     21  C   UNL     1       8.435   3.023  24.827  0.00  0.00    +0.004 A 
BRANCH  16  23
ATOM     22  C   UNL     1      10.859   5.684  23.715  0.00  0.00    +0.012 C 
ATOM     23  C   UNL     1       9.447   5.199  24.060  0.00  0.00    +0.013 C 
ATOM     24  C   UNL     1       8.425   5.804  23.093  0.00  0.00    +0.012 C 
ENDBRANCH  16  23
ENDBRANCH  15  19
ENDBRANCH   1  15
TORSDOF 6
ENDMDL
MODEL 5
REMARK VINA RESULT:      -6.3      3.880      8.910
REMARK  Name = 
REMARK  8 active torsions:
REMARK  status: ('A' for Active; 'I' for Inactive)
REMARK    1  A    between atoms: C_1  and  C_2
REMARK    2  A    between atoms: C_2  and  C_3
REMARK    3  A    between atoms: C_2  and  C_4
REMARK    4  A    between atoms: C_7  and  C_8
REMARK    5  A    between atoms: C_8  and  N_9
REMARK    6  A    between atoms: N_9  and  N_10
REMARK    7  A    between atoms: C_11  and  C_13
REMARK    8  A    between atoms: C_16  and  O_17
REMARK                            x       y       z     vdW  Elec       q    Type
REMARK                         _______ _______ _______ _____ _____    ______ ____
ROOT
ATOM      1  N   UNL     1       8.567   0.637  22.371  0.00  0.00    -0.236 NA
ATOM      2  H   UNL     1       8.089   0.278  23.210  0.00  0.00    +0.145 HD
ENDROOT
BRANCH   1   3
ATOM      3  N   UNL     1       9.459   1.647  22.799  0.00  0.00    -0.247 N 
ATOM      4  H   UNL     1      10.454   1.480  22.683  0.00  0.00    +0.169 HD
ATOM      5  C   UNL     1       8.971   2.922  23.054  0.00  0.00    +0.258 C 
ATOM      6  O   UNL     1       7.783   3.219  22.969  0.00  0.00    -0.269 OA
BRANCH   5   7
ATOM      7  C   UNL     1       9.986   3.953  23.401  0.00  0.00    +0.038 A 
ATOM      8  C   UNL     1       9.634   5.179  23.985  0.00  0.00    +0.016 A 
ATOM      9  C   UNL     1      10.630   6.097  24.326  0.00  0.00    +0.046 A 
ATOM     10  C   UNL     1      11.963   5.791  24.080  0.00  0.00    +0.117 A 
ATOM     11  C   UNL     1      12.325   4.594  23.467  0.00  0.00    +0.046 A 
ATOM     12  C   UNL     1      11.332   3.676  23.123  0.00  0.00    +0.016 A 
BRANCH  10  13
ATOM     13  O   UNL     1      12.902   6.705  24.457  0.00  0.00    -0.507 OA
ATOM     14  H   UNL     1      13.676   6.233  24.806  0.00  0.00    +0.292 HD
ENDBRANCH  10  13
ENDBRANCH   5   7
ENDBRANCH   1   3
BRANCH   1  15
ATOM     15  C   UNL     1       9.315  -0.488  21.799  0.00  0.00    +0.137 C 
BRANCH  15  19
ATOM     16  C   UNL     1       8.450  -4.030  24.132  0.00  0.00    -0.045 A 
ATOM     17  C   UNL     1       7.652  -3.682  23.034  0.00  0.00    +0.004 A 
ATOM     18  C   UNL     1       7.963  -2.569  22.251  0.00  0.00    +0.005 A 
ATOM     19  C   UNL     1       9.073  -1.772  22.551  0.00  0.00    -0.032 A 
ATOM     20  C   UNL     1       9.903  -2.147  23.616  0.00  0.00    +0.005 A 
ATOM     21  C   UNL     1       9.596  -3.264  24.395  0.00  0.00    +0.004 A 
BRANCH  16  23
ATOM     22  C   UNL     1       8.764  -4.876  26.445  0.00  0.00    +0.012 C 
ATOM     23  C   UNL     1       8.050  -5.120  25.111  0.00  0.00    +0.013 C 
ATOM     24  C   UNL     1       6.540  -5.253  25.331  0.00  0.00    +0.012 C 
ENDBRANCH  16  23
ENDBRANCH  15  19
ENDBRANCH   1  15
TORSDOF 6
ENDMDL
MODEL 6
REMARK VINA RESULT:      -6.3      1.454      1.831
REMARK  Name = 
REMARK  8 active torsions:
REMARK  status: ('A' for Active; 'I' for Inactive)
REMARK    1  A    between atoms: C_1  and  C_2
REMARK    2  A    between atoms: C_2  and  C_3
REMARK    3  A    between atoms: C_2  and  C_4
REMARK    4  A    between atoms: C_7  and  C_8
REMARK    5  A    between atoms: C_8  and  N_9
REMARK    6  A    between atoms: N_9  and  N_10
REMARK    7  A    between atoms: C_11  and  C_13
REMARK    8  A    between atoms: C_16  and  O_17
REMARK                            x       y       z     vdW  Elec       q    Type
REMARK                         _______ _______ _______ _____ _____    ______ ____
ROOT
ATOM      1  N   UNL     1      10.107  -1.010  23.533  0.00  0.00    -0.236 NA
ATOM      2  H   UNL     1      10.909  -1.649  23.631  0.00  0.00    +0.145 HD
ENDROOT
BRANCH   1   3
ATOM      3  N   UNL     1       8.961  -1.810  23.319  0.00  0.00    -0.247 N 
ATOM      4  H   UNL     1       8.261  -1.469  22.665  0.00  0.00    +0.169 HD
ATOM      5  C   UNL     1       8.969  -3.135  23.736  0.00  0.00    +0.258 C 
ATOM      6  O   UNL     1       9.913  -3.650  24.327  0.00  0.00    -0.269 OA
BRANCH   5   7
ATOM      7  C   UNL     1       7.766  -3.937  23.385  0.00  0.00    +0.038 A 
ATOM      8  C   UNL     1       7.207  -4.869  24.271  0.00  0.00    +0.016 A 
ATOM      9  C   UNL     1       6.055  -5.570  23.906  0.00  0.00    +0.046 A 
ATOM     10  C   UNL     1       5.473  -5.341  22.665  0.00  0.00    +0.117 A 
ATOM     11  C   UNL     1       6.037  -4.446  21.760  0.00  0.00    +0.046 A 
ATOM     12  C   UNL     1       7.190  -3.747  22.121  0.00  0.00    +0.016 A 
BRANCH  10  13
ATOM     13  O   UNL     1       4.333  -6.026  22.365  0.00  0.00    -0.507 OA
ATOM     14  H   UNL     1       3.842  -5.534  21.687  0.00  0.00    +0.292 HD
ENDBRANCH  10  13
ENDBRANCH   5   7
ENDBRANCH   1   3
BRANCH   1  15
ATOM     15  C   UNL     1       9.988  -0.287  24.803  0.00  0.00    +0.137 C 
BRANCH  15  19
ATOM     16  C   UNL     1       9.106   3.872  23.986  0.00  0.00    -0.045 A 
ATOM     17  C   UNL     1       8.273   3.112  24.819  0.00  0.00    +0.004 A 
ATOM     18  C   UNL     1       8.586   1.786  25.124  0.00  0.00    +0.005 A 
ATOM     19  C   UNL     1       9.735   1.186  24.597  0.00  0.00    -0.032 A 
ATOM     20  C   UNL     1      10.598   1.957  23.807  0.00  0.00    +0.005 A 
ATOM     21  C   UNL     1      10.287   3.285  23.508  0.00  0.00    +0.004 A 
BRANCH  16  23
ATOM     22  C   UNL     1       7.417   5.681  24.187  0.00  0.00    +0.012 C 
ATOM     23  C   UNL     1       8.711   5.251  23.488  0.00  0.00    +0.013 C 
ATOM     24  C   UNL     1       9.792   6.322  23.662  0.00  0.00    +0.012 C 
ENDBRANCH  16  23
ENDBRANCH  15  19
ENDBRANCH   1  15
TORSDOF 6
ENDMDL
MODEL 7
REMARK VINA RESULT:      -6.3      1.724      2.121
REMARK  Name = 
REMARK  8 active torsions:
REMARK  status: ('A' for Active; 'I' for Inactive)
REMARK    1  A    between atoms: C_1  and  C_2
REMARK    2  A    between atoms: C_2  and  C_3
REMARK    3  A    between atoms: C_2  and  C_4
REMARK    4  A    between atoms: C_7  and  C_8
REMARK    5  A    between atoms: C_8  and  N_9
REMARK    6  A    between atoms: N_9  and  N_10
REMARK    7  A    between atoms: C_11  and  C_13
REMARK    8  A    between atoms: C_16  and  O_17
REMARK                            x       y       z     vdW  Elec       q    Type
REMARK                         _______ _______ _______ _____ _____    ______ ____
ROOT
ATOM      1  N   UNL     1       8.728  -2.217  22.361  0.00  0.00    -0.236 NA
ATOM      2  H   UNL     1       8.888  -2.867  21.579  0.00  0.00    +0.145 HD
ENDROOT
BRANCH   1   3
ATOM      3  N   UNL     1       8.286  -2.988  23.460  0.00  0.00    -0.247 N 
ATOM      4  H   UNL     1       8.275  -2.546  24.375  0.00  0.00    +0.169 HD
ATOM      5  C   UNL     1       7.598  -4.172  23.228  0.00  0.00    +0.258 C 
ATOM      6  O   UNL     1       7.383  -4.618  22.104  0.00  0.00    -0.269 OA
BRANCH   5   7
ATOM      7  C   UNL     1       7.079  -4.873  24.432  0.00  0.00    +0.038 A 
ATOM      8  C   UNL     1       7.805  -4.934  25.631  0.00  0.00    +0.016 A 
ATOM      9  C   UNL     1       7.255  -5.574  26.745  0.00  0.00    +0.046 A 
ATOM     10  C   UNL     1       5.993  -6.148  26.656  0.00  0.00    +0.117 A 
ATOM     11  C   UNL     1       5.275  -6.128  25.463  0.00  0.00    +0.046 A 
ATOM     12  C   UNL     1       5.824  -5.493  24.347  0.00  0.00    +0.016 A 
BRANCH  10  13
ATOM     13  O   UNL     1       5.485  -6.736  27.777  0.00  0.00    -0.507 OA
ATOM     14  H   UNL     1       6.202  -6.848  28.423  0.00  0.00    +0.292 HD
ENDBRANCH  10  13
ENDBRANCH   5   7
ENDBRANCH   1   3
BRANCH   1  15
ATOM     15  C   UNL     1      10.022  -1.598  22.666  0.00  0.00    +0.137 C 
BRANCH  15  19
ATOM     16  C   UNL     1       9.376   2.611  23.446  0.00  0.00    -0.045 A 
ATOM     17  C   UNL     1       9.445   1.689  24.499  0.00  0.00    +0.004 A 
ATOM     18  C   UNL     1       9.706   0.340  24.250  0.00  0.00    +0.005 A 
ATOM     19  C   UNL     1       9.895  -0.121  22.942  0.00  0.00    -0.032 A 
ATOM     20  C   UNL     1       9.879   0.806  21.892  0.00  0.00    +0.005 A 
ATOM     21  C   UNL     1       9.625   2.156  22.142  0.00  0.00    +0.004 A 
BRANCH  16  23
ATOM     22  C   UNL     1       7.694   4.309  22.773  0.00  0.00    +0.012 C 
ATOM     23  C   UNL     1       8.921   4.045  23.653  0.00  0.00    +0.013 C 
ATOM     24  C   UNL     1       8.620   4.411  25.109  0.00  0.00    +0.012 C 
ENDBRANCH  16  23
ENDBRANCH  15  19
ENDBRANCH   1  15
TORSDOF 6
ENDMDL
MODEL 8
REMARK VINA RESULT:      -6.2      1.611      2.498
REMARK  Name = 
REMARK  8 active torsions:
REMARK  status: ('A' for Active; 'I' for Inactive)
REMARK    1  A    between atoms: C_1  and  C_2
REMARK    2  A    between atoms: C_2  and  C_3
REMARK    3  A    between atoms: C_2  and  C_4
REMARK    4  A    between atoms: C_7  and  C_8
REMARK    5  A    between atoms: C_8  and  N_9
REMARK    6  A    between atoms: N_9  and  N_10
REMARK    7  A    between atoms: C_11  and  C_13
REMARK    8  A    between atoms: C_16  and  O_17
REMARK                            x       y       z     vdW  Elec       q    Type
REMARK                         _______ _______ _______ _____ _____    ______ ____
ROOT
ATOM      1  N   UNL     1      10.241  -0.355  24.678  0.00  0.00    -0.236 NA
ATOM      2  H   UNL     1       9.986   0.258  25.465  0.00  0.00    +0.145 HD
ENDROOT
BRANCH   1   3
ATOM      3  N   UNL     1       9.104  -1.139  24.376  0.00  0.00    -0.247 N 
ATOM      4  H   UNL     1       8.197  -0.681  24.385  0.00  0.00    +0.169 HD
ATOM      5  C   UNL     1       9.274  -2.382  23.781  0.00  0.00    +0.258 C 
ATOM      6  O   UNL     1      10.375  -2.868  23.535  0.00  0.00    -0.269 OA
BRANCH   5   7
ATOM      7  C   UNL     1       8.028  -3.101  23.402  0.00  0.00    +0.038 A 
ATOM      8  C   UNL     1       7.066  -2.532  22.555  0.00  0.00    +0.016 A 
ATOM      9  C   UNL     1       5.931  -3.265  22.201  0.00  0.00    +0.046 A 
ATOM     10  C   UNL     1       5.761  -4.553  22.694  0.00  0.00    +0.117 A 
ATOM     11  C   UNL     1       6.688  -5.118  23.565  0.00  0.00    +0.046 A 
ATOM     12  C   UNL     1       7.822  -4.387  23.923  0.00  0.00    +0.016 A 
BRANCH  10  13
ATOM     13  O   UNL     1       4.652  -5.241  22.297  0.00  0.00    -0.507 OA
ATOM     14  H   UNL     1       3.885  -4.908  22.792  0.00  0.00    +0.292 HD
ENDBRANCH  10  13
ENDBRANCH   5   7
ENDBRANCH   1   3
BRANCH   1  15
ATOM     15  C   UNL     1      10.562   0.524  23.548  0.00  0.00    +0.137 C 
BRANCH  15  19
ATOM     16  C   UNL     1       7.702   3.677  22.758  0.00  0.00    -0.045 A 
ATOM     17  C   UNL     1       7.876   2.622  21.851  0.00  0.00    +0.004 A 
ATOM     18  C   UNL     1       8.761   1.579  22.131  0.00  0.00    +0.005 A 
ATOM     19  C   UNL     1       9.498   1.569  23.320  0.00  0.00    -0.032 A 
ATOM     20  C   UNL     1       9.288   2.593  24.252  0.00  0.00    +0.005 A 
ATOM     21  C   UNL     1       8.399   3.633  23.975  0.00  0.00    +0.004 A 
BRANCH  16  23
ATOM     22  C   UNL     1       5.841   5.138  23.508  0.00  0.00    +0.012 C 
ATOM     23  C   UNL     1       6.891   4.914  22.415  0.00  0.00    +0.013 C 
ATOM     24  C   UNL     1       7.724   6.182  22.208  0.00  0.00    +0.012 C 
ENDBRANCH  16  23
ENDBRANCH  15  19
ENDBRANCH   1  15
TORSDOF 6
ENDMDL
MODEL 9
REMARK VINA RESULT:      -6.2      3.449      8.085
REMARK  Name = 
REMARK  8 active torsions:
REMARK  status: ('A' for Active; 'I' for Inactive)
REMARK    1  A    between atoms: C_1  and  C_2
REMARK    2  A    between atoms: C_2  and  C_3
REMARK    3  A    between atoms: C_2  and  C_4
REMARK    4  A    between atoms: C_7  and  C_8
REMARK    5  A    between atoms: C_8  and  N_9
REMARK    6  A    between atoms: N_9  and  N_10
REMARK    7  A    between atoms: C_11  and  C_13
REMARK    8  A    between atoms: C_16  and  O_17
REMARK                            x       y       z     vdW  Elec       q    Type
REMARK                         _______ _______ _______ _____ _____    ______ ____
ROOT
ATOM      1  N   UNL     1       9.370  -0.298  21.158  0.00  0.00    -0.236 NA
ATOM      2  H   UNL     1       8.411  -0.663  21.252  0.00  0.00    +0.145 HD
ENDROOT
BRANCH   1   3
ATOM      3  N   UNL     1       9.348   1.048  21.588  0.00  0.00    -0.247 N 
ATOM      4  H   UNL     1      10.049   1.678  21.207  0.00  0.00    +0.169 HD
ATOM      5  C   UNL     1       8.223   1.536  22.239  0.00  0.00    +0.258 C 
ATOM      6  O   UNL     1       7.245   0.844  22.506  0.00  0.00    -0.269 OA
BRANCH   5   7
ATOM      7  C   UNL     1       8.237   2.987  22.569  0.00  0.00    +0.038 A 
ATOM      8  C   UNL     1       7.280   3.877  22.058  0.00  0.00    +0.016 A 
ATOM      9  C   UNL     1       7.316   5.223  22.429  0.00  0.00    +0.046 A 
ATOM     10  C   UNL     1       8.302   5.672  23.300  0.00  0.00    +0.117 A 
ATOM     11  C   UNL     1       9.280   4.808  23.787  0.00  0.00    +0.046 A 
ATOM     12  C   UNL     1       9.248   3.463  23.415  0.00  0.00    +0.016 A 
BRANCH  10  13
ATOM     13  O   UNL     1       8.279   6.988  23.657  0.00  0.00    -0.507 OA
ATOM     14  H   UNL     1       7.901   7.503  22.925  0.00  0.00    +0.292 HD
ENDBRANCH  10  13
ENDBRANCH   5   7
ENDBRANCH   1   3
BRANCH   1  15
ATOM     15  C   UNL     1      10.214  -1.100  22.051  0.00  0.00    +0.137 C 
BRANCH  15  19
ATOM     16  C   UNL     1       7.818  -3.919  24.298  0.00  0.00    -0.045 A 
ATOM     17  C   UNL     1       7.361  -3.402  23.078  0.00  0.00    +0.004 A 
ATOM     18  C   UNL     1       8.157  -2.533  22.328  0.00  0.00    +0.005 A 
ATOM     19  C   UNL     1       9.425  -2.154  22.784  0.00  0.00    -0.032 A 
ATOM     20  C   UNL     1       9.906  -2.710  23.977  0.00  0.00    +0.005 A 
ATOM     21  C   UNL     1       9.113  -3.584  24.723  0.00  0.00    +0.004 A 
BRANCH  16  23
ATOM     22  C   UNL     1       7.762  -5.264  26.384  0.00  0.00    +0.012 C 
ATOM     23  C   UNL     1       6.920  -4.718  25.225  0.00  0.00    +0.013 C 
ATOM     24  C   UNL     1       5.712  -3.946  25.762  0.00  0.00    +0.012 C 
ENDBRANCH  16  23
ENDBRANCH  15  19
ENDBRANCH   1  15
TORSDOF 6
ENDMDL
