MODEL 1
REMARK VINA RESULT:      -7.4      0.000      0.000
REMARK  Name = 
REMARK  22 active torsions:
REMARK  status: ('A' for Active; 'I' for Inactive)
REMARK    1  A    between atoms: C_1  and  C_2
REMARK    2  A    between atoms: C_7  and  C_8
REMARK    3  A    between atoms: N_9  and  C_10
REMARK    4  A    between atoms: C_10  and  C_11
REMARK    5  A    between atoms: C_11  and  O_13
REMARK    6  A    between atoms: C_11  and  C_14
REMARK    7  A    between atoms: C_14  and  O_16
REMARK    8  A    between atoms: C_14  and  C_17
REMARK    9  A    between atoms: C_17  and  O_19
REMARK   10  A    between atoms: C_17  and  C_20
REMARK   11  A    between atoms: C_20  and  O_21
REMARK   12  A    between atoms: O_21  and  P_22
REMARK   13  A    between atoms: P_22  and  O_23
REMARK   14  A    between atoms: P_22  and  O_25
REMARK   15  A    between atoms: O_25  and  P_26
REMARK   16  A    between atoms: P_26  and  O_27
REMARK   17  A    between atoms: P_26  and  O_29
REMARK   18  A    between atoms: O_29  and  C_30
REMARK   19  A    between atoms: C_30  and  C_31
REMARK   20  A    between atoms: C_34  and  N_42
REMARK   21  A    between atoms: C_36  and  O_38
REMARK   22  A    between atoms: C_39  and  O_41
REMARK                            x       y       z     vdW  Elec       q    Type
REMARK                         _______ _______ _______ _____ _____    ______ ____
ROOT
ATOM      1  P   UNL     1       8.393  -4.410  24.796  0.00  0.00    +0.483 P 
ATOM      2  O   UNL     1       9.556  -5.402  24.690  0.00  0.00    -0.227 OA
ENDROOT
BRANCH   1   3
ATOM      3  O   UNL     1       7.338  -5.778  24.859  0.00  0.00    -0.302 OA
ATOM      4  H   UNL     1       7.260  -6.004  23.906  0.00  0.00    +0.222 HD
ENDBRANCH   1   3
BRANCH   1   5
ATOM      5  O   UNL     1       9.449  -3.041  24.732  0.00  0.00    -0.186 OA
BRANCH   5   6
ATOM      6  P   UNL     1       9.139  -2.140  23.287  0.00  0.00    +0.483 P 
ATOM      7  O   UNL     1       8.344  -1.142  24.132  0.00  0.00    -0.227 OA
BRANCH   6   8
ATOM      8  O   UNL     1       8.130  -3.324  22.794  0.00  0.00    -0.302 OA
ATOM      9  H   UNL     1       8.346  -4.195  23.167  0.00  0.00    +0.222 HD
ENDBRANCH   6   8
BRANCH   6  10
ATOM     10  O   UNL     1       8.830  -1.240  21.843  0.00  0.00    -0.284 OA
BRANCH  10  11
ATOM     11  C   UNL     1       9.747  -0.152  21.590  0.00  0.00    +0.206 C 
BRANCH  11  12
ATOM     12  C   UNL     1       9.111   1.224  21.708  0.00  0.00    +0.178 C 
ATOM     13  C   UNL     1       9.747   2.136  22.746  0.00  0.00    +0.178 C 
ATOM     14  C   UNL     1       8.578   2.979  23.256  0.00  0.00    +0.195 C 
ATOM     15  C   UNL     1       7.357   2.440  22.497  0.00  0.00    +0.253 C 
ATOM     16  O   UNL     1       7.718   1.123  22.055  0.00  0.00    -0.346 OA
BRANCH  15  17
ATOM     17  N   UNL     1       6.163   2.383  23.313  0.00  0.00    -0.286 N 
ATOM     18  C   UNL     1       5.201   3.355  23.340  0.00  0.00    +0.167 A 
ATOM     19  N   UNL     1       5.187   4.510  22.649  0.00  0.00    -0.216 NA
ATOM     20  C   UNL     1       4.067   5.211  22.930  0.00  0.00    +0.225 A 
ATOM     21  N   UNL     1       3.065   4.893  23.780  0.00  0.00    -0.219 NA
ATOM     22  C   UNL     1       3.131   3.716  24.445  0.00  0.00    +0.147 A 
ATOM     23  N   UNL     1       2.082   3.377  25.282  0.00  0.00    -0.341 N 
ATOM     24  H   UNL     1       2.269   2.637  25.948  0.00  0.00    +0.144 HD
ATOM     25  H   UNL     1       1.479   4.144  25.542  0.00  0.00    +0.144 HD
ATOM     26  C   UNL     1       4.253   2.895  24.239  0.00  0.00    +0.147 A 
ATOM     27  N   UNL     1       4.632   1.675  24.764  0.00  0.00    -0.231 NA
ATOM     28  C   UNL     1       5.775   1.392  24.172  0.00  0.00    +0.203 A 
ENDBRANCH  15  17
BRANCH  14  29
ATOM     29  O   UNL     1       8.811   4.374  23.037  0.00  0.00    -0.385 OA
ATOM     30  H   UNL     1       7.927   4.789  22.918  0.00  0.00    +0.210 HD
ENDBRANCH  14  29
BRANCH  13  31
ATOM     31  O   UNL     1      10.785   2.923  22.170  0.00  0.00    -0.386 OA
ATOM     32  H   UNL     1      10.918   3.680  22.778  0.00  0.00    +0.210 HD
ENDBRANCH  13  31
ENDBRANCH  11  12
ENDBRANCH  10  11
ENDBRANCH   6  10
ENDBRANCH   5   6
ENDBRANCH   1   5
BRANCH   1  33
ATOM     33  O   UNL     1       8.088  -4.236  26.515  0.00  0.00    -0.284 OA
BRANCH  33  34
ATOM     34  C   UNL     1       7.443  -5.374  27.197  0.00  0.00    +0.206 C 
BRANCH  34  35
ATOM     35  C   UNL     1       6.193  -5.319  28.174  0.00  0.00    +0.172 C 
BRANCH  35  36
ATOM     36  O   UNL     1       5.752  -3.941  28.207  0.00  0.00    -0.387 OA
ATOM     37  H   UNL     1       4.841  -3.875  28.542  0.00  0.00    +0.210 HD
ENDBRANCH  35  36
BRANCH  35  38
ATOM     38  C   UNL     1       4.937  -6.185  27.750  0.00  0.00    +0.175 C 
BRANCH  38  39
ATOM     39  O   UNL     1       5.231  -7.552  28.049  0.00  0.00    -0.387 OA
ATOM     40  H   UNL     1       5.173  -8.050  27.214  0.00  0.00    +0.210 HD
ENDBRANCH  38  39
BRANCH  38  41
ATOM     41  C   UNL     1       3.529  -5.818  28.411  0.00  0.00    +0.165 C 
BRANCH  41  42
ATOM     42  O   UNL     1       3.673  -4.956  29.544  0.00  0.00    -0.387 OA
ATOM     43  H   UNL     1       3.853  -4.062  29.201  0.00  0.00    +0.210 HD
ENDBRANCH  41  42
BRANCH  41  44
ATOM     44  C   UNL     1       2.553  -5.110  27.375  0.00  0.00    +0.158 C 
BRANCH  44  51
ATOM     45  C   UNL     1       0.457  -9.273  22.912  0.00  0.00    +0.044 C 
ATOM     46  C   UNL     1       1.347  -8.357  23.697  0.00  0.00    -0.045 A 
ATOM     47  C   UNL     1       1.414  -8.420  25.098  0.00  0.00    -0.045 A 
ATOM     48  C   UNL     1       0.556  -9.306  25.950  0.00  0.00    +0.044 C 
ATOM     49  C   UNL     1       2.210  -7.518  25.793  0.00  0.00    +0.031 A 
ATOM     50  C   UNL     1       2.617  -6.350  25.178  0.00  0.00    +0.069 A 
ATOM     51  N   UNL     1       2.902  -5.191  25.913  0.00  0.00    -0.320 N 
ATOM     52  C   UNL     1       3.733  -4.255  25.284  0.00  0.00    +0.170 A 
ATOM     53  C   UNL     1       3.968  -4.412  23.779  0.00  0.00    +0.171 A 
ATOM     54  N   UNL     1       3.401  -5.342  23.074  0.00  0.00    -0.237 NA
ATOM     55  C   UNL     1       4.917  -3.449  23.112  0.00  0.00    +0.282 A 
ATOM     56  O   UNL     1       5.261  -3.555  21.941  0.00  0.00    -0.265 OA
ATOM     57  N   UNL     1       5.403  -2.497  23.949  0.00  0.00    -0.272 N 
ATOM     58  H   UNL     1       6.109  -1.872  23.591  0.00  0.00    +0.174 HD
ATOM     59  C   UNL     1       5.167  -2.406  25.287  0.00  0.00    +0.351 A 
ATOM     60  O   UNL     1       5.774  -1.544  25.926  0.00  0.00    -0.245 OA
ATOM     61  N   UNL     1       4.309  -3.275  25.902  0.00  0.00    -0.173 NA
ATOM     62  C   UNL     1       2.686  -6.334  23.769  0.00  0.00    +0.089 A 
ATOM     63  C   UNL     1       2.062  -7.348  23.037  0.00  0.00    +0.033 A 
ENDBRANCH  44  51
ENDBRANCH  41  44
ENDBRANCH  38  41
ENDBRANCH  35  38
ENDBRANCH  34  35
ENDBRANCH  33  34
ENDBRANCH   1  33
TORSDOF 20
ENDMDL
MODEL 2
REMARK VINA RESULT:      -7.1      2.906      9.848
REMARK  Name = 
REMARK  22 active torsions:
REMARK  status: ('A' for Active; 'I' for Inactive)
REMARK    1  A    between atoms: C_1  and  C_2
REMARK    2  A    between atoms: C_7  and  C_8
REMARK    3  A    between atoms: N_9  and  C_10
REMARK    4  A    between atoms: C_10  and  C_11
REMARK    5  A    between atoms: C_11  and  O_13
REMARK    6  A    between atoms: C_11  and  C_14
REMARK    7  A    between atoms: C_14  and  O_16
REMARK    8  A    between atoms: C_14  and  C_17
REMARK    9  A    between atoms: C_17  and  O_19
REMARK   10  A    between atoms: C_17  and  C_20
REMARK   11  A    between atoms: C_20  and  O_21
REMARK   12  A    between atoms: O_21  and  P_22
REMARK   13  A    between atoms: P_22  and  O_23
REMARK   14  A    between atoms: P_22  and  O_25
REMARK   15  A    between atoms: O_25  and  P_26
REMARK   16  A    between atoms: P_26  and  O_27
REMARK   17  A    between atoms: P_26  and  O_29
REMARK   18  A    between atoms: O_29  and  C_30
REMARK   19  A    between atoms: C_30  and  C_31
REMARK   20  A    between atoms: C_34  and  N_42
REMARK   21  A    between atoms: C_36  and  O_38
REMARK   22  A    between atoms: C_39  and  O_41
REMARK                            x       y       z     vdW  Elec       q    Type
REMARK                         _______ _______ _______ _____ _____    ______ ____
ROOT
ATOM      1  P   UNL     1       9.139   2.073  22.688  0.00  0.00    +0.483 P 
ATOM      2  O   UNL     1       8.148   2.647  21.669  0.00  0.00    -0.227 OA
ENDROOT
BRANCH   1   3
ATOM      3  O   UNL     1      10.369   2.288  21.491  0.00  0.00    -0.302 OA
ATOM      4  H   UNL     1      11.169   2.005  21.986  0.00  0.00    +0.222 HD
ENDBRANCH   1   3
BRANCH   1   5
ATOM      5  O   UNL     1       7.908   1.858  23.884  0.00  0.00    -0.186 OA
BRANCH   5   6
ATOM      6  P   UNL     1       7.167   0.307  23.678  0.00  0.00    +0.483 P 
ATOM      7  O   UNL     1       8.375  -0.109  22.835  0.00  0.00    -0.227 OA
BRANCH   6   8
ATOM      8  O   UNL     1       6.059   0.993  22.695  0.00  0.00    -0.302 OA
ATOM      9  H   UNL     1       5.165   0.629  22.810  0.00  0.00    +0.222 HD
ENDBRANCH   6   8
BRANCH   6  10
ATOM     10  O   UNL     1       6.427  -1.242  23.472  0.00  0.00    -0.284 OA
BRANCH  10  11
ATOM     11  C   UNL     1       7.346  -2.342  23.288  0.00  0.00    +0.206 C 
BRANCH  11  12
ATOM     12  C   UNL     1       7.685  -3.079  24.575  0.00  0.00    +0.178 C 
ATOM     13  C   UNL     1       8.557  -4.312  24.394  0.00  0.00    +0.178 C 
ATOM     14  C   UNL     1       8.090  -5.255  25.503  0.00  0.00    +0.195 C 
ATOM     15  C   UNL     1       6.950  -4.496  26.196  0.00  0.00    +0.253 C 
ATOM     16  O   UNL     1       6.491  -3.521  25.247  0.00  0.00    -0.346 OA
BRANCH  15  17
ATOM     17  N   UNL     1       5.856  -5.357  26.594  0.00  0.00    -0.286 N 
ATOM     18  C   UNL     1       5.601  -5.732  27.884  0.00  0.00    +0.167 A 
ATOM     19  N   UNL     1       6.297  -5.394  28.986  0.00  0.00    -0.216 NA
ATOM     20  C   UNL     1       5.737  -5.950  30.083  0.00  0.00    +0.225 A 
ATOM     21  N   UNL     1       4.654  -6.754  30.160  0.00  0.00    -0.219 NA
ATOM     22  C   UNL     1       3.991  -7.056  29.020  0.00  0.00    +0.147 A 
ATOM     23  N   UNL     1       2.859  -7.847  29.110  0.00  0.00    -0.341 N 
ATOM     24  H   UNL     1       2.539  -8.263  28.243  0.00  0.00    +0.144 HD
ATOM     25  H   UNL     1       2.764  -8.359  29.975  0.00  0.00    +0.144 HD
ATOM     26  C   UNL     1       4.478  -6.540  27.807  0.00  0.00    +0.147 A 
ATOM     27  N   UNL     1       4.063  -6.671  26.496  0.00  0.00    -0.231 NA
ATOM     28  C   UNL     1       4.904  -5.933  25.799  0.00  0.00    +0.203 A 
ENDBRANCH  15  17
BRANCH  14  29
ATOM     29  O   UNL     1       9.166  -5.589  26.386  0.00  0.00    -0.385 OA
ATOM     30  H   UNL     1       9.239  -6.570  26.376  0.00  0.00    +0.210 HD
ENDBRANCH  14  29
BRANCH  13  31
ATOM     31  O   UNL     1       9.939  -3.981  24.496  0.00  0.00    -0.386 OA
ATOM     32  H   UNL     1      10.420  -4.680  24.005  0.00  0.00    +0.210 HD
ENDBRANCH  13  31
ENDBRANCH  11  12
ENDBRANCH  10  11
ENDBRANCH   6  10
ENDBRANCH   5   6
ENDBRANCH   1   5
BRANCH   1  33
ATOM     33  O   UNL     1       9.834   3.468  23.492  0.00  0.00    -0.284 OA
BRANCH  33  34
ATOM     34  C   UNL     1       9.091   4.017  24.642  0.00  0.00    +0.206 C 
BRANCH  34  35
ATOM     35  C   UNL     1       8.713   5.536  24.899  0.00  0.00    +0.172 C 
BRANCH  35  36
ATOM     36  O   UNL     1       9.846   6.140  25.566  0.00  0.00    -0.387 OA
ATOM     37  H   UNL     1      10.620   6.170  24.978  0.00  0.00    +0.210 HD
ENDBRANCH  35  36
BRANCH  35  38
ATOM     38  C   UNL     1       8.427   6.412  23.612  0.00  0.00    +0.175 C 
BRANCH  38  39
ATOM     39  O   UNL     1       9.415   6.081  22.633  0.00  0.00    -0.387 OA
ATOM     40  H   UNL     1      10.202   5.763  23.110  0.00  0.00    +0.210 HD
ENDBRANCH  38  39
BRANCH  38  41
ATOM     41  C   UNL     1       6.986   6.284  22.934  0.00  0.00    +0.165 C 
BRANCH  41  42
ATOM     42  O   UNL     1       6.881   5.122  22.105  0.00  0.00    -0.387 OA
ATOM     43  H   UNL     1       6.553   4.398  22.669  0.00  0.00    +0.210 HD
ENDBRANCH  41  42
BRANCH  41  44
ATOM     44  C   UNL     1       5.824   6.223  24.016  0.00  0.00    +0.158 C 
BRANCH  44  51
ATOM     45  C   UNL     1       1.242   3.925  20.096  0.00  0.00    +0.044 C 
ATOM     46  C   UNL     1       2.018   4.264  21.334  0.00  0.00    -0.045 A 
ATOM     47  C   UNL     1       2.515   5.558  21.557  0.00  0.00    -0.045 A 
ATOM     48  C   UNL     1       2.426   6.683  20.571  0.00  0.00    +0.044 C 
ATOM     49  C   UNL     1       3.275   5.819  22.690  0.00  0.00    +0.031 A 
ATOM     50  C   UNL     1       3.858   4.774  23.380  0.00  0.00    +0.069 A 
ATOM     51  N   UNL     1       5.032   4.948  24.126  0.00  0.00    -0.320 N 
ATOM     52  C   UNL     1       5.264   4.001  25.133  0.00  0.00    +0.170 A 
ATOM     53  C   UNL     1       4.431   2.717  25.105  0.00  0.00    +0.171 A 
ATOM     54  N   UNL     1       3.562   2.464  24.175  0.00  0.00    -0.237 NA
ATOM     55  C   UNL     1       4.627   1.728  26.226  0.00  0.00    +0.282 A 
ATOM     56  O   UNL     1       3.936   0.725  26.361  0.00  0.00    -0.265 OA
ATOM     57  N   UNL     1       5.598   2.088  27.104  0.00  0.00    -0.272 N 
ATOM     58  H   UNL     1       5.725   1.516  27.926  0.00  0.00    +0.174 HD
ATOM     59  C   UNL     1       6.308   3.250  27.087  0.00  0.00    +0.351 A 
ATOM     60  O   UNL     1       7.078   3.473  28.023  0.00  0.00    -0.245 OA
ATOM     61  N   UNL     1       6.135   4.154  26.076  0.00  0.00    -0.173 NA
ATOM     62  C   UNL     1       3.269   3.498  23.267  0.00  0.00    +0.089 A 
ATOM     63  C   UNL     1       2.339   3.255  22.253  0.00  0.00    +0.033 A 
ENDBRANCH  44  51
ENDBRANCH  41  44
ENDBRANCH  38  41
ENDBRANCH  35  38
ENDBRANCH  34  35
ENDBRANCH  33  34
ENDBRANCH   1  33
TORSDOF 20
ENDMDL
MODEL 3
REMARK VINA RESULT:      -7.0      3.360      5.563
REMARK  Name = 
REMARK  22 active torsions:
REMARK  status: ('A' for Active; 'I' for Inactive)
REMARK    1  A    between atoms: C_1  and  C_2
REMARK    2  A    between atoms: C_7  and  C_8
REMARK    3  A    between atoms: N_9  and  C_10
REMARK    4  A    between atoms: C_10  and  C_11
REMARK    5  A    between atoms: C_11  and  O_13
REMARK    6  A    between atoms: C_11  and  C_14
REMARK    7  A    between atoms: C_14  and  O_16
REMARK    8  A    between atoms: C_14  and  C_17
REMARK    9  A    between atoms: C_17  and  O_19
REMARK   10  A    between atoms: C_17  and  C_20
REMARK   11  A    between atoms: C_20  and  O_21
REMARK   12  A    between atoms: O_21  and  P_22
REMARK   13  A    between atoms: P_22  and  O_23
REMARK   14  A    between atoms: P_22  and  O_25
REMARK   15  A    between atoms: O_25  and  P_26
REMARK   16  A    between atoms: P_26  and  O_27
REMARK   17  A    between atoms: P_26  and  O_29
REMARK   18  A    between atoms: O_29  and  C_30
REMARK   19  A    between atoms: C_30  and  C_31
REMARK   20  A    between atoms: C_34  and  N_42
REMARK   21  A    between atoms: C_36  and  O_38
REMARK   22  A    between atoms: C_39  and  O_41
REMARK                            x       y       z     vdW  Elec       q    Type
REMARK                         _______ _______ _______ _____ _____    ______ ____
ROOT
ATOM      1  P   UNL     1       5.933   1.963  28.492  0.00  0.00    +0.483 P 
ATOM      2  O   UNL     1       5.243   1.498  29.779  0.00  0.00    -0.227 OA
ENDROOT
BRANCH   1   3
ATOM      3  O   UNL     1       6.212   0.293  28.136  0.00  0.00    -0.302 OA
ATOM      4  H   UNL     1       5.293  -0.051  28.100  0.00  0.00    +0.222 HD
ENDBRANCH   1   3
BRANCH   1   5
ATOM      5  O   UNL     1       5.655   3.632  28.849  0.00  0.00    -0.186 OA
BRANCH   5   6
ATOM      6  P   UNL     1       6.808   4.604  28.000  0.00  0.00    +0.483 P 
ATOM      7  O   UNL     1       6.462   5.760  28.941  0.00  0.00    -0.227 OA
BRANCH   6   8
ATOM      8  O   UNL     1       5.793   4.651  26.723  0.00  0.00    -0.302 OA
ATOM      9  H   UNL     1       5.061   5.283  26.836  0.00  0.00    +0.222 HD
ENDBRANCH   6   8
BRANCH   6  10
ATOM     10  O   UNL     1       7.961   5.574  27.151  0.00  0.00    -0.284 OA
BRANCH  10  11
ATOM     11  C   UNL     1       7.872   5.513  25.710  0.00  0.00    +0.206 C 
BRANCH  11  12
ATOM     12  C   UNL     1       8.693   4.391  25.092  0.00  0.00    +0.178 C 
ATOM     13  C   UNL     1       8.972   4.547  23.605  0.00  0.00    +0.178 C 
ATOM     14  C   UNL     1       9.010   3.109  23.088  0.00  0.00    +0.195 C 
ATOM     15  C   UNL     1       8.698   2.251  24.322  0.00  0.00    +0.253 C 
ATOM     16  O   UNL     1       8.035   3.121  25.251  0.00  0.00    -0.346 OA
BRANCH  15  17
ATOM     17  N   UNL     1       7.858   1.110  24.021  0.00  0.00    -0.286 N 
ATOM     18  C   UNL     1       8.249   0.047  23.254  0.00  0.00    +0.167 A 
ATOM     19  N   UNL     1       9.438  -0.129  22.648  0.00  0.00    -0.216 NA
ATOM     20  C   UNL     1       9.456  -1.307  21.985  0.00  0.00    +0.225 A 
ATOM     21  N   UNL     1       8.471  -2.225  21.873  0.00  0.00    -0.219 NA
ATOM     22  C   UNL     1       7.298  -1.996  22.508  0.00  0.00    +0.147 A 
ATOM     23  N   UNL     1       6.308  -2.959  22.423  0.00  0.00    -0.341 N 
ATOM     24  H   UNL     1       5.375  -2.659  22.680  0.00  0.00    +0.144 HD
ATOM     25  H   UNL     1       6.430  -3.631  21.679  0.00  0.00    +0.144 HD
ATOM     26  C   UNL     1       7.154  -0.800  23.231  0.00  0.00    +0.147 A 
ATOM     27  N   UNL     1       6.108  -0.261  23.955  0.00  0.00    -0.231 NA
ATOM     28  C   UNL     1       6.574   0.877  24.428  0.00  0.00    +0.203 A 
ENDBRANCH  15  17
BRANCH  14  29
ATOM     29  O   UNL     1      10.275   2.806  22.492  0.00  0.00    -0.385 OA
ATOM     30  H   UNL     1      10.950   2.923  23.197  0.00  0.00    +0.210 HD
ENDBRANCH  14  29
BRANCH  13  31
ATOM     31  O   UNL     1      10.193   5.246  23.383  0.00  0.00    -0.386 OA
ATOM     32  H   UNL     1      10.239   5.407  22.417  0.00  0.00    +0.210 HD
ENDBRANCH  13  31
ENDBRANCH  11  12
ENDBRANCH  10  11
ENDBRANCH   6  10
ENDBRANCH   5   6
ENDBRANCH   1   5
BRANCH   1  33
ATOM     33  O   UNL     1       4.692   1.904  27.254  0.00  0.00    -0.284 OA
BRANCH  33  34
ATOM     34  C   UNL     1       3.291   1.992  27.707  0.00  0.00    +0.206 C 
BRANCH  34  35
ATOM     35  C   UNL     1       2.219   0.823  27.733  0.00  0.00    +0.172 C 
BRANCH  35  36
ATOM     36  O   UNL     1       1.764   0.645  26.370  0.00  0.00    -0.387 OA
ATOM     37  H   UNL     1       2.333   1.129  25.748  0.00  0.00    +0.210 HD
ENDBRANCH  35  36
BRANCH  35  38
ATOM     38  C   UNL     1       2.739  -0.591  28.222  0.00  0.00    +0.175 C 
BRANCH  38  39
ATOM     39  O   UNL     1       1.638  -1.274  28.827  0.00  0.00    -0.387 OA
ATOM     40  H   UNL     1       1.402  -2.017  28.244  0.00  0.00    +0.210 HD
ENDBRANCH  38  39
BRANCH  38  41
ATOM     41  C   UNL     1       3.392  -1.558  27.131  0.00  0.00    +0.165 C 
BRANCH  41  42
ATOM     42  O   UNL     1       4.190  -0.841  26.184  0.00  0.00    -0.387 OA
ATOM     43  H   UNL     1       3.631  -0.130  25.820  0.00  0.00    +0.210 HD
ENDBRANCH  41  42
BRANCH  41  44
ATOM     44  C   UNL     1       4.303  -2.676  27.796  0.00  0.00    +0.158 C 
BRANCH  44  51
ATOM     45  C   UNL     1       2.580  -8.184  24.910  0.00  0.00    +0.044 C 
ATOM     46  C   UNL     1       3.395  -7.140  25.613  0.00  0.00    -0.045 A 
ATOM     47  C   UNL     1       2.909  -6.470  26.747  0.00  0.00    -0.045 A 
ATOM     48  C   UNL     1       1.528  -6.636  27.305  0.00  0.00    +0.044 C 
ATOM     49  C   UNL     1       3.672  -5.471  27.338  0.00  0.00    +0.031 A 
ATOM     50  C   UNL     1       4.693  -4.876  26.623  0.00  0.00    +0.069 A 
ATOM     51  N   UNL     1       5.107  -3.562  26.884  0.00  0.00    -0.320 N 
ATOM     52  C   UNL     1       6.403  -3.233  26.464  0.00  0.00    +0.170 A 
ATOM     53  C   UNL     1       7.097  -4.188  25.490  0.00  0.00    +0.171 A 
ATOM     54  N   UNL     1       6.521  -5.252  25.019  0.00  0.00    -0.237 NA
ATOM     55  C   UNL     1       8.517  -3.875  25.091  0.00  0.00    +0.282 A 
ATOM     56  O   UNL     1       9.201  -4.629  24.409  0.00  0.00    -0.265 OA
ATOM     57  N   UNL     1       8.984  -2.712  25.613  0.00  0.00    -0.272 N 
ATOM     58  H   UNL     1       9.954  -2.483  25.458  0.00  0.00    +0.174 HD
ATOM     59  C   UNL     1       8.325  -1.899  26.484  0.00  0.00    +0.351 A 
ATOM     60  O   UNL     1       8.933  -0.935  26.951  0.00  0.00    -0.245 OA
ATOM     61  N   UNL     1       7.038  -2.176  26.853  0.00  0.00    -0.173 NA
ATOM     62  C   UNL     1       5.278  -5.611  25.570  0.00  0.00    +0.089 A 
ATOM     63  C   UNL     1       4.632  -6.749  25.082  0.00  0.00    +0.033 A 
ENDBRANCH  44  51
ENDBRANCH  41  44
ENDBRANCH  38  41
ENDBRANCH  35  38
ENDBRANCH  34  35
ENDBRANCH  33  34
ENDBRANCH   1  33
TORSDOF 20
ENDMDL
MODEL 4
REMARK VINA RESULT:      -7.0      2.161      3.365
REMARK  Name = 
REMARK  22 active torsions:
REMARK  status: ('A' for Active; 'I' for Inactive)
REMARK    1  A    between atoms: C_1  and  C_2
REMARK    2  A    between atoms: C_7  and  C_8
REMARK    3  A    between atoms: N_9  and  C_10
REMARK    4  A    between atoms: C_10  and  C_11
REMARK    5  A    between atoms: C_11  and  O_13
REMARK    6  A    between atoms: C_11  and  C_14
REMARK    7  A    between atoms: C_14  and  O_16
REMARK    8  A    between atoms: C_14  and  C_17
REMARK    9  A    between atoms: C_17  and  O_19
REMARK   10  A    between atoms: C_17  and  C_20
REMARK   11  A    between atoms: C_20  and  O_21
REMARK   12  A    between atoms: O_21  and  P_22
REMARK   13  A    between atoms: P_22  and  O_23
REMARK   14  A    between atoms: P_22  and  O_25
REMARK   15  A    between atoms: O_25  and  P_26
REMARK   16  A    between atoms: P_26  and  O_27
REMARK   17  A    between atoms: P_26  and  O_29
REMARK   18  A    between atoms: O_29  and  C_30
REMARK   19  A    between atoms: C_30  and  C_31
REMARK   20  A    between atoms: C_34  and  N_42
REMARK   21  A    between atoms: C_36  and  O_38
REMARK   22  A    between atoms: C_39  and  O_41
REMARK                            x       y       z     vdW  Elec       q    Type
REMARK                         _______ _______ _______ _____ _____    ______ ____
ROOT
ATOM      1  P   UNL     1       7.380  -2.442  23.259  0.00  0.00    +0.483 P 
ATOM      2  O   UNL     1       7.960  -2.644  21.854  0.00  0.00    -0.227 OA
ENDROOT
BRANCH   1   3
ATOM      3  O   UNL     1       5.814  -2.447  22.524  0.00  0.00    -0.302 OA
ATOM      4  H   UNL     1       5.412  -1.645  22.925  0.00  0.00    +0.222 HD
ENDBRANCH   1   3
BRANCH   1   5
ATOM      5  O   UNL     1       8.946  -2.436  23.993  0.00  0.00    -0.186 OA
BRANCH   5   6
ATOM      6  P   UNL     1       9.374  -0.816  24.426  0.00  0.00    +0.483 P 
ATOM      7  O   UNL     1       8.777  -1.076  25.811  0.00  0.00    -0.227 OA
BRANCH   6   8
ATOM      8  O   UNL     1       8.191  -0.266  23.446  0.00  0.00    -0.302 OA
ATOM      9  H   UNL     1       8.414   0.573  23.006  0.00  0.00    +0.222 HD
ENDBRANCH   6   8
BRANCH   6  10
ATOM     10  O   UNL     1       9.802   0.803  24.859  0.00  0.00    -0.284 OA
BRANCH  10  11
ATOM     11  C   UNL     1      10.631   1.495  23.900  0.00  0.00    +0.206 C 
BRANCH  11  12
ATOM     12  C   UNL     1       9.928   2.650  23.203  0.00  0.00    +0.178 C 
ATOM     13  C   UNL     1      10.199   4.020  23.805  0.00  0.00    +0.178 C 
ATOM     14  C   UNL     1       8.897   4.786  23.570  0.00  0.00    +0.195 C 
ATOM     15  C   UNL     1       7.970   3.766  22.894  0.00  0.00    +0.253 C 
ATOM     16  O   UNL     1       8.500   2.473  23.222  0.00  0.00    -0.346 OA
BRANCH  15  17
ATOM     17  N   UNL     1       6.596   3.869  23.337  0.00  0.00    -0.286 N 
ATOM     18  C   UNL     1       5.976   2.955  24.145  0.00  0.00    +0.167 A 
ATOM     19  N   UNL     1       6.502   1.824  24.651  0.00  0.00    -0.216 NA
ATOM     20  C   UNL     1       5.587   1.181  25.411  0.00  0.00    +0.225 A 
ATOM     21  N   UNL     1       4.308   1.532  25.666  0.00  0.00    -0.219 NA
ATOM     22  C   UNL     1       3.835   2.683  25.133  0.00  0.00    +0.147 A 
ATOM     23  N   UNL     1       2.537   3.057  25.431  0.00  0.00    -0.341 N 
ATOM     24  H   UNL     1       2.131   3.765  24.830  0.00  0.00    +0.144 HD
ATOM     25  H   UNL     1       1.954   2.319  25.799  0.00  0.00    +0.144 HD
ATOM     26  C   UNL     1       4.691   3.442  24.318  0.00  0.00    +0.147 A 
ATOM     27  N   UNL     1       4.521   4.622  23.620  0.00  0.00    -0.231 NA
ATOM     28  C   UNL     1       5.690   4.855  23.058  0.00  0.00    +0.203 A 
ENDBRANCH  15  17
BRANCH  14  29
ATOM     29  O   UNL     1       9.121   5.958  22.781  0.00  0.00    -0.385 OA
ATOM     30  H   UNL     1       8.371   6.015  22.147  0.00  0.00    +0.210 HD
ENDBRANCH  14  29
BRANCH  13  31
ATOM     31  O   UNL     1      11.323   4.639  23.186  0.00  0.00    -0.386 OA
ATOM     32  H   UNL     1      12.099   4.095  23.433  0.00  0.00    +0.210 HD
ENDBRANCH  13  31
ENDBRANCH  11  12
ENDBRANCH  10  11
ENDBRANCH   6  10
ENDBRANCH   5   6
ENDBRANCH   1   5
BRANCH   1  33
ATOM     33  O   UNL     1       6.992  -4.053  23.835  0.00  0.00    -0.284 OA
BRANCH  33  34
ATOM     34  C   UNL     1       8.097  -4.840  24.415  0.00  0.00    +0.206 C 
BRANCH  34  35
ATOM     35  C   UNL     1       8.373  -5.110  25.954  0.00  0.00    +0.172 C 
BRANCH  35  36
ATOM     36  O   UNL     1       9.026  -3.927  26.473  0.00  0.00    -0.387 OA
ATOM     37  H   UNL     1       8.627  -3.651  27.315  0.00  0.00    +0.210 HD
ENDBRANCH  35  36
BRANCH  35  38
ATOM     38  C   UNL     1       7.098  -5.357  26.860  0.00  0.00    +0.175 C 
BRANCH  38  39
ATOM     39  O   UNL     1       7.483  -6.232  27.923  0.00  0.00    -0.387 OA
ATOM     40  H   UNL     1       6.704  -6.770  28.152  0.00  0.00    +0.210 HD
ENDBRANCH  38  39
BRANCH  38  41
ATOM     41  C   UNL     1       6.385  -4.077  27.497  0.00  0.00    +0.165 C 
BRANCH  41  42
ATOM     42  O   UNL     1       6.366  -2.966  26.596  0.00  0.00    -0.387 OA
ATOM     43  H   UNL     1       6.658  -3.298  25.727  0.00  0.00    +0.210 HD
ENDBRANCH  41  42
BRANCH  41  44
ATOM     44  C   UNL     1       4.887  -4.385  27.930  0.00  0.00    +0.158 C 
BRANCH  44  51
ATOM     45  C   UNL     1       0.622  -6.222  23.450  0.00  0.00    +0.044 C 
ATOM     46  C   UNL     1       1.590  -5.391  24.238  0.00  0.00    -0.045 A 
ATOM     47  C   UNL     1       2.851  -5.884  24.607  0.00  0.00    -0.045 A 
ATOM     48  C   UNL     1       3.320  -7.286  24.359  0.00  0.00    +0.044 C 
ATOM     49  C   UNL     1       3.698  -5.103  25.383  0.00  0.00    +0.031 A 
ATOM     50  C   UNL     1       3.184  -4.041  26.101  0.00  0.00    +0.069 A 
ATOM     51  N   UNL     1       3.790  -3.587  27.281  0.00  0.00    -0.320 N 
ATOM     52  C   UNL     1       3.495  -2.269  27.653  0.00  0.00    +0.170 A 
ATOM     53  C   UNL     1       2.317  -1.582  26.958  0.00  0.00    +0.171 A 
ATOM     54  N   UNL     1       1.571  -2.182  26.081  0.00  0.00    -0.237 NA
ATOM     55  C   UNL     1       2.041  -0.140  27.304  0.00  0.00    +0.282 A 
ATOM     56  O   UNL     1       1.197   0.535  26.727  0.00  0.00    -0.265 OA
ATOM     57  N   UNL     1       2.859   0.353  28.269  0.00  0.00    -0.272 N 
ATOM     58  H   UNL     1       2.787   1.335  28.489  0.00  0.00    +0.174 HD
ATOM     59  C   UNL     1       3.901  -0.302  28.852  0.00  0.00    +0.351 A 
ATOM     60  O   UNL     1       4.617   0.328  29.634  0.00  0.00    -0.245 OA
ATOM     61  N   UNL     1       4.160  -1.608  28.543  0.00  0.00    -0.173 NA
ATOM     62  C   UNL     1       1.986  -3.453  25.643  0.00  0.00    +0.089 A 
ATOM     63  C   UNL     1       1.203  -4.125  24.702  0.00  0.00    +0.033 A 
ENDBRANCH  44  51
ENDBRANCH  41  44
ENDBRANCH  38  41
ENDBRANCH  35  38
ENDBRANCH  34  35
ENDBRANCH  33  34
ENDBRANCH   1  33
TORSDOF 20
ENDMDL
MODEL 5
REMARK VINA RESULT:      -6.9      2.696      9.159
REMARK  Name = 
REMARK  22 active torsions:
REMARK  status: ('A' for Active; 'I' for Inactive)
REMARK    1  A    between atoms: C_1  and  C_2
REMARK    2  A    between atoms: C_7  and  C_8
REMARK    3  A    between atoms: N_9  and  C_10
REMARK    4  A    between atoms: C_10  and  C_11
REMARK    5  A    between atoms: C_11  and  O_13
REMARK    6  A    between atoms: C_11  and  C_14
REMARK    7  A    between atoms: C_14  and  O_16
REMARK    8  A    between atoms: C_14  and  C_17
REMARK    9  A    between atoms: C_17  and  O_19
REMARK   10  A    between atoms: C_17  and  C_20
REMARK   11  A    between atoms: C_20  and  O_21
REMARK   12  A    between atoms: O_21  and  P_22
REMARK   13  A    between atoms: P_22  and  O_23
REMARK   14  A    between atoms: P_22  and  O_25
REMARK   15  A    between atoms: O_25  and  P_26
REMARK   16  A    between atoms: P_26  and  O_27
REMARK   17  A    between atoms: P_26  and  O_29
REMARK   18  A    between atoms: O_29  and  C_30
REMARK   19  A    between atoms: C_30  and  C_31
REMARK   20  A    between atoms: C_34  and  N_42
REMARK   21  A    between atoms: C_36  and  O_38
REMARK   22  A    between atoms: C_39  and  O_41
REMARK                            x       y       z     vdW  Elec       q    Type
REMARK                         _______ _______ _______ _____ _____    ______ ____
ROOT
ATOM      1  P   UNL     1       9.042  -2.486  24.689  0.00  0.00    +0.483 P 
ATOM      2  O   UNL     1       7.764  -1.905  24.074  0.00  0.00    -0.227 OA
ENDROOT
BRANCH   1   3
ATOM      3  O   UNL     1       8.648  -3.974  23.901  0.00  0.00    -0.302 OA
ATOM      4  H   UNL     1       9.426  -4.526  24.134  0.00  0.00    +0.222 HD
ENDBRANCH   1   3
BRANCH   1   5
ATOM      5  O   UNL     1       9.436  -0.997  25.477  0.00  0.00    -0.186 OA
BRANCH   5   6
ATOM      6  P   UNL     1       8.083  -0.466  26.415  0.00  0.00    +0.483 P 
ATOM      7  O   UNL     1       8.158   0.876  25.683  0.00  0.00    -0.227 OA
BRANCH   6   8
ATOM      8  O   UNL     1       9.049  -0.396  27.728  0.00  0.00    -0.302 OA
ATOM      9  H   UNL     1       9.085   0.487  28.134  0.00  0.00    +0.222 HD
ENDBRANCH   6   8
BRANCH   6  10
ATOM     10  O   UNL     1       6.730   0.065  27.353  0.00  0.00    -0.284 OA
BRANCH  10  11
ATOM     11  C   UNL     1       5.544   0.386  26.592  0.00  0.00    +0.206 C 
BRANCH  11  12
ATOM     12  C   UNL     1       4.512  -0.730  26.565  0.00  0.00    +0.178 C 
ATOM     13  C   UNL     1       4.412  -1.540  27.848  0.00  0.00    +0.178 C 
ATOM     14  C   UNL     1       4.039  -2.943  27.367  0.00  0.00    +0.195 C 
ATOM     15  C   UNL     1       4.006  -2.825  25.836  0.00  0.00    +0.253 C 
ATOM     16  O   UNL     1       4.794  -1.670  25.512  0.00  0.00    -0.346 OA
BRANCH  15  17
ATOM     17  N   UNL     1       4.537  -3.995  25.167  0.00  0.00    -0.286 N 
ATOM     18  C   UNL     1       4.992  -4.004  23.877  0.00  0.00    +0.167 A 
ATOM     19  N   UNL     1       5.021  -2.971  23.014  0.00  0.00    -0.216 NA
ATOM     20  C   UNL     1       5.548  -3.363  21.833  0.00  0.00    +0.225 A 
ATOM     21  N   UNL     1       5.988  -4.589  21.472  0.00  0.00    -0.219 NA
ATOM     22  C   UNL     1       5.938  -5.588  22.383  0.00  0.00    +0.147 A 
ATOM     23  N   UNL     1       6.427  -6.831  22.021  0.00  0.00    -0.341 N 
ATOM     24  H   UNL     1       6.149  -7.606  22.611  0.00  0.00    +0.144 HD
ATOM     25  H   UNL     1       6.535  -6.973  21.027  0.00  0.00    +0.144 HD
ATOM     26  C   UNL     1       5.406  -5.307  23.653  0.00  0.00    +0.147 A 
ATOM     27  N   UNL     1       5.195  -6.084  24.776  0.00  0.00    -0.231 NA
ATOM     28  C   UNL     1       4.688  -5.258  25.669  0.00  0.00    +0.203 A 
ENDBRANCH  15  17
BRANCH  14  29
ATOM     29  O   UNL     1       2.795  -3.370  27.929  0.00  0.00    -0.385 OA
ATOM     30  H   UNL     1       2.333  -2.557  28.232  0.00  0.00    +0.210 HD
ENDBRANCH  14  29
BRANCH  13  31
ATOM     31  O   UNL     1       3.443  -0.984  28.732  0.00  0.00    -0.386 OA
ATOM     32  H   UNL     1       2.591  -1.011  28.248  0.00  0.00    +0.210 HD
ENDBRANCH  13  31
ENDBRANCH  11  12
ENDBRANCH  10  11
ENDBRANCH   6  10
ENDBRANCH   5   6
ENDBRANCH   1   5
BRANCH   1  33
ATOM     33  O   UNL     1      10.277  -2.291  23.458  0.00  0.00    -0.284 OA
BRANCH  33  34
ATOM     34  C   UNL     1      10.539  -0.919  22.985  0.00  0.00    +0.206 C 
BRANCH  34  35
ATOM     35  C   UNL     1       9.761  -0.136  21.844  0.00  0.00    +0.172 C 
BRANCH  35  36
ATOM     36  O   UNL     1       8.644  -0.970  21.454  0.00  0.00    -0.387 OA
ATOM     37  H   UNL     1       8.534  -1.713  22.070  0.00  0.00    +0.210 HD
ENDBRANCH  35  36
BRANCH  35  38
ATOM     38  C   UNL     1       9.155   1.270  22.250  0.00  0.00    +0.175 C 
BRANCH  38  39
ATOM     39  O   UNL     1       9.836   2.272  21.492  0.00  0.00    -0.387 OA
ATOM     40  H   UNL     1      10.661   2.484  21.965  0.00  0.00    +0.210 HD
ENDBRANCH  38  39
BRANCH  38  41
ATOM     41  C   UNL     1       7.583   1.479  22.062  0.00  0.00    +0.165 C 
BRANCH  41  42
ATOM     42  O   UNL     1       6.836   0.989  23.179  0.00  0.00    -0.387 OA
ATOM     43  H   UNL     1       6.417   0.154  22.899  0.00  0.00    +0.210 HD
ENDBRANCH  41  42
BRANCH  41  44
ATOM     44  C   UNL     1       7.208   3.009  21.852  0.00  0.00    +0.158 C 
BRANCH  44  51
ATOM     45  C   UNL     1       1.585   3.890  24.893  0.00  0.00    +0.044 C 
ATOM     46  C   UNL     1       2.943   4.145  24.308  0.00  0.00    -0.045 A 
ATOM     47  C   UNL     1       3.263   3.756  22.998  0.00  0.00    -0.045 A 
ATOM     48  C   UNL     1       2.354   2.973  22.099  0.00  0.00    +0.044 C 
ATOM     49  C   UNL     1       4.548   3.960  22.512  0.00  0.00    +0.031 A 
ATOM     50  C   UNL     1       5.588   4.176  23.394  0.00  0.00    +0.069 A 
ATOM     51  N   UNL     1       6.909   3.833  23.074  0.00  0.00    -0.320 N 
ATOM     52  C   UNL     1       7.907   4.503  23.795  0.00  0.00    +0.170 A 
ATOM     53  C   UNL     1       7.485   5.263  25.055  0.00  0.00    +0.171 A 
ATOM     54  N   UNL     1       6.262   5.275  25.491  0.00  0.00    -0.237 NA
ATOM     55  C   UNL     1       8.543   6.042  25.793  0.00  0.00    +0.282 A 
ATOM     56  O   UNL     1       8.293   6.773  26.744  0.00  0.00    -0.265 OA
ATOM     57  N   UNL     1       9.786   5.907  25.263  0.00  0.00    -0.272 N 
ATOM     58  H   UNL     1      10.528   6.468  25.654  0.00  0.00    +0.174 HD
ATOM     59  C   UNL     1      10.108   5.221  24.131  0.00  0.00    +0.351 A 
ATOM     60  O   UNL     1      11.269   5.289  23.723  0.00  0.00    -0.245 OA
ATOM     61  N   UNL     1       9.154   4.513  23.454  0.00  0.00    -0.173 NA
ATOM     62  C   UNL     1       5.277   4.704  24.665  0.00  0.00    +0.089 A 
ATOM     63  C   UNL     1       3.952   4.699  25.108  0.00  0.00    +0.033 A 
ENDBRANCH  44  51
ENDBRANCH  41  44
ENDBRANCH  38  41
ENDBRANCH  35  38
ENDBRANCH  34  35
ENDBRANCH  33  34
ENDBRANCH   1  33
TORSDOF 20
ENDMDL
MODEL 6
REMARK VINA RESULT:      -6.8      2.423      9.600
REMARK  Name = 
REMARK  22 active torsions:
REMARK  status: ('A' for Active; 'I' for Inactive)
REMARK    1  A    between atoms: C_1  and  C_2
REMARK    2  A    between atoms: C_7  and  C_8
REMARK    3  A    between atoms: N_9  and  C_10
REMARK    4  A    between atoms: C_10  and  C_11
REMARK    5  A    between atoms: C_11  and  O_13
REMARK    6  A    between atoms: C_11  and  C_14
REMARK    7  A    between atoms: C_14  and  O_16
REMARK    8  A    between atoms: C_14  and  C_17
REMARK    9  A    between atoms: C_17  and  O_19
REMARK   10  A    between atoms: C_17  and  C_20
REMARK   11  A    between atoms: C_20  and  O_21
REMARK   12  A    between atoms: O_21  and  P_22
REMARK   13  A    between atoms: P_22  and  O_23
REMARK   14  A    between atoms: P_22  and  O_25
REMARK   15  A    between atoms: O_25  and  P_26
REMARK   16  A    between atoms: P_26  and  O_27
REMARK   17  A    between atoms: P_26  and  O_29
REMARK   18  A    between atoms: O_29  and  C_30
REMARK   19  A    between atoms: C_30  and  C_31
REMARK   20  A    between atoms: C_34  and  N_42
REMARK   21  A    between atoms: C_36  and  O_38
REMARK   22  A    between atoms: C_39  and  O_41
REMARK                            x       y       z     vdW  Elec       q    Type
REMARK                         _______ _______ _______ _____ _____    ______ ____
ROOT
ATOM      1  P   UNL     1       9.567   1.596  23.011  0.00  0.00    +0.483 P 
ATOM      2  O   UNL     1      10.255   1.849  21.665  0.00  0.00    -0.227 OA
ENDROOT
BRANCH   1   3
ATOM      3  O   UNL     1      10.835   2.519  23.741  0.00  0.00    -0.302 OA
ATOM      4  H   UNL     1      11.390   2.734  22.959  0.00  0.00    +0.222 HD
ENDBRANCH   1   3
BRANCH   1   5
ATOM      5  O   UNL     1       8.299   0.673  22.282  0.00  0.00    -0.186 OA
BRANCH   5   6
ATOM      6  P   UNL     1       8.506  -1.001  22.673  0.00  0.00    +0.483 P 
ATOM      7  O   UNL     1       9.316  -0.569  23.897  0.00  0.00    -0.227 OA
BRANCH   6   8
ATOM      8  O   UNL     1       9.520  -1.149  21.404  0.00  0.00    -0.302 OA
ATOM      9  H   UNL     1       9.267  -0.600  20.642  0.00  0.00    +0.222 HD
ENDBRANCH   6   8
BRANCH   6  10
ATOM     10  O   UNL     1       8.711  -2.673  23.064  0.00  0.00    -0.284 OA
BRANCH  10  11
ATOM     11  C   UNL     1       9.558  -2.937  24.204  0.00  0.00    +0.206 C 
BRANCH  11  12
ATOM     12  C   UNL     1       8.804  -3.442  25.425  0.00  0.00    +0.178 C 
ATOM     13  C   UNL     1       8.952  -4.931  25.697  0.00  0.00    +0.178 C 
ATOM     14  C   UNL     1       7.610  -5.325  26.314  0.00  0.00    +0.195 C 
ATOM     15  C   UNL     1       6.786  -4.030  26.295  0.00  0.00    +0.253 C 
ATOM     16  O   UNL     1       7.392  -3.191  25.300  0.00  0.00    -0.346 OA
BRANCH  15  17
ATOM     17  N   UNL     1       5.391  -4.251  25.977  0.00  0.00    -0.286 N 
ATOM     18  C   UNL     1       4.942  -4.755  24.786  0.00  0.00    +0.167 A 
ATOM     19  N   UNL     1       5.683  -5.115  23.722  0.00  0.00    -0.216 NA
ATOM     20  C   UNL     1       4.886  -5.576  22.731  0.00  0.00    +0.225 A 
ATOM     21  N   UNL     1       3.539  -5.678  22.713  0.00  0.00    -0.219 NA
ATOM     22  C   UNL     1       2.847  -5.305  23.814  0.00  0.00    +0.147 A 
ATOM     23  N   UNL     1       1.472  -5.449  23.804  0.00  0.00    -0.341 N 
ATOM     24  H   UNL     1       0.967  -4.937  24.517  0.00  0.00    +0.144 HD
ATOM     25  H   UNL     1       1.062  -5.568  22.889  0.00  0.00    +0.144 HD
ATOM     26  C   UNL     1       3.564  -4.803  24.915  0.00  0.00    +0.147 A 
ATOM     27  N   UNL     1       3.174  -4.326  26.151  0.00  0.00    -0.231 NA
ATOM     28  C   UNL     1       4.299  -4.020  26.766  0.00  0.00    +0.203 A 
ENDBRANCH  15  17
BRANCH  14  29
ATOM     29  O   UNL     1       7.782  -5.868  27.626  0.00  0.00    -0.385 OA
ATOM     30  H   UNL     1       7.521  -6.814  27.573  0.00  0.00    +0.210 HD
ENDBRANCH  14  29
BRANCH  13  31
ATOM     31  O   UNL     1      10.054  -5.186  26.564  0.00  0.00    -0.386 OA
ATOM     32  H   UNL     1      10.595  -5.870  26.116  0.00  0.00    +0.210 HD
ENDBRANCH  13  31
ENDBRANCH  11  12
ENDBRANCH  10  11
ENDBRANCH   6  10
ENDBRANCH   5   6
ENDBRANCH   1   5
BRANCH   1  33
ATOM     33  O   UNL     1       8.546   2.997  23.279  0.00  0.00    -0.284 OA
BRANCH  33  34
ATOM     34  C   UNL     1       9.218   4.248  23.678  0.00  0.00    +0.206 C 
BRANCH  34  35
ATOM     35  C   UNL     1       8.645   5.723  23.554  0.00  0.00    +0.172 C 
BRANCH  35  36
ATOM     36  O   UNL     1       9.787   6.612  23.537  0.00  0.00    -0.387 OA
ATOM     37  H   UNL     1       9.509   7.531  23.383  0.00  0.00    +0.210 HD
ENDBRANCH  35  36
BRANCH  35  38
ATOM     38  C   UNL     1       7.807   6.039  22.249  0.00  0.00    +0.175 C 
BRANCH  38  39
ATOM     39  O   UNL     1       7.307   4.799  21.742  0.00  0.00    -0.387 OA
ATOM     40  H   UNL     1       8.052   4.172  21.721  0.00  0.00    +0.210 HD
ENDBRANCH  38  39
BRANCH  38  41
ATOM     41  C   UNL     1       6.582   7.056  22.385  0.00  0.00    +0.165 C 
BRANCH  41  42
ATOM     42  O   UNL     1       5.775   7.089  21.203  0.00  0.00    -0.387 OA
ATOM     43  H   UNL     1       4.983   6.551  21.383  0.00  0.00    +0.210 HD
ENDBRANCH  41  42
BRANCH  41  44
ATOM     44  C   UNL     1       5.641   6.693  23.613  0.00  0.00    +0.158 C 
BRANCH  44  51
ATOM     45  C   UNL     1       1.368   4.016  19.586  0.00  0.00    +0.044 C 
ATOM     46  C   UNL     1       2.106   4.387  20.838  0.00  0.00    -0.045 A 
ATOM     47  C   UNL     1       2.423   5.721  21.136  0.00  0.00    -0.045 A 
ATOM     48  C   UNL     1       2.166   6.879  20.220  0.00  0.00    +0.044 C 
ATOM     49  C   UNL     1       3.155   6.019  22.278  0.00  0.00    +0.031 A 
ATOM     50  C   UNL     1       3.886   5.026  22.901  0.00  0.00    +0.069 A 
ATOM     51  N   UNL     1       5.035   5.316  23.650  0.00  0.00    -0.320 N 
ATOM     52  C   UNL     1       5.408   4.353  24.597  0.00  0.00    +0.170 A 
ATOM     53  C   UNL     1       4.760   2.970  24.496  0.00  0.00    +0.171 A 
ATOM     54  N   UNL     1       3.921   2.654  23.557  0.00  0.00    -0.237 NA
ATOM     55  C   UNL     1       5.106   1.953  25.555  0.00  0.00    +0.282 A 
ATOM     56  O   UNL     1       4.561   0.859  25.633  0.00  0.00    -0.265 OA
ATOM     57  N   UNL     1       6.030   2.392  26.448  0.00  0.00    -0.272 N 
ATOM     58  H   UNL     1       6.245   1.796  27.233  0.00  0.00    +0.174 HD
ATOM     59  C   UNL     1       6.572   3.641  26.497  0.00  0.00    +0.351 A 
ATOM     60  O   UNL     1       7.317   3.913  27.441  0.00  0.00    -0.245 OA
ATOM     61  N   UNL     1       6.263   4.570  25.543  0.00  0.00    -0.173 NA
ATOM     62  C   UNL     1       3.476   3.689  22.715  0.00  0.00    +0.089 A 
ATOM     63  C   UNL     1       2.576   3.380  21.693  0.00  0.00    +0.033 A 
ENDBRANCH  44  51
ENDBRANCH  41  44
ENDBRANCH  38  41
ENDBRANCH  35  38
ENDBRANCH  34  35
ENDBRANCH  33  34
ENDBRANCH   1  33
TORSDOF 20
ENDMDL
MODEL 7
REMARK VINA RESULT:      -6.8      2.444      8.459
REMARK  Name = 
REMARK  22 active torsions:
REMARK  status: ('A' for Active; 'I' for Inactive)
REMARK    1  A    between atoms: C_1  and  C_2
REMARK    2  A    between atoms: C_7  and  C_8
REMARK    3  A    between atoms: N_9  and  C_10
REMARK    4  A    between atoms: C_10  and  C_11
REMARK    5  A    between atoms: C_11  and  O_13
REMARK    6  A    between atoms: C_11  and  C_14
REMARK    7  A    between atoms: C_14  and  O_16
REMARK    8  A    between atoms: C_14  and  C_17
REMARK    9  A    between atoms: C_17  and  O_19
REMARK   10  A    between atoms: C_17  and  C_20
REMARK   11  A    between atoms: C_20  and  O_21
REMARK   12  A    between atoms: O_21  and  P_22
REMARK   13  A    between atoms: P_22  and  O_23
REMARK   14  A    between atoms: P_22  and  O_25
REMARK   15  A    between atoms: O_25  and  P_26
REMARK   16  A    between atoms: P_26  and  O_27
REMARK   17  A    between atoms: P_26  and  O_29
REMARK   18  A    between atoms: O_29  and  C_30
REMARK   19  A    between atoms: C_30  and  C_31
REMARK   20  A    between atoms: C_34  and  N_42
REMARK   21  A    between atoms: C_36  and  O_38
REMARK   22  A    between atoms: C_39  and  O_41
REMARK                            x       y       z     vdW  Elec       q    Type
REMARK                         _______ _______ _______ _____ _____    ______ ____
ROOT
ATOM      1  P   UNL     1       8.391  -2.736  23.351  0.00  0.00    +0.483 P 
ATOM      2  O   UNL     1       9.235  -2.209  22.185  0.00  0.00    -0.227 OA
ENDROOT
BRANCH   1   3
ATOM      3  O   UNL     1       9.860  -3.344  24.033  0.00  0.00    -0.302 OA
ATOM      4  H   UNL     1      10.190  -2.553  24.513  0.00  0.00    +0.222 HD
ENDBRANCH   1   3
BRANCH   1   5
ATOM      5  O   UNL     1       6.922  -2.129  22.670  0.00  0.00    -0.186 OA
BRANCH   5   6
ATOM      6  P   UNL     1       5.717  -3.371  22.695  0.00  0.00    +0.483 P 
ATOM      7  O   UNL     1       5.202  -2.783  24.011  0.00  0.00    -0.227 OA
BRANCH   6   8
ATOM      8  O   UNL     1       6.883  -4.462  23.034  0.00  0.00    -0.302 OA
ATOM      9  H   UNL     1       7.738  -4.254  22.619  0.00  0.00    +0.222 HD
ENDBRANCH   6   8
BRANCH   6  10
ATOM     10  O   UNL     1       4.513  -4.612  22.720  0.00  0.00    -0.284 OA
BRANCH  10  11
ATOM     11  C   UNL     1       5.024  -5.963  22.698  0.00  0.00    +0.206 C 
BRANCH  11  12
ATOM     12  C   UNL     1       4.704  -6.760  23.953  0.00  0.00    +0.178 C 
ATOM     13  C   UNL     1       3.220  -6.952  24.228  0.00  0.00    +0.178 C 
ATOM     14  C   UNL     1       3.131  -6.977  25.754  0.00  0.00    +0.195 C 
ATOM     15  C   UNL     1       4.574  -6.747  26.224  0.00  0.00    +0.253 C 
ATOM     16  O   UNL     1       5.254  -6.127  25.122  0.00  0.00    -0.346 OA
BRANCH  15  17
ATOM     17  N   UNL     1       4.659  -5.904  27.399  0.00  0.00    -0.286 N 
ATOM     18  C   UNL     1       4.040  -4.690  27.523  0.00  0.00    +0.167 A 
ATOM     19  N   UNL     1       3.275  -4.067  26.607  0.00  0.00    -0.216 NA
ATOM     20  C   UNL     1       2.832  -2.886  27.093  0.00  0.00    +0.225 A 
ATOM     21  N   UNL     1       3.082  -2.323  28.296  0.00  0.00    -0.219 NA
ATOM     22  C   UNL     1       3.854  -2.999  29.178  0.00  0.00    +0.147 A 
ATOM     23  N   UNL     1       4.073  -2.436  30.423  0.00  0.00    -0.341 N 
ATOM     24  H   UNL     1       4.843  -2.823  30.955  0.00  0.00    +0.144 HD
ATOM     25  H   UNL     1       3.868  -1.449  30.487  0.00  0.00    +0.144 HD
ATOM     26  C   UNL     1       4.381  -4.242  28.788  0.00  0.00    +0.147 A 
ATOM     27  N   UNL     1       5.203  -5.154  29.422  0.00  0.00    -0.231 NA
ATOM     28  C   UNL     1       5.333  -6.146  28.564  0.00  0.00    +0.203 A 
ENDBRANCH  15  17
BRANCH  14  29
ATOM     29  O   UNL     1       2.573  -8.209  26.220  0.00  0.00    -0.385 OA
ATOM     30  H   UNL     1       1.928  -7.974  26.923  0.00  0.00    +0.210 HD
ENDBRANCH  14  29
BRANCH  13  31
ATOM     31  O   UNL     1       2.738  -8.150  23.627  0.00  0.00    -0.386 OA
ATOM     32  H   UNL     1       1.764  -8.134  23.740  0.00  0.00    +0.210 HD
ENDBRANCH  13  31
ENDBRANCH  11  12
ENDBRANCH  10  11
ENDBRANCH   6  10
ENDBRANCH   5   6
ENDBRANCH   1   5
BRANCH   1  33
ATOM     33  O   UNL     1       8.470  -1.487  24.580  0.00  0.00    -0.284 OA
BRANCH  33  34
ATOM     34  C   UNL     1       7.979  -1.841  25.926  0.00  0.00    +0.206 C 
BRANCH  34  35
ATOM     35  C   UNL     1       7.686  -0.848  27.128  0.00  0.00    +0.172 C 
BRANCH  35  36
ATOM     36  O   UNL     1       8.906  -0.104  27.360  0.00  0.00    -0.387 OA
ATOM     37  H   UNL     1       9.372   0.069  26.525  0.00  0.00    +0.210 HD
ENDBRANCH  35  36
BRANCH  35  38
ATOM     38  C   UNL     1       6.544   0.223  26.888  0.00  0.00    +0.175 C 
BRANCH  38  39
ATOM     39  O   UNL     1       5.299  -0.384  27.242  0.00  0.00    -0.387 OA
ATOM     40  H   UNL     1       4.855  -0.640  26.414  0.00  0.00    +0.210 HD
ENDBRANCH  38  39
BRANCH  38  41
ATOM     41  C   UNL     1       6.662   1.616  27.661  0.00  0.00    +0.165 C 
BRANCH  41  42
ATOM     42  O   UNL     1       7.587   1.552  28.751  0.00  0.00    -0.387 OA
ATOM     43  H   UNL     1       7.073   1.333  29.550  0.00  0.00    +0.210 HD
ENDBRANCH  41  42
BRANCH  41  44
ATOM     44  C   UNL     1       7.118   2.794  26.697  0.00  0.00    +0.158 C 
BRANCH  44  51
ATOM     45  C   UNL     1       2.301   4.295  22.673  0.00  0.00    +0.044 C 
ATOM     46  C   UNL     1       3.442   3.566  23.319  0.00  0.00    -0.045 A 
ATOM     47  C   UNL     1       3.491   3.362  24.707  0.00  0.00    -0.045 A 
ATOM     48  C   UNL     1       2.500   3.922  25.683  0.00  0.00    +0.044 C 
ATOM     49  C   UNL     1       4.590   2.730  25.274  0.00  0.00    +0.031 A 
ATOM     50  C   UNL     1       5.773   2.649  24.566  0.00  0.00    +0.069 A 
ATOM     51  N   UNL     1       7.015   2.567  25.213  0.00  0.00    -0.320 N 
ATOM     52  C   UNL     1       8.064   2.024  24.459  0.00  0.00    +0.170 A 
ATOM     53  C   UNL     1       7.859   1.895  22.947  0.00  0.00    +0.171 A 
ATOM     54  N   UNL     1       6.780   2.300  22.348  0.00  0.00    -0.237 NA
ATOM     55  C   UNL     1       8.956   1.247  22.142  0.00  0.00    +0.282 A 
ATOM     56  O   UNL     1       8.848   0.993  20.948  0.00  0.00    -0.265 OA
ATOM     57  N   UNL     1      10.047   0.914  22.879  0.00  0.00    -0.272 N 
ATOM     58  H   UNL     1      10.784   0.400  22.422  0.00  0.00    +0.174 HD
ATOM     59  C   UNL     1      10.176   1.045  24.229  0.00  0.00    +0.351 A 
ATOM     60  O   UNL     1      11.191   0.592  24.761  0.00  0.00    -0.245 OA
ATOM     61  N   UNL     1       9.185   1.630  24.968  0.00  0.00    -0.173 NA
ATOM     62  C   UNL     1       5.707   2.711  23.158  0.00  0.00    +0.089 A 
ATOM     63  C   UNL     1       4.534   3.155  22.543  0.00  0.00    +0.033 A 
ENDBRANCH  44  51
ENDBRANCH  41  44
ENDBRANCH  38  41
ENDBRANCH  35  38
ENDBRANCH  34  35
ENDBRANCH  33  34
ENDBRANCH   1  33
TORSDOF 20
ENDMDL
MODEL 8
REMARK VINA RESULT:      -6.8      1.968      9.295
REMARK  Name = 
REMARK  22 active torsions:
REMARK  status: ('A' for Active; 'I' for Inactive)
REMARK    1  A    between atoms: C_1  and  C_2
REMARK    2  A    between atoms: C_7  and  C_8
REMARK    3  A    between atoms: N_9  and  C_10
REMARK    4  A    between atoms: C_10  and  C_11
REMARK    5  A    between atoms: C_11  and  O_13
REMARK    6  A    between atoms: C_11  and  C_14
REMARK    7  A    between atoms: C_14  and  O_16
REMARK    8  A    between atoms: C_14  and  C_17
REMARK    9  A    between atoms: C_17  and  O_19
REMARK   10  A    between atoms: C_17  and  C_20
REMARK   11  A    between atoms: C_20  and  O_21
REMARK   12  A    between atoms: O_21  and  P_22
REMARK   13  A    between atoms: P_22  and  O_23
REMARK   14  A    between atoms: P_22  and  O_25
REMARK   15  A    between atoms: O_25  and  P_26
REMARK   16  A    between atoms: P_26  and  O_27
REMARK   17  A    between atoms: P_26  and  O_29
REMARK   18  A    between atoms: O_29  and  C_30
REMARK   19  A    between atoms: C_30  and  C_31
REMARK   20  A    between atoms: C_34  and  N_42
REMARK   21  A    between atoms: C_36  and  O_38
REMARK   22  A    between atoms: C_39  and  O_41
REMARK                            x       y       z     vdW  Elec       q    Type
REMARK                         _______ _______ _______ _____ _____    ______ ____
ROOT
ATOM      1  P   UNL     1       8.443  -2.675  23.474  0.00  0.00    +0.483 P 
ATOM      2  O   UNL     1       7.445  -1.566  23.824  0.00  0.00    -0.227 OA
ENDROOT
BRANCH   1   3
ATOM      3  O   UNL     1       8.007  -2.432  21.818  0.00  0.00    -0.302 OA
ATOM      4  H   UNL     1       7.810  -3.352  21.535  0.00  0.00    +0.222 HD
ENDBRANCH   1   3
BRANCH   1   5
ATOM      5  O   UNL     1       8.879  -2.918  25.130  0.00  0.00    -0.186 OA
BRANCH   5   6
ATOM      6  P   UNL     1       8.029  -4.290  25.755  0.00  0.00    +0.483 P 
ATOM      7  O   UNL     1       8.314  -5.012  24.436  0.00  0.00    -0.227 OA
BRANCH   6   8
ATOM      8  O   UNL     1       6.630  -3.463  25.603  0.00  0.00    -0.302 OA
ATOM      9  H   UNL     1       5.942  -3.955  25.123  0.00  0.00    +0.222 HD
ENDBRANCH   6   8
BRANCH   6  10
ATOM     10  O   UNL     1       7.179  -5.660  26.380  0.00  0.00    -0.284 OA
BRANCH  10  11
ATOM     11  C   UNL     1       7.107  -5.732  27.821  0.00  0.00    +0.206 C 
BRANCH  11  12
ATOM     12  C   UNL     1       5.706  -5.525  28.376  0.00  0.00    +0.178 C 
ATOM     13  C   UNL     1       5.029  -6.786  28.890  0.00  0.00    +0.178 C 
ATOM     14  C   UNL     1       3.547  -6.549  28.599  0.00  0.00    +0.195 C 
ATOM     15  C   UNL     1       3.509  -5.186  27.893  0.00  0.00    +0.253 C 
ATOM     16  O   UNL     1       4.830  -4.973  27.375  0.00  0.00    -0.346 OA
BRANCH  15  17
ATOM     17  N   UNL     1       2.538  -5.132  26.820  0.00  0.00    -0.286 N 
ATOM     18  C   UNL     1       2.852  -5.225  25.491  0.00  0.00    +0.167 A 
ATOM     19  N   UNL     1       4.076  -5.368  24.950  0.00  0.00    -0.216 NA
ATOM     20  C   UNL     1       3.988  -5.432  23.603  0.00  0.00    +0.225 A 
ATOM     21  N   UNL     1       2.885  -5.352  22.826  0.00  0.00    -0.219 NA
ATOM     22  C   UNL     1       1.680  -5.213  23.427  0.00  0.00    +0.147 A 
ATOM     23  N   UNL     1       0.551  -5.173  22.629  0.00  0.00    -0.341 N 
ATOM     24  H   UNL     1      -0.290  -4.818  23.068  0.00  0.00    +0.144 HD
ATOM     25  H   UNL     1       0.725  -4.981  21.653  0.00  0.00    +0.144 HD
ATOM     26  C   UNL     1       1.639  -5.131  24.829  0.00  0.00    +0.147 A 
ATOM     27  N   UNL     1       0.605  -4.968  25.730  0.00  0.00    -0.231 NA
ATOM     28  C   UNL     1       1.182  -4.991  26.915  0.00  0.00    +0.203 A 
ENDBRANCH  15  17
BRANCH  14  29
ATOM     29  O   UNL     1       2.770  -6.587  29.800  0.00  0.00    -0.385 OA
ATOM     30  H   UNL     1       2.972  -7.445  30.235  0.00  0.00    +0.210 HD
ENDBRANCH  14  29
BRANCH  13  31
ATOM     31  O   UNL     1       5.294  -6.981  30.276  0.00  0.00    -0.386 OA
ATOM     32  H   UNL     1       4.876  -7.836  30.512  0.00  0.00    +0.210 HD
ENDBRANCH  13  31
ENDBRANCH  11  12
ENDBRANCH  10  11
ENDBRANCH   6  10
ENDBRANCH   5   6
ENDBRANCH   1   5
BRANCH   1  33
ATOM     33  O   UNL     1       9.939  -1.845  23.084  0.00  0.00    -0.284 OA
BRANCH  33  34
ATOM     34  C   UNL     1       9.912  -0.922  21.933  0.00  0.00    +0.206 C 
BRANCH  34  35
ATOM     35  C   UNL     1       9.865   0.663  21.979  0.00  0.00    +0.172 C 
BRANCH  35  36
ATOM     36  O   UNL     1       8.908   1.080  20.977  0.00  0.00    -0.387 OA
ATOM     37  H   UNL     1       8.712   0.355  20.360  0.00  0.00    +0.210 HD
ENDBRANCH  35  36
BRANCH  35  38
ATOM     38  C   UNL     1       9.397   1.309  23.347  0.00  0.00    +0.175 C 
BRANCH  38  39
ATOM     39  O   UNL     1      10.283   0.849  24.371  0.00  0.00    -0.387 OA
ATOM     40  H   UNL     1      10.103   1.377  25.169  0.00  0.00    +0.210 HD
ENDBRANCH  38  39
BRANCH  38  41
ATOM     41  C   UNL     1       9.323   2.903  23.425  0.00  0.00    +0.165 C 
BRANCH  41  42
ATOM     42  O   UNL     1       8.831   3.480  22.212  0.00  0.00    -0.387 OA
ATOM     43  H   UNL     1       9.605   3.662  21.648  0.00  0.00    +0.210 HD
ENDBRANCH  41  42
BRANCH  41  44
ATOM     44  C   UNL     1       8.395   3.397  24.617  0.00  0.00    +0.158 C 
BRANCH  44  51
ATOM     45  C   UNL     1       2.814   5.237  21.952  0.00  0.00    +0.044 C 
ATOM     46  C   UNL     1       3.816   4.708  22.934  0.00  0.00    -0.045 A 
ATOM     47  C   UNL     1       5.010   5.394  23.207  0.00  0.00    -0.045 A 
ATOM     48  C   UNL     1       5.456   6.637  22.498  0.00  0.00    +0.044 C 
ATOM     49  C   UNL     1       5.938   4.844  24.082  0.00  0.00    +0.031 A 
ATOM     50  C   UNL     1       5.885   3.495  24.377  0.00  0.00    +0.069 A 
ATOM     51  N   UNL     1       7.031   2.777  24.748  0.00  0.00    -0.320 N 
ATOM     52  C   UNL     1       6.806   1.593  25.464  0.00  0.00    +0.170 A 
ATOM     53  C   UNL     1       5.383   1.031  25.477  0.00  0.00    +0.171 A 
ATOM     54  N   UNL     1       4.404   1.583  24.827  0.00  0.00    -0.237 NA
ATOM     55  C   UNL     1       5.122  -0.203  26.303  0.00  0.00    +0.282 A 
ATOM     56  O   UNL     1       4.002  -0.669  26.473  0.00  0.00    -0.265 OA
ATOM     57  N   UNL     1       6.237  -0.708  26.891  0.00  0.00    -0.272 N 
ATOM     58  H   UNL     1       6.123  -1.482  27.528  0.00  0.00    +0.174 HD
ATOM     59  C   UNL     1       7.484  -0.162  26.853  0.00  0.00    +0.351 A 
ATOM     60  O   UNL     1       8.368  -0.687  27.534  0.00  0.00    -0.245 OA
ATOM     61  N   UNL     1       7.729   0.958  26.108  0.00  0.00    -0.173 NA
ATOM     62  C   UNL     1       4.646   2.837  24.237  0.00  0.00    +0.089 A 
ATOM     63  C   UNL     1       3.613   3.455  23.529  0.00  0.00    +0.033 A 
ENDBRANCH  44  51
ENDBRANCH  41  44
ENDBRANCH  38  41
ENDBRANCH  35  38
ENDBRANCH  34  35
ENDBRANCH  33  34
ENDBRANCH   1  33
TORSDOF 20
ENDMDL
MODEL 9
REMARK VINA RESULT:      -6.7      2.431      4.754
REMARK  Name = 
REMARK  22 active torsions:
REMARK  status: ('A' for Active; 'I' for Inactive)
REMARK    1  A    between atoms: C_1  and  C_2
REMARK    2  A    between atoms: C_7  and  C_8
REMARK    3  A    between atoms: N_9  and  C_10
REMARK    4  A    between atoms: C_10  and  C_11
REMARK    5  A    between atoms: C_11  and  O_13
REMARK    6  A    between atoms: C_11  and  C_14
REMARK    7  A    between atoms: C_14  and  O_16
REMARK    8  A    between atoms: C_14  and  C_17
REMARK    9  A    between atoms: C_17  and  O_19
REMARK   10  A    between atoms: C_17  and  C_20
REMARK   11  A    between atoms: C_20  and  O_21
REMARK   12  A    between atoms: O_21  and  P_22
REMARK   13  A    between atoms: P_22  and  O_23
REMARK   14  A    between atoms: P_22  and  O_25
REMARK   15  A    between atoms: O_25  and  P_26
REMARK   16  A    between atoms: P_26  and  O_27
REMARK   17  A    between atoms: P_26  and  O_29
REMARK   18  A    between atoms: O_29  and  C_30
REMARK   19  A    between atoms: C_30  and  C_31
REMARK   20  A    between atoms: C_34  and  N_42
REMARK   21  A    between atoms: C_36  and  O_38
REMARK   22  A    between atoms: C_39  and  O_41
REMARK                            x       y       z     vdW  Elec       q    Type
REMARK                         _______ _______ _______ _____ _____    ______ ____
ROOT
ATOM      1  P   UNL     1       7.491  -5.593  26.537  0.00  0.00    +0.483 P 
ATOM      2  O   UNL     1       7.649  -4.132  26.974  0.00  0.00    -0.227 OA
ENDROOT
BRANCH   1   3
ATOM      3  O   UNL     1       7.571  -6.017  28.212  0.00  0.00    -0.302 OA
ATOM      4  H   UNL     1       7.644  -5.131  28.630  0.00  0.00    +0.222 HD
ENDBRANCH   1   3
BRANCH   1   5
ATOM      5  O   UNL     1       7.412  -5.168  24.862  0.00  0.00    -0.186 OA
BRANCH   5   6
ATOM      6  P   UNL     1       8.692  -4.066  24.485  0.00  0.00    +0.483 P 
ATOM      7  O   UNL     1       8.319  -4.206  23.008  0.00  0.00    -0.227 OA
BRANCH   6   8
ATOM      8  O   UNL     1       9.773  -5.230  24.860  0.00  0.00    -0.302 OA
ATOM      9  H   UNL     1      10.079  -5.736  24.087  0.00  0.00    +0.222 HD
ENDBRANCH   6   8
BRANCH   6  10
ATOM     10  O   UNL     1       9.971  -2.965  24.109  0.00  0.00    -0.284 OA
BRANCH  10  11
ATOM     11  C   UNL     1       9.784  -1.617  24.596  0.00  0.00    +0.206 C 
BRANCH  11  12
ATOM     12  C   UNL     1       9.031  -0.716  23.630  0.00  0.00    +0.178 C 
ATOM     13  C   UNL     1       9.794  -0.355  22.365  0.00  0.00    +0.178 C 
ATOM     14  C   UNL     1       9.301   1.053  22.030  0.00  0.00    +0.195 C 
ATOM     15  C   UNL     1       8.329   1.398  23.168  0.00  0.00    +0.253 C 
ATOM     16  O   UNL     1       8.673   0.529  24.257  0.00  0.00    -0.346 OA
BRANCH  15  17
ATOM     17  N   UNL     1       8.417   2.782  23.587  0.00  0.00    -0.286 N 
ATOM     18  C   UNL     1       9.573   3.514  23.590  0.00  0.00    +0.167 A 
ATOM     19  N   UNL     1      10.803   3.100  23.230  0.00  0.00    -0.216 NA
ATOM     20  C   UNL     1      11.693   4.108  23.360  0.00  0.00    +0.225 A 
ATOM     21  N   UNL     1      11.480   5.369  23.797  0.00  0.00    -0.219 NA
ATOM     22  C   UNL     1      10.222   5.730  24.141  0.00  0.00    +0.147 A 
ATOM     23  N   UNL     1      10.002   7.033  24.549  0.00  0.00    -0.341 N 
ATOM     24  H   UNL     1       9.130   7.205  25.036  0.00  0.00    +0.144 HD
ATOM     25  H   UNL     1      10.833   7.542  24.817  0.00  0.00    +0.144 HD
ATOM     26  C   UNL     1       9.203   4.765  24.052  0.00  0.00    +0.147 A 
ATOM     27  N   UNL     1       7.853   4.797  24.341  0.00  0.00    -0.231 NA
ATOM     28  C   UNL     1       7.412   3.594  24.033  0.00  0.00    +0.203 A 
ENDBRANCH  15  17
BRANCH  14  29
ATOM     29  O   UNL     1       8.695   1.096  20.735  0.00  0.00    -0.385 OA
ATOM     30  H   UNL     1       7.800   1.485  20.858  0.00  0.00    +0.210 HD
ENDBRANCH  14  29
BRANCH  13  31
ATOM     31  O   UNL     1       9.534  -1.293  21.324  0.00  0.00    -0.386 OA
ATOM     32  H   UNL     1       9.503  -2.172  21.756  0.00  0.00    +0.210 HD
ENDBRANCH  13  31
ENDBRANCH  11  12
ENDBRANCH  10  11
ENDBRANCH   6  10
ENDBRANCH   5   6
ENDBRANCH   1   5
BRANCH   1  33
ATOM     33  O   UNL     1       5.773  -5.927  26.650  0.00  0.00    -0.284 OA
BRANCH  33  34
ATOM     34  C   UNL     1       5.286  -6.507  27.916  0.00  0.00    +0.206 C 
BRANCH  34  35
ATOM     35  C   UNL     1       3.923  -6.176  28.657  0.00  0.00    +0.172 C 
BRANCH  35  36
ATOM     36  O   UNL     1       3.893  -4.742  28.851  0.00  0.00    -0.387 OA
ATOM     37  H   UNL     1       4.692  -4.437  29.314  0.00  0.00    +0.210 HD
ENDBRANCH  35  36
BRANCH  35  38
ATOM     38  C   UNL     1       2.596  -6.554  27.881  0.00  0.00    +0.175 C 
BRANCH  38  39
ATOM     39  O   UNL     1       2.246  -7.892  28.244  0.00  0.00    -0.387 OA
ATOM     40  H   UNL     1       1.275  -7.957  28.213  0.00  0.00    +0.210 HD
ENDBRANCH  38  39
BRANCH  38  41
ATOM     41  C   UNL     1       1.317  -5.623  28.105  0.00  0.00    +0.165 C 
BRANCH  41  42
ATOM     42  O   UNL     1       1.427  -4.833  29.293  0.00  0.00    -0.387 OA
ATOM     43  H   UNL     1       1.361  -5.444  30.049  0.00  0.00    +0.210 HD
ENDBRANCH  41  42
BRANCH  41  44
ATOM     44  C   UNL     1       1.076  -4.640  26.880  0.00  0.00    +0.158 C 
BRANCH  44  51
ATOM     45  C   UNL     1       5.450   0.032  27.706  0.00  0.00    +0.044 C 
ATOM     46  C   UNL     1       4.498  -0.928  27.057  0.00  0.00    -0.045 A 
ATOM     47  C   UNL     1       3.188  -1.097  27.533  0.00  0.00    -0.045 A 
ATOM     48  C   UNL     1       2.641  -0.442  28.765  0.00  0.00    +0.044 C 
ATOM     49  C   UNL     1       2.354  -2.035  26.939  0.00  0.00    +0.031 A 
ATOM     50  C   UNL     1       2.898  -3.045  26.168  0.00  0.00    +0.069 A 
ATOM     51  N   UNL     1       2.259  -4.285  26.021  0.00  0.00    -0.320 N 
ATOM     52  C   UNL     1       2.621  -5.029  24.890  0.00  0.00    +0.170 A 
ATOM     53  C   UNL     1       3.879  -4.601  24.131  0.00  0.00    +0.171 A 
ATOM     54  N   UNL     1       4.630  -3.614  24.515  0.00  0.00    -0.237 NA
ATOM     55  C   UNL     1       4.232  -5.355  22.874  0.00  0.00    +0.282 A 
ATOM     56  O   UNL     1       5.149  -5.024  22.132  0.00  0.00    -0.265 OA
ATOM     57  N   UNL     1       3.396  -6.392  22.610  0.00  0.00    -0.272 N 
ATOM     58  H   UNL     1       3.521  -6.887  21.740  0.00  0.00    +0.174 HD
ATOM     59  C   UNL     1       2.282  -6.727  23.318  0.00  0.00    +0.351 A 
ATOM     60  O   UNL     1       1.568  -7.632  22.881  0.00  0.00    -0.245 OA
ATOM     61  N   UNL     1       1.953  -6.048  24.458  0.00  0.00    -0.173 NA
ATOM     62  C   UNL     1       4.155  -2.816  25.572  0.00  0.00    +0.089 A 
ATOM     63  C   UNL     1       4.942  -1.748  26.011  0.00  0.00    +0.033 A 
ENDBRANCH  44  51
ENDBRANCH  41  44
ENDBRANCH  38  41
ENDBRANCH  35  38
ENDBRANCH  34  35
ENDBRANCH  33  34
ENDBRANCH   1  33
TORSDOF 20
ENDMDL
