MODEL 1
REMARK VINA RESULT:      -5.3      0.000      0.000
REMARK  Name = 
REMARK  7 active torsions:
REMARK  status: ('A' for Active; 'I' for Inactive)
REMARK    1  A    between atoms: C_2  and  C_4
REMARK    2  A    between atoms: C_4  and  O_5
REMARK    3  A    between atoms: C_7  and  C_9
REMARK    4  A    between atoms: C_9  and  O_10
REMARK    5  A    between atoms: C_11  and  O_13
REMARK    6  A    between atoms: C_14  and  O_16
REMARK    7  A    between atoms: C_17  and  O_19
REMARK                            x       y       z     vdW  Elec       q    Type
REMARK                         _______ _______ _______ _____ _____    ______ ____
ROOT
ATOM      1  C   UNL     1       9.292  -0.275  23.518  0.00  0.00    +0.276 C 
ATOM      2  C   UNL     1      10.383   0.698  24.038  0.00  0.00    +0.214 C 
ATOM      3  C   UNL     1       9.903   2.161  24.014  0.00  0.00    +0.180 C 
ATOM      4  C   UNL     1       9.331   2.506  22.639  0.00  0.00    +0.177 C 
ATOM      5  C   UNL     1       8.247   1.508  22.206  0.00  0.00    +0.178 C 
ATOM      6  O   UNL     1       8.665   0.142  22.307  0.00  0.00    -0.331 OA
ENDROOT
BRANCH   1  10
ATOM      7  N   UNL     1       9.869  -2.625  24.164  0.00  0.00    -0.325 N 
ATOM      8  H   UNL     1       9.644  -2.355  25.114  0.00  0.00    +0.145 HD
ATOM      9  H   UNL     1      10.432  -3.454  24.025  0.00  0.00    +0.145 HD
ATOM     10  C   UNL     1      10.008  -1.646  23.219  0.00  0.00    +0.273 C 
ATOM     11  O   UNL     1      10.643  -1.883  22.191  0.00  0.00    -0.270 OA
ENDBRANCH   1  10
BRANCH   1  12
ATOM     12  O   UNL     1       8.292  -0.451  24.517  0.00  0.00    -0.356 OA
ATOM     13  H   UNL     1       8.775  -0.470  25.359  0.00  0.00    +0.213 HD
ENDBRANCH   1  12
BRANCH   2  14
ATOM     14  O   UNL     1      10.769   0.368  25.389  0.00  0.00    -0.383 OA
ATOM     15  H   UNL     1      10.865   1.245  25.821  0.00  0.00    +0.210 HD
ENDBRANCH   2  14
BRANCH   3  16
ATOM     16  O   UNL     1       8.947   2.386  25.056  0.00  0.00    -0.386 OA
ATOM     17  H   UNL     1       8.102   2.631  24.637  0.00  0.00    +0.210 HD
ENDBRANCH   3  16
BRANCH   4  18
ATOM     18  O   UNL     1      10.418   2.498  21.705  0.00  0.00    -0.386 OA
ATOM     19  H   UNL     1      11.255   2.476  22.203  0.00  0.00    +0.210 HD
ENDBRANCH   4  18
BRANCH   5  20
ATOM     20  C   UNL     1       6.885   1.725  22.882  0.00  0.00    +0.190 C 
BRANCH  20  21
ATOM     21  O   UNL     1       6.137   0.507  22.845  0.00  0.00    -0.392 OA
ATOM     22  H   UNL     1       5.776   0.377  23.743  0.00  0.00    +0.210 HD
ENDBRANCH  20  21
ENDBRANCH   5  20
TORSDOF 7
ENDMDL
MODEL 2
REMARK VINA RESULT:      -5.3      1.355      2.878
REMARK  Name = 
REMARK  7 active torsions:
REMARK  status: ('A' for Active; 'I' for Inactive)
REMARK    1  A    between atoms: C_2  and  C_4
REMARK    2  A    between atoms: C_4  and  O_5
REMARK    3  A    between atoms: C_7  and  C_9
REMARK    4  A    between atoms: C_9  and  O_10
REMARK    5  A    between atoms: C_11  and  O_13
REMARK    6  A    between atoms: C_14  and  O_16
REMARK    7  A    between atoms: C_17  and  O_19
REMARK                            x       y       z     vdW  Elec       q    Type
REMARK                         _______ _______ _______ _____ _____    ______ ____
ROOT
ATOM      1  C   UNL     1       9.525  -0.270  23.570  0.00  0.00    +0.276 C 
ATOM      2  C   UNL     1       9.014  -0.338  22.107  0.00  0.00    +0.214 C 
ATOM      3  C   UNL     1       8.612   1.051  21.576  0.00  0.00    +0.180 C 
ATOM      4  C   UNL     1       7.665   1.738  22.561  0.00  0.00    +0.177 C 
ATOM      5  C   UNL     1       8.251   1.780  23.980  0.00  0.00    +0.178 C 
ATOM      6  O   UNL     1       8.701   0.502  24.443  0.00  0.00    -0.331 OA
ENDROOT
BRANCH   1  10
ATOM      7  N   UNL     1       8.738  -1.987  25.214  0.00  0.00    -0.325 N 
ATOM      8  H   UNL     1       8.485  -1.210  25.814  0.00  0.00    +0.145 HD
ATOM      9  H   UNL     1       8.839  -2.901  25.637  0.00  0.00    +0.145 HD
ATOM     10  C   UNL     1       9.525  -1.746  24.122  0.00  0.00    +0.273 C 
ATOM     11  O   UNL     1      10.157  -2.672  23.615  0.00  0.00    -0.270 OA
ENDBRANCH   1  10
BRANCH   1  12
ATOM     12  O   UNL     1      10.845   0.264  23.592  0.00  0.00    -0.356 OA
ATOM     13  H   UNL     1      11.348  -0.328  24.176  0.00  0.00    +0.213 HD
ENDBRANCH   1  12
BRANCH   2  14
ATOM     14  O   UNL     1      10.022  -0.885  21.232  0.00  0.00    -0.383 OA
ATOM     15  H   UNL     1      10.764  -0.246  21.309  0.00  0.00    +0.210 HD
ENDBRANCH   2  14
BRANCH   3  16
ATOM     16  O   UNL     1       9.779   1.842  21.325  0.00  0.00    -0.386 OA
ATOM     17  H   UNL     1       9.643   2.713  21.740  0.00  0.00    +0.210 HD
ENDBRANCH   3  16
BRANCH   4  18
ATOM     18  O   UNL     1       6.431   1.010  22.553  0.00  0.00    -0.386 OA
ATOM     19  H   UNL     1       6.276   0.650  23.444  0.00  0.00    +0.210 HD
ENDBRANCH   4  18
BRANCH   5  20
ATOM     20  C   UNL     1       9.326   2.857  24.185  0.00  0.00    +0.190 C 
BRANCH  20  21
ATOM     21  O   UNL     1       9.131   3.911  23.240  0.00  0.00    -0.392 OA
ATOM     22  H   UNL     1       8.773   3.496  22.431  0.00  0.00    +0.210 HD
ENDBRANCH  20  21
ENDBRANCH   5  20
TORSDOF 7
ENDMDL
MODEL 3
REMARK VINA RESULT:      -5.1      3.933      6.090
REMARK  Name = 
REMARK  7 active torsions:
REMARK  status: ('A' for Active; 'I' for Inactive)
REMARK    1  A    between atoms: C_2  and  C_4
REMARK    2  A    between atoms: C_4  and  O_5
REMARK    3  A    between atoms: C_7  and  C_9
REMARK    4  A    between atoms: C_9  and  O_10
REMARK    5  A    between atoms: C_11  and  O_13
REMARK    6  A    between atoms: C_14  and  O_16
REMARK    7  A    between atoms: C_17  and  O_19
REMARK                            x       y       z     vdW  Elec       q    Type
REMARK                         _______ _______ _______ _____ _____    ______ ____
ROOT
ATOM      1  C   UNL     1       8.342  -2.566  25.311  0.00  0.00    +0.276 C 
ATOM      2  C   UNL     1       8.629  -3.304  23.977  0.00  0.00    +0.214 C 
ATOM      3  C   UNL     1       8.360  -4.816  24.091  0.00  0.00    +0.180 C 
ATOM      4  C   UNL     1       9.077  -5.389  25.314  0.00  0.00    +0.177 C 
ATOM      5  C   UNL     1       8.726  -4.615  26.593  0.00  0.00    +0.178 C 
ATOM      6  O   UNL     1       8.897  -3.200  26.462  0.00  0.00    -0.331 OA
ENDROOT
BRANCH   1  10
ATOM      7  N   UNL     1       9.133  -0.435  26.362  0.00  0.00    -0.325 N 
ATOM      8  H   UNL     1       8.515  -0.657  27.134  0.00  0.00    +0.145 HD
ATOM      9  H   UNL     1       9.447   0.522  26.264  0.00  0.00    +0.145 HD
ATOM     10  C   UNL     1       9.012  -1.144  25.199  0.00  0.00    +0.273 C 
ATOM     11  O   UNL     1       9.448  -0.667  24.151  0.00  0.00    -0.270 OA
ENDBRANCH   1  10
BRANCH   1  12
ATOM     12  O   UNL     1       6.935  -2.433  25.492  0.00  0.00    -0.356 OA
ATOM     13  H   UNL     1       6.563  -2.429  24.595  0.00  0.00    +0.213 HD
ENDBRANCH   1  12
BRANCH   2  14
ATOM     14  O   UNL     1       7.815  -2.777  22.908  0.00  0.00    -0.383 OA
ATOM     15  H   UNL     1       7.593  -3.571  22.375  0.00  0.00    +0.210 HD
ENDBRANCH   2  14
BRANCH   3  16
ATOM     16  O   UNL     1       6.950  -5.067  24.138  0.00  0.00    -0.386 OA
ATOM     17  H   UNL     1       6.788  -5.722  24.841  0.00  0.00    +0.210 HD
ENDBRANCH   3  16
BRANCH   4  18
ATOM     18  O   UNL     1      10.485  -5.321  25.060  0.00  0.00    -0.386 OA
ATOM     19  H   UNL     1      10.942  -5.915  25.681  0.00  0.00    +0.210 HD
ENDBRANCH   4  18
BRANCH   5  20
ATOM     20  C   UNL     1       7.348  -4.957  27.179  0.00  0.00    +0.190 C 
BRANCH  20  21
ATOM     21  O   UNL     1       7.437  -6.173  27.926  0.00  0.00    -0.392 OA
ATOM     22  H   UNL     1       8.385  -6.322  28.102  0.00  0.00    +0.210 HD
ENDBRANCH  20  21
ENDBRANCH   5  20
TORSDOF 7
ENDMDL
MODEL 4
REMARK VINA RESULT:      -5.1      3.352      5.593
REMARK  Name = 
REMARK  7 active torsions:
REMARK  status: ('A' for Active; 'I' for Inactive)
REMARK    1  A    between atoms: C_2  and  C_4
REMARK    2  A    between atoms: C_4  and  O_5
REMARK    3  A    between atoms: C_7  and  C_9
REMARK    4  A    between atoms: C_9  and  O_10
REMARK    5  A    between atoms: C_11  and  O_13
REMARK    6  A    between atoms: C_14  and  O_16
REMARK    7  A    between atoms: C_17  and  O_19
REMARK                            x       y       z     vdW  Elec       q    Type
REMARK                         _______ _______ _______ _____ _____    ______ ____
ROOT
ATOM      1  C   UNL     1       9.055  -2.495  24.172  0.00  0.00    +0.276 C 
ATOM      2  C   UNL     1       7.669  -2.752  23.525  0.00  0.00    +0.214 C 
ATOM      3  C   UNL     1       6.940  -3.937  24.185  0.00  0.00    +0.180 C 
ATOM      4  C   UNL     1       7.862  -5.156  24.244  0.00  0.00    +0.177 C 
ATOM      5  C   UNL     1       9.203  -4.824  24.914  0.00  0.00    +0.178 C 
ATOM      6  O   UNL     1       9.842  -3.671  24.356  0.00  0.00    -0.331 OA
ENDROOT
BRANCH   1  10
ATOM      7  N   UNL     1       9.577  -0.218  23.270  0.00  0.00    -0.325 N 
ATOM      8  H   UNL     1       8.688   0.074  23.660  0.00  0.00    +0.145 HD
ATOM      9  H   UNL     1       9.996   0.362  22.555  0.00  0.00    +0.145 HD
ATOM     10  C   UNL     1       9.851  -1.556  23.189  0.00  0.00    +0.273 C 
ATOM     11  O   UNL     1      10.705  -1.951  22.396  0.00  0.00    -0.270 OA
ENDBRANCH   1  10
BRANCH   1  12
ATOM     12  O   UNL     1       8.884  -1.855  25.433  0.00  0.00    -0.356 OA
ATOM     13  H   UNL     1       9.497  -1.102  25.420  0.00  0.00    +0.213 HD
ENDBRANCH   1  12
BRANCH   2  14
ATOM     14  O   UNL     1       6.826  -1.585  23.628  0.00  0.00    -0.383 OA
ATOM     15  H   UNL     1       6.050  -1.907  24.137  0.00  0.00    +0.210 HD
ENDBRANCH   2  14
BRANCH   3  16
ATOM     16  O   UNL     1       6.468  -3.567  25.485  0.00  0.00    -0.386 OA
ATOM     17  H   UNL     1       5.497  -3.500  25.441  0.00  0.00    +0.210 HD
ENDBRANCH   3  16
BRANCH   4  18
ATOM     18  O   UNL     1       8.073  -5.603  22.900  0.00  0.00    -0.386 OA
ATOM     19  H   UNL     1       8.147  -4.824  22.321  0.00  0.00    +0.210 HD
ENDBRANCH   4  18
BRANCH   5  20
ATOM     20  C   UNL     1       9.137  -4.736  26.446  0.00  0.00    +0.190 C 
BRANCH  20  21
ATOM     21  O   UNL     1       8.236  -5.729  26.941  0.00  0.00    -0.392 OA
ATOM     22  H   UNL     1       8.016  -6.306  26.185  0.00  0.00    +0.210 HD
ENDBRANCH  20  21
ENDBRANCH   5  20
TORSDOF 7
ENDMDL
MODEL 5
REMARK VINA RESULT:      -5.1      2.092      4.066
REMARK  Name = 
REMARK  7 active torsions:
REMARK  status: ('A' for Active; 'I' for Inactive)
REMARK    1  A    between atoms: C_2  and  C_4
REMARK    2  A    between atoms: C_4  and  O_5
REMARK    3  A    between atoms: C_7  and  C_9
REMARK    4  A    between atoms: C_9  and  O_10
REMARK    5  A    between atoms: C_11  and  O_13
REMARK    6  A    between atoms: C_14  and  O_16
REMARK    7  A    between atoms: C_17  and  O_19
REMARK                            x       y       z     vdW  Elec       q    Type
REMARK                         _______ _______ _______ _____ _____    ______ ____
ROOT
ATOM      1  C   UNL     1       7.693   1.874  22.823  0.00  0.00    +0.276 C 
ATOM      2  C   UNL     1       8.740   2.896  23.341  0.00  0.00    +0.214 C 
ATOM      3  C   UNL     1      10.181   2.411  23.097  0.00  0.00    +0.180 C 
ATOM      4  C   UNL     1      10.354   0.985  23.622  0.00  0.00    +0.177 C 
ATOM      5  C   UNL     1       9.292   0.035  23.050  0.00  0.00    +0.178 C 
ATOM      6  O   UNL     1       7.956   0.524  23.202  0.00  0.00    -0.331 OA
ENDROOT
BRANCH   1  10
ATOM      7  N   UNL     1       5.576   1.256  24.010  0.00  0.00    -0.325 N 
ATOM      8  H   UNL     1       5.745   0.309  23.692  0.00  0.00    +0.145 HD
ATOM      9  H   UNL     1       4.640   1.499  24.306  0.00  0.00    +0.145 HD
ATOM     10  C   UNL     1       6.311   2.274  23.465  0.00  0.00    +0.273 C 
ATOM     11  O   UNL     1       5.885   3.427  23.526  0.00  0.00    -0.270 OA
ENDBRANCH   1  10
BRANCH   1  12
ATOM     12  O   UNL     1       7.615   1.946  21.403  0.00  0.00    -0.356 OA
ATOM     13  H   UNL     1       6.707   2.234  21.214  0.00  0.00    +0.213 HD
ENDBRANCH   1  12
BRANCH   2  14
ATOM     14  O   UNL     1       8.576   4.176  22.695  0.00  0.00    -0.383 OA
ATOM     15  H   UNL     1       8.471   3.944  21.748  0.00  0.00    +0.210 HD
ENDBRANCH   2  14
BRANCH   3  16
ATOM     16  O   UNL     1      10.507   2.505  21.705  0.00  0.00    -0.386 OA
ATOM     17  H   UNL     1      11.442   2.771  21.636  0.00  0.00    +0.210 HD
ENDBRANCH   3  16
BRANCH   4  18
ATOM     18  O   UNL     1      10.259   1.038  25.051  0.00  0.00    -0.386 OA
ATOM     19  H   UNL     1      10.366   1.962  25.336  0.00  0.00    +0.210 HD
ENDBRANCH   4  18
BRANCH   5  20
ATOM     20  C   UNL     1       9.560  -0.412  21.605  0.00  0.00    +0.190 C 
BRANCH  20  21
ATOM     21  O   UNL     1      10.306  -1.631  21.615  0.00  0.00    -0.392 OA
ATOM     22  H   UNL     1      10.329  -1.935  22.542  0.00  0.00    +0.210 HD
ENDBRANCH  20  21
ENDBRANCH   5  20
TORSDOF 7
ENDMDL
MODEL 6
REMARK VINA RESULT:      -5.0      2.108      3.739
REMARK  Name = 
REMARK  7 active torsions:
REMARK  status: ('A' for Active; 'I' for Inactive)
REMARK    1  A    between atoms: C_2  and  C_4
REMARK    2  A    between atoms: C_4  and  O_5
REMARK    3  A    between atoms: C_7  and  C_9
REMARK    4  A    between atoms: C_9  and  O_10
REMARK    5  A    between atoms: C_11  and  O_13
REMARK    6  A    between atoms: C_14  and  O_16
REMARK    7  A    between atoms: C_17  and  O_19
REMARK                            x       y       z     vdW  Elec       q    Type
REMARK                         _______ _______ _______ _____ _____    ______ ____
ROOT
ATOM      1  C   UNL     1       8.030  -0.845  23.683  0.00  0.00    +0.276 C 
ATOM      2  C   UNL     1       8.159  -1.328  22.214  0.00  0.00    +0.214 C 
ATOM      3  C   UNL     1       9.509  -0.920  21.595  0.00  0.00    +0.180 C 
ATOM      4  C   UNL     1       9.757   0.574  21.808  0.00  0.00    +0.177 C 
ATOM      5  C   UNL     1       9.628   0.967  23.287  0.00  0.00    +0.178 C 
ATOM      6  O   UNL     1       8.410   0.516  23.887  0.00  0.00    -0.331 OA
ENDROOT
BRANCH   1  10
ATOM      7  N   UNL     1       5.959   0.112  24.716  0.00  0.00    -0.325 N 
ATOM      8  H   UNL     1       6.573   0.745  25.215  0.00  0.00    +0.145 HD
ATOM      9  H   UNL     1       5.020  -0.019  25.070  0.00  0.00    +0.145 HD
ATOM     10  C   UNL     1       6.507  -0.961  24.069  0.00  0.00    +0.273 C 
ATOM     11  O   UNL     1       5.798  -1.931  23.798  0.00  0.00    -0.270 OA
ENDBRANCH   1  10
BRANCH   1  12
ATOM     12  O   UNL     1       8.817  -1.674  24.532  0.00  0.00    -0.356 OA
ATOM     13  H   UNL     1       9.175  -1.077  25.209  0.00  0.00    +0.213 HD
ENDBRANCH   1  12
BRANCH   2  14
ATOM     14  O   UNL     1       8.035  -2.763  22.129  0.00  0.00    -0.383 OA
ATOM     15  H   UNL     1       8.485  -2.983  21.285  0.00  0.00    +0.210 HD
ENDBRANCH   2  14
BRANCH   3  16
ATOM     16  O   UNL     1      10.566  -1.716  22.142  0.00  0.00    -0.386 OA
ATOM     17  H   UNL     1      10.947  -2.245  21.417  0.00  0.00    +0.210 HD
ENDBRANCH   3  16
BRANCH   4  18
ATOM     18  O   UNL     1       8.800   1.288  21.017  0.00  0.00    -0.386 OA
ATOM     19  H   UNL     1       8.917   1.035  20.084  0.00  0.00    +0.210 HD
ENDBRANCH   4  18
BRANCH   5  20
ATOM     20  C   UNL     1      10.844   0.591  24.147  0.00  0.00    +0.190 C 
BRANCH  20  21
ATOM     21  O   UNL     1      10.465   0.571  25.525  0.00  0.00    -0.392 OA
ATOM     22  H   UNL     1      10.829  -0.253  25.901  0.00  0.00    +0.210 HD
ENDBRANCH  20  21
ENDBRANCH   5  20
TORSDOF 7
ENDMDL
MODEL 7
REMARK VINA RESULT:      -5.0      1.770      3.406
REMARK  Name = 
REMARK  7 active torsions:
REMARK  status: ('A' for Active; 'I' for Inactive)
REMARK    1  A    between atoms: C_2  and  C_4
REMARK    2  A    between atoms: C_4  and  O_5
REMARK    3  A    between atoms: C_7  and  C_9
REMARK    4  A    between atoms: C_9  and  O_10
REMARK    5  A    between atoms: C_11  and  O_13
REMARK    6  A    between atoms: C_14  and  O_16
REMARK    7  A    between atoms: C_17  and  O_19
REMARK                            x       y       z     vdW  Elec       q    Type
REMARK                         _______ _______ _______ _____ _____    ______ ____
ROOT
ATOM      1  C   UNL     1       9.210  -0.480  24.681  0.00  0.00    +0.276 C 
ATOM      2  C   UNL     1       8.599  -1.403  23.595  0.00  0.00    +0.214 C 
ATOM      3  C   UNL     1       8.599  -0.734  22.208  0.00  0.00    +0.180 C 
ATOM      4  C   UNL     1       7.978   0.661  22.296  0.00  0.00    +0.177 C 
ATOM      5  C   UNL     1       8.649   1.516  23.380  0.00  0.00    +0.178 C 
ATOM      6  O   UNL     1       8.724   0.861  24.651  0.00  0.00    -0.331 OA
ENDROOT
BRANCH   1  10
ATOM      7  N   UNL     1       9.078  -0.321  27.177  0.00  0.00    -0.325 N 
ATOM      8  H   UNL     1       9.802   0.386  27.110  0.00  0.00    +0.145 HD
ATOM      9  H   UNL     1       8.930  -0.767  28.073  0.00  0.00    +0.145 HD
ATOM     10  C   UNL     1       8.804  -1.087  26.078  0.00  0.00    +0.273 C 
ATOM     11  O   UNL     1       8.239  -2.171  26.221  0.00  0.00    -0.270 OA
ENDBRANCH   1  10
BRANCH   1  12
ATOM     12  O   UNL     1      10.628  -0.458  24.549  0.00  0.00    -0.356 OA
ATOM     13  H   UNL     1      10.909  -1.379  24.680  0.00  0.00    +0.213 HD
ENDBRANCH   1  12
BRANCH   2  14
ATOM     14  O   UNL     1       9.329  -2.645  23.501  0.00  0.00    -0.383 OA
ATOM     15  H   UNL     1       9.988  -2.470  22.794  0.00  0.00    +0.210 HD
ENDBRANCH   2  14
BRANCH   3  16
ATOM     16  O   UNL     1       9.930  -0.688  21.681  0.00  0.00    -0.386 OA
ATOM     17  H   UNL     1       9.874  -0.830  20.718  0.00  0.00    +0.210 HD
ENDBRANCH   3  16
BRANCH   4  18
ATOM     18  O   UNL     1       6.585   0.495  22.584  0.00  0.00    -0.386 OA
ATOM     19  H   UNL     1       6.451  -0.386  22.979  0.00  0.00    +0.210 HD
ENDBRANCH   4  18
BRANCH   5  20
ATOM     20  C   UNL     1      10.012   2.095  22.972  0.00  0.00    +0.190 C 
BRANCH  20  21
ATOM     21  O   UNL     1      10.049   2.270  21.554  0.00  0.00    -0.392 OA
ATOM     22  H   UNL     1       9.429   1.617  21.177  0.00  0.00    +0.210 HD
ENDBRANCH  20  21
ENDBRANCH   5  20
TORSDOF 7
ENDMDL
MODEL 8
REMARK VINA RESULT:      -4.9      2.433      4.155
REMARK  Name = 
REMARK  7 active torsions:
REMARK  status: ('A' for Active; 'I' for Inactive)
REMARK    1  A    between atoms: C_2  and  C_4
REMARK    2  A    between atoms: C_4  and  O_5
REMARK    3  A    between atoms: C_7  and  C_9
REMARK    4  A    between atoms: C_9  and  O_10
REMARK    5  A    between atoms: C_11  and  O_13
REMARK    6  A    between atoms: C_14  and  O_16
REMARK    7  A    between atoms: C_17  and  O_19
REMARK                            x       y       z     vdW  Elec       q    Type
REMARK                         _______ _______ _______ _____ _____    ______ ____
ROOT
ATOM      1  C   UNL     1       8.710  -0.313  22.321  0.00  0.00    +0.276 C 
ATOM      2  C   UNL     1       9.537  -0.309  23.633  0.00  0.00    +0.214 C 
ATOM      3  C   UNL     1       9.442  -1.655  24.375  0.00  0.00    +0.180 C 
ATOM      4  C   UNL     1       7.977  -2.065  24.535  0.00  0.00    +0.177 C 
ATOM      5  C   UNL     1       7.234  -2.062  23.191  0.00  0.00    +0.178 C 
ATOM      6  O   UNL     1       7.391  -0.840  22.462  0.00  0.00    -0.331 OA
ENDROOT
BRANCH   1  10
ATOM      7  N   UNL     1       9.714   1.841  21.532  0.00  0.00    -0.325 N 
ATOM      8  H   UNL     1      10.594   1.495  21.898  0.00  0.00    +0.145 HD
ATOM      9  H   UNL     1       9.626   2.835  21.366  0.00  0.00    +0.145 HD
ATOM     10  C   UNL     1       8.560   1.189  21.870  0.00  0.00    +0.273 C 
ATOM     11  O   UNL     1       7.484   1.779  21.780  0.00  0.00    -0.270 OA
ENDBRANCH   1  10
BRANCH   1  12
ATOM     12  O   UNL     1       9.399  -1.060  21.322  0.00  0.00    -0.356 OA
ATOM     13  H   UNL     1      10.214  -0.561  21.150  0.00  0.00    +0.213 HD
ENDBRANCH   1  12
BRANCH   2  14
ATOM     14  O   UNL     1      10.929  -0.035  23.366  0.00  0.00    -0.383 OA
ATOM     15  H   UNL     1      11.176  -0.723  22.710  0.00  0.00    +0.210 HD
ENDBRANCH   2  14
BRANCH   3  16
ATOM     16  O   UNL     1      10.199  -2.656  23.685  0.00  0.00    -0.386 OA
ATOM     17  H   UNL     1      11.085  -2.290  23.510  0.00  0.00    +0.210 HD
ENDBRANCH   3  16
BRANCH   4  18
ATOM     18  O   UNL     1       7.367  -1.142  25.444  0.00  0.00    -0.386 OA
ATOM     19  H   UNL     1       6.608  -1.579  25.869  0.00  0.00    +0.210 HD
ENDBRANCH   4  18
BRANCH   5  20
ATOM     20  C   UNL     1       7.531  -3.281  22.305  0.00  0.00    +0.190 C 
BRANCH  20  21
ATOM     21  O   UNL     1       7.781  -4.421  23.130  0.00  0.00    -0.392 OA
ATOM     22  H   UNL     1       7.524  -5.204  22.607  0.00  0.00    +0.210 HD
ENDBRANCH  20  21
ENDBRANCH   5  20
TORSDOF 7
ENDMDL
MODEL 9
REMARK VINA RESULT:      -4.9      2.347      4.056
REMARK  Name = 
REMARK  7 active torsions:
REMARK  status: ('A' for Active; 'I' for Inactive)
REMARK    1  A    between atoms: C_2  and  C_4
REMARK    2  A    between atoms: C_4  and  O_5
REMARK    3  A    between atoms: C_7  and  C_9
REMARK    4  A    between atoms: C_9  and  O_10
REMARK    5  A    between atoms: C_11  and  O_13
REMARK    6  A    between atoms: C_14  and  O_16
REMARK    7  A    between atoms: C_17  and  O_19
REMARK                            x       y       z     vdW  Elec       q    Type
REMARK                         _______ _______ _______ _____ _____    ______ ____
ROOT
ATOM      1  C   UNL     1       8.328   1.975  23.067  0.00  0.00    +0.276 C 
ATOM      2  C   UNL     1       9.863   1.855  22.879  0.00  0.00    +0.214 C 
ATOM      3  C   UNL     1      10.345   0.400  23.024  0.00  0.00    +0.180 C 
ATOM      4  C   UNL     1       9.802  -0.209  24.317  0.00  0.00    +0.177 C 
ATOM      5  C   UNL     1       8.277  -0.066  24.418  0.00  0.00    +0.178 C 
ATOM      6  O   UNL     1       7.820   1.274  24.201  0.00  0.00    -0.331 OA
ENDROOT
BRANCH   1  10
ATOM      7  N   UNL     1       7.883   4.268  22.164  0.00  0.00    -0.325 N 
ATOM      8  H   UNL     1       8.316   3.949  21.306  0.00  0.00    +0.145 HD
ATOM      9  H   UNL     1       7.806   5.266  22.317  0.00  0.00    +0.145 HD
ATOM     10  C   UNL     1       8.013   3.503  23.290  0.00  0.00    +0.273 C 
ATOM     11  O   UNL     1       7.853   4.020  24.396  0.00  0.00    -0.270 OA
ENDBRANCH   1  10
BRANCH   1  12
ATOM     12  O   UNL     1       7.664   1.503  21.898  0.00  0.00    -0.356 OA
ATOM     13  H   UNL     1       7.695   0.534  21.964  0.00  0.00    +0.213 HD
ENDBRANCH   1  12
BRANCH   2  14
ATOM     14  O   UNL     1      10.265   2.340  21.581  0.00  0.00    -0.383 OA
ATOM     15  H   UNL     1      11.146   1.930  21.445  0.00  0.00    +0.210 HD
ENDBRANCH   2  14
BRANCH   3  16
ATOM     16  O   UNL     1       9.961  -0.366  21.877  0.00  0.00    -0.386 OA
ATOM     17  H   UNL     1      10.680  -0.995  21.684  0.00  0.00    +0.210 HD
ENDBRANCH   3  16
BRANCH   4  18
ATOM     18  O   UNL     1      10.439   0.462  25.411  0.00  0.00    -0.386 OA
ATOM     19  H   UNL     1      11.323   0.075  25.541  0.00  0.00    +0.210 HD
ENDBRANCH   4  18
BRANCH   5  20
ATOM     20  C   UNL     1       7.492  -1.067  23.557  0.00  0.00    +0.190 C 
BRANCH  20  21
ATOM     21  O   UNL     1       6.140  -0.623  23.424  0.00  0.00    -0.392 OA
ATOM     22  H   UNL     1       6.179   0.335  23.237  0.00  0.00    +0.210 HD
ENDBRANCH  20  21
ENDBRANCH   5  20
TORSDOF 7
ENDMDL
