MODEL 1
REMARK VINA RESULT:      -7.0      0.000      0.000
REMARK  Name = 
REMARK  6 active torsions:
REMARK  status: ('A' for Active; 'I' for Inactive)
REMARK    1  A    between atoms: C_1  and  N_2
REMARK    2  A    between atoms: C_6  and  S_7
REMARK    3  A    between atoms: S_7  and  C_8
REMARK    4  A    between atoms: C_11  and  N_12
REMARK    5  A    between atoms: C_13  and  C_15
REMARK    6  A    between atoms: C_20  and  C_21
REMARK                            x       y       z     vdW  Elec       q    Type
REMARK                         _______ _______ _______ _____ _____    ______ ____
ROOT
ATOM      1  C   UNL     1       8.061  -3.538  24.073  0.00  0.00    +0.016 A 
ATOM      2  C   UNL     1       6.874  -4.231  24.337  0.00  0.00    +0.030 A 
ATOM      3  C   UNL     1       6.744  -5.177  25.377  0.00  0.00    +0.059 A 
ATOM      4  C   UNL     1       7.823  -5.353  26.269  0.00  0.00    +0.037 A 
ATOM      5  C   UNL     1       8.990  -4.608  26.061  0.00  0.00    +0.024 A 
ATOM      6  C   UNL     1       9.124  -3.751  24.957  0.00  0.00    +0.017 A 
ENDROOT
BRANCH   3   7
ATOM      7  C   UNL     1       5.521  -6.071  25.470  0.00  0.00    +0.251 C 
ATOM      8  N   UNL     1       4.621  -6.009  24.426  0.00  0.00    -0.261 N 
ATOM      9  H   UNL     1       4.687  -5.340  23.678  0.00  0.00    +0.157 HD
ATOM     10  C   UNL     1       3.543  -6.842  24.318  0.00  0.00    +0.165 A 
ATOM     11  S   UNL     1       2.481  -6.396  23.055  0.00  0.00    -0.060 S 
ATOM     12  C   UNL     1       1.450  -7.691  23.493  0.00  0.00    +0.071 A 
ATOM     13  C   UNL     1       2.017  -8.416  24.526  0.00  0.00    +0.047 A 
ATOM     14  C   UNL     1       1.460  -9.647  25.142  0.00  0.00    +0.066 C 
ATOM     15  N   UNL     1       3.213  -7.904  25.005  0.00  0.00    -0.230 NA
ATOM     16  O   UNL     1       5.413  -6.813  26.445  0.00  0.00    -0.270 OA
ENDBRANCH   3   7
BRANCH   4  17
ATOM     17  N   UNL     1       7.684  -6.046  27.486  0.00  0.00    -0.357 N 
ATOM     18  H   UNL     1       6.966  -5.615  28.085  0.00  0.00    +0.142 HD
ATOM     19  H   UNL     1       7.565  -7.047  27.408  0.00  0.00    +0.142 HD
ENDBRANCH   4  17
BRANCH   1  20
ATOM     20  S   UNL     1       8.315  -2.370  22.725  0.00  0.00    -0.050 S 
BRANCH  20  23
ATOM     21  C   UNL     1       7.287   0.029  24.716  0.00  0.00    +0.152 C 
ATOM     22  N   UNL     1       8.620  -0.063  24.188  0.00  0.00    -0.311 N 
ATOM     23  C   UNL     1       9.178  -1.012  23.367  0.00  0.00    +0.196 A 
ATOM     24  N   UNL     1      10.432  -0.673  23.159  0.00  0.00    -0.122 NA
ATOM     25  N   UNL     1      10.705   0.495  23.815  0.00  0.00    -0.137 NA
ATOM     26  C   UNL     1       9.611   0.844  24.443  0.00  0.00    +0.225 A 
ENDBRANCH  20  23
ENDBRANCH   1  20
TORSDOF 4
ENDMDL
MODEL 2
REMARK VINA RESULT:      -6.8      3.634      5.828
REMARK  Name = 
REMARK  6 active torsions:
REMARK  status: ('A' for Active; 'I' for Inactive)
REMARK    1  A    between atoms: C_1  and  N_2
REMARK    2  A    between atoms: C_6  and  S_7
REMARK    3  A    between atoms: S_7  and  C_8
REMARK    4  A    between atoms: C_11  and  N_12
REMARK    5  A    between atoms: C_13  and  C_15
REMARK    6  A    between atoms: C_20  and  C_21
REMARK                            x       y       z     vdW  Elec       q    Type
REMARK                         _______ _______ _______ _____ _____    ______ ____
ROOT
ATOM      1  C   UNL     1       8.601   1.812  23.949  0.00  0.00    +0.016 A 
ATOM      2  C   UNL     1       8.215   0.481  24.141  0.00  0.00    +0.030 A 
ATOM      3  C   UNL     1       8.476  -0.543  23.205  0.00  0.00    +0.059 A 
ATOM      4  C   UNL     1       9.264  -0.242  22.074  0.00  0.00    +0.037 A 
ATOM      5  C   UNL     1       9.723   1.071  21.911  0.00  0.00    +0.024 A 
ATOM      6  C   UNL     1       9.359   2.090  22.807  0.00  0.00    +0.017 A 
ENDROOT
BRANCH   3   7
ATOM      7  C   UNL     1       7.831  -1.911  23.344  0.00  0.00    +0.251 C 
ATOM      8  N   UNL     1       7.796  -2.459  24.609  0.00  0.00    -0.261 N 
ATOM      9  H   UNL     1       8.260  -2.050  25.402  0.00  0.00    +0.157 HD
ATOM     10  C   UNL     1       7.142  -3.623  24.903  0.00  0.00    +0.165 A 
ATOM     11  S   UNL     1       7.453  -4.180  26.489  0.00  0.00    -0.060 S 
ATOM     12  C   UNL     1       6.471  -5.548  26.178  0.00  0.00    +0.071 A 
ATOM     13  C   UNL     1       5.917  -5.453  24.913  0.00  0.00    +0.047 A 
ATOM     14  C   UNL     1       4.962  -6.410  24.300  0.00  0.00    +0.066 C 
ATOM     15  N   UNL     1       6.329  -4.350  24.182  0.00  0.00    -0.230 NA
ATOM     16  O   UNL     1       7.355  -2.437  22.340  0.00  0.00    -0.270 OA
ENDBRANCH   3   7
BRANCH   4  17
ATOM     17  N   UNL     1       9.812  -1.244  21.252  0.00  0.00    -0.357 N 
ATOM     18  H   UNL     1      10.836  -1.161  21.189  0.00  0.00    +0.142 HD
ATOM     19  H   UNL     1       9.518  -2.189  21.461  0.00  0.00    +0.142 HD
ENDBRANCH   4  17
BRANCH   1  20
ATOM     20  S   UNL     1       8.243   3.178  25.069  0.00  0.00    -0.050 S 
BRANCH  20  23
ATOM     21  C   UNL     1       6.443   4.898  22.929  0.00  0.00    +0.152 C 
ATOM     22  N   UNL     1       7.768   5.265  23.343  0.00  0.00    -0.311 N 
ATOM     23  C   UNL     1       8.616   4.649  24.232  0.00  0.00    +0.196 A 
ATOM     24  N   UNL     1       9.721   5.359  24.288  0.00  0.00    -0.122 NA
ATOM     25  N   UNL     1       9.625   6.423  23.435  0.00  0.00    -0.137 NA
ATOM     26  C   UNL     1       8.440   6.365  22.884  0.00  0.00    +0.225 A 
ENDBRANCH  20  23
ENDBRANCH   1  20
TORSDOF 4
ENDMDL
MODEL 3
REMARK VINA RESULT:      -6.7      4.661      8.456
REMARK  Name = 
REMARK  6 active torsions:
REMARK  status: ('A' for Active; 'I' for Inactive)
REMARK    1  A    between atoms: C_1  and  N_2
REMARK    2  A    between atoms: C_6  and  S_7
REMARK    3  A    between atoms: S_7  and  C_8
REMARK    4  A    between atoms: C_11  and  N_12
REMARK    5  A    between atoms: C_13  and  C_15
REMARK    6  A    between atoms: C_20  and  C_21
REMARK                            x       y       z     vdW  Elec       q    Type
REMARK                         _______ _______ _______ _____ _____    ______ ____
ROOT
ATOM      1  C   UNL     1       7.760  -1.660  22.713  0.00  0.00    +0.016 A 
ATOM      2  C   UNL     1       7.124  -0.423  22.869  0.00  0.00    +0.030 A 
ATOM      3  C   UNL     1       7.748   0.810  22.582  0.00  0.00    +0.059 A 
ATOM      4  C   UNL     1       9.033   0.798  21.999  0.00  0.00    +0.037 A 
ATOM      5  C   UNL     1       9.649  -0.437  21.765  0.00  0.00    +0.024 A 
ATOM      6  C   UNL     1       9.044  -1.642  22.158  0.00  0.00    +0.017 A 
ENDROOT
BRANCH   3   7
ATOM      7  C   UNL     1       7.108   2.124  22.994  0.00  0.00    +0.251 C 
ATOM      8  N   UNL     1       5.788   2.313  22.640  0.00  0.00    -0.261 N 
ATOM      9  H   UNL     1       5.278   1.680  22.048  0.00  0.00    +0.157 HD
ATOM     10  C   UNL     1       5.051   3.390  23.048  0.00  0.00    +0.165 A 
ATOM     11  S   UNL     1       3.526   3.482  22.281  0.00  0.00    -0.060 S 
ATOM     12  C   UNL     1       3.211   4.936  23.129  0.00  0.00    +0.071 A 
ATOM     13  C   UNL     1       4.258   5.215  23.990  0.00  0.00    +0.047 A 
ATOM     14  C   UNL     1       4.332   6.354  24.939  0.00  0.00    +0.066 C 
ATOM     15  N   UNL     1       5.321   4.328  23.917  0.00  0.00    -0.230 NA
ATOM     16  O   UNL     1       7.782   2.927  23.636  0.00  0.00    -0.270 OA
ENDBRANCH   3   7
BRANCH   4  17
ATOM     17  N   UNL     1       9.605   1.946  21.420  0.00  0.00    -0.357 N 
ATOM     18  H   UNL     1       9.016   2.317  20.659  0.00  0.00    +0.142 HD
ATOM     19  H   UNL     1       9.889   2.668  22.068  0.00  0.00    +0.142 HD
ENDBRANCH   4  17
BRANCH   1  20
ATOM     20  S   UNL     1       7.047  -3.263  23.123  0.00  0.00    -0.050 S 
BRANCH  20  23
ATOM     21  C   UNL     1       7.531  -2.623  26.306  0.00  0.00    +0.152 C 
ATOM     22  N   UNL     1       8.223  -3.650  25.578  0.00  0.00    -0.311 N 
ATOM     23  C   UNL     1       8.104  -4.028  24.261  0.00  0.00    +0.196 A 
ATOM     24  N   UNL     1       8.941  -5.021  24.054  0.00  0.00    -0.122 NA
ATOM     25  N   UNL     1       9.624  -5.292  25.208  0.00  0.00    -0.137 NA
ATOM     26  C   UNL     1       9.172  -4.471  26.121  0.00  0.00    +0.225 A 
ENDBRANCH  20  23
ENDBRANCH   1  20
TORSDOF 4
ENDMDL
MODEL 4
REMARK VINA RESULT:      -6.5      3.635      9.254
REMARK  Name = 
REMARK  6 active torsions:
REMARK  status: ('A' for Active; 'I' for Inactive)
REMARK    1  A    between atoms: C_1  and  N_2
REMARK    2  A    between atoms: C_6  and  S_7
REMARK    3  A    between atoms: S_7  and  C_8
REMARK    4  A    between atoms: C_11  and  N_12
REMARK    5  A    between atoms: C_13  and  C_15
REMARK    6  A    between atoms: C_20  and  C_21
REMARK                            x       y       z     vdW  Elec       q    Type
REMARK                         _______ _______ _______ _____ _____    ______ ____
ROOT
ATOM      1  C   UNL     1       7.913  -2.155  23.705  0.00  0.00    +0.016 A 
ATOM      2  C   UNL     1       8.252  -0.800  23.790  0.00  0.00    +0.030 A 
ATOM      3  C   UNL     1       8.529  -0.146  25.010  0.00  0.00    +0.059 A 
ATOM      4  C   UNL     1       8.582  -0.914  26.193  0.00  0.00    +0.037 A 
ATOM      5  C   UNL     1       8.321  -2.287  26.109  0.00  0.00    +0.024 A 
ATOM      6  C   UNL     1       7.948  -2.889  24.896  0.00  0.00    +0.017 A 
ENDROOT
BRANCH   3   7
ATOM      7  C   UNL     1       8.653   1.366  25.074  0.00  0.00    +0.251 C 
ATOM      8  N   UNL     1       9.650   1.944  24.316  0.00  0.00    -0.261 N 
ATOM      9  H   UNL     1      10.344   1.412  23.818  0.00  0.00    +0.157 HD
ATOM     10  C   UNL     1       9.801   3.296  24.182  0.00  0.00    +0.165 A 
ATOM     11  S   UNL     1      11.244   3.729  23.375  0.00  0.00    -0.060 S 
ATOM     12  C   UNL     1      10.845   5.380  23.594  0.00  0.00    +0.071 A 
ATOM     13  C   UNL     1       9.609   5.489  24.204  0.00  0.00    +0.047 A 
ATOM     14  C   UNL     1       8.890   6.752  24.508  0.00  0.00    +0.066 C 
ATOM     15  N   UNL     1       9.028   4.281  24.557  0.00  0.00    -0.230 NA
ATOM     16  O   UNL     1       7.852   1.989  25.768  0.00  0.00    -0.270 OA
ENDBRANCH   3   7
BRANCH   4  17
ATOM     17  N   UNL     1       9.127  -0.412  27.389  0.00  0.00    -0.357 N 
ATOM     18  H   UNL     1       8.394  -0.230  28.089  0.00  0.00    +0.142 HD
ATOM     19  H   UNL     1       9.899  -0.941  27.773  0.00  0.00    +0.142 HD
ENDBRANCH   4  17
BRANCH   1  20
ATOM     20  S   UNL     1       7.484  -3.035  22.192  0.00  0.00    -0.050 S 
BRANCH  20  23
ATOM     21  C   UNL     1       7.019  -6.276  21.946  0.00  0.00    +0.152 C 
ATOM     22  N   UNL     1       6.006  -5.347  22.364  0.00  0.00    -0.311 N 
ATOM     23  C   UNL     1       6.073  -3.983  22.523  0.00  0.00    +0.196 A 
ATOM     24  N   UNL     1       4.892  -3.570  22.929  0.00  0.00    -0.122 NA
ATOM     25  N   UNL     1       4.041  -4.637  23.023  0.00  0.00    -0.137 NA
ATOM     26  C   UNL     1       4.727  -5.702  22.695  0.00  0.00    +0.225 A 
ENDBRANCH  20  23
ENDBRANCH   1  20
TORSDOF 4
ENDMDL
MODEL 5
REMARK VINA RESULT:      -6.4      3.661      9.600
REMARK  Name = 
REMARK  6 active torsions:
REMARK  status: ('A' for Active; 'I' for Inactive)
REMARK    1  A    between atoms: C_1  and  N_2
REMARK    2  A    between atoms: C_6  and  S_7
REMARK    3  A    between atoms: S_7  and  C_8
REMARK    4  A    between atoms: C_11  and  N_12
REMARK    5  A    between atoms: C_13  and  C_15
REMARK    6  A    between atoms: C_20  and  C_21
REMARK                            x       y       z     vdW  Elec       q    Type
REMARK                         _______ _______ _______ _____ _____    ______ ____
ROOT
ATOM      1  C   UNL     1       7.557  -1.730  24.839  0.00  0.00    +0.016 A 
ATOM      2  C   UNL     1       8.107  -0.462  24.614  0.00  0.00    +0.030 A 
ATOM      3  C   UNL     1       8.875  -0.142  23.474  0.00  0.00    +0.059 A 
ATOM      4  C   UNL     1       9.003  -1.107  22.452  0.00  0.00    +0.037 A 
ATOM      5  C   UNL     1       8.391  -2.353  22.630  0.00  0.00    +0.024 A 
ATOM      6  C   UNL     1       7.721  -2.676  23.821  0.00  0.00    +0.017 A 
ENDROOT
BRANCH   3   7
ATOM      7  C   UNL     1       9.646   1.164  23.393  0.00  0.00    +0.251 C 
ATOM      8  N   UNL     1       8.918   2.328  23.534  0.00  0.00    -0.261 N 
ATOM      9  H   UNL     1       7.914   2.350  23.582  0.00  0.00    +0.157 HD
ATOM     10  C   UNL     1       9.494   3.566  23.604  0.00  0.00    +0.165 A 
ATOM     11  S   UNL     1       8.350   4.835  23.550  0.00  0.00    -0.060 S 
ATOM     12  C   UNL     1       9.635   5.966  23.614  0.00  0.00    +0.071 A 
ATOM     13  C   UNL     1      10.842   5.301  23.742  0.00  0.00    +0.047 A 
ATOM     14  C   UNL     1      12.178   5.931  23.891  0.00  0.00    +0.066 C 
ATOM     15  N   UNL     1      10.748   3.918  23.714  0.00  0.00    -0.230 NA
ATOM     16  O   UNL     1      10.864   1.115  23.236  0.00  0.00    -0.270 OA
ENDBRANCH   3   7
BRANCH   4  17
ATOM     17  N   UNL     1       9.495  -0.784  21.173  0.00  0.00    -0.357 N 
ATOM     18  H   UNL     1       8.836  -0.183  20.657  0.00  0.00    +0.142 HD
ATOM     19  H   UNL     1      10.440  -0.426  21.147  0.00  0.00    +0.142 HD
ENDBRANCH   4  17
BRANCH   1  20
ATOM     20  S   UNL     1       6.625  -2.224  26.300  0.00  0.00    -0.050 S 
BRANCH  20  23
ATOM     21  C   UNL     1       7.785  -5.248  26.832  0.00  0.00    +0.152 C 
ATOM     22  N   UNL     1       6.513  -4.970  26.227  0.00  0.00    -0.311 N 
ATOM     23  C   UNL     1       5.908  -3.764  25.964  0.00  0.00    +0.196 A 
ATOM     24  N   UNL     1       4.744  -4.015  25.406  0.00  0.00    -0.122 NA
ATOM     25  N   UNL     1       4.579  -5.366  25.279  0.00  0.00    -0.137 NA
ATOM     26  C   UNL     1       5.643  -5.930  25.791  0.00  0.00    +0.225 A 
ENDBRANCH  20  23
ENDBRANCH   1  20
TORSDOF 4
ENDMDL
MODEL 6
REMARK VINA RESULT:      -6.3      3.676      5.384
REMARK  Name = 
REMARK  6 active torsions:
REMARK  status: ('A' for Active; 'I' for Inactive)
REMARK    1  A    between atoms: C_1  and  N_2
REMARK    2  A    between atoms: C_6  and  S_7
REMARK    3  A    between atoms: S_7  and  C_8
REMARK    4  A    between atoms: C_11  and  N_12
REMARK    5  A    between atoms: C_13  and  C_15
REMARK    6  A    between atoms: C_20  and  C_21
REMARK                            x       y       z     vdW  Elec       q    Type
REMARK                         _______ _______ _______ _____ _____    ______ ____
ROOT
ATOM      1  C   UNL     1       7.613   1.726  22.327  0.00  0.00    +0.016 A 
ATOM      2  C   UNL     1       7.165   0.678  23.139  0.00  0.00    +0.030 A 
ATOM      3  C   UNL     1       7.747  -0.608  23.136  0.00  0.00    +0.059 A 
ATOM      4  C   UNL     1       8.911  -0.822  22.365  0.00  0.00    +0.037 A 
ATOM      5  C   UNL     1       9.415   0.243  21.609  0.00  0.00    +0.024 A 
ATOM      6  C   UNL     1       8.753   1.480  21.554  0.00  0.00    +0.017 A 
ENDROOT
BRANCH   3   7
ATOM      7  C   UNL     1       7.079  -1.770  23.848  0.00  0.00    +0.251 C 
ATOM      8  N   UNL     1       6.648  -2.819  23.062  0.00  0.00    -0.261 N 
ATOM      9  H   UNL     1       6.664  -2.800  22.057  0.00  0.00    +0.157 HD
ATOM     10  C   UNL     1       6.142  -3.980  23.577  0.00  0.00    +0.165 A 
ATOM     11  S   UNL     1       5.483  -5.007  22.379  0.00  0.00    -0.060 S 
ATOM     12  C   UNL     1       5.033  -6.113  23.607  0.00  0.00    +0.071 A 
ATOM     13  C   UNL     1       5.476  -5.659  24.836  0.00  0.00    +0.047 A 
ATOM     14  C   UNL     1       5.336  -6.366  26.134  0.00  0.00    +0.066 C 
ATOM     15  N   UNL     1       6.095  -4.419  24.807  0.00  0.00    -0.230 NA
ATOM     16  O   UNL     1       6.983  -1.728  25.073  0.00  0.00    -0.270 OA
ENDBRANCH   3   7
BRANCH   4  17
ATOM     17  N   UNL     1       9.716  -1.965  22.524  0.00  0.00    -0.357 N 
ATOM     18  H   UNL     1       9.145  -2.821  22.588  0.00  0.00    +0.142 HD
ATOM     19  H   UNL     1      10.474  -2.061  21.861  0.00  0.00    +0.142 HD
ENDBRANCH   4  17
BRANCH   1  20
ATOM     20  S   UNL     1       6.876   3.368  22.233  0.00  0.00    -0.050 S 
BRANCH  20  23
ATOM     21  C   UNL     1       7.133   6.619  21.863  0.00  0.00    +0.152 C 
ATOM     22  N   UNL     1       8.000   5.833  22.696  0.00  0.00    -0.311 N 
ATOM     23  C   UNL     1       7.992   4.482  22.948  0.00  0.00    +0.196 A 
ATOM     24  N   UNL     1       8.977   4.226  23.781  0.00  0.00    -0.122 NA
ATOM     25  N   UNL     1       9.647   5.383  24.067  0.00  0.00    -0.137 NA
ATOM     26  C   UNL     1       9.041   6.345  23.420  0.00  0.00    +0.225 A 
ENDBRANCH  20  23
ENDBRANCH   1  20
TORSDOF 4
ENDMDL
MODEL 7
REMARK VINA RESULT:      -6.3      3.340      5.683
REMARK  Name = 
REMARK  6 active torsions:
REMARK  status: ('A' for Active; 'I' for Inactive)
REMARK    1  A    between atoms: C_1  and  N_2
REMARK    2  A    between atoms: C_6  and  S_7
REMARK    3  A    between atoms: S_7  and  C_8
REMARK    4  A    between atoms: C_11  and  N_12
REMARK    5  A    between atoms: C_13  and  C_15
REMARK    6  A    between atoms: C_20  and  C_21
REMARK                            x       y       z     vdW  Elec       q    Type
REMARK                         _______ _______ _______ _____ _____    ______ ____
ROOT
ATOM      1  C   UNL     1       7.486   1.730  22.563  0.00  0.00    +0.016 A 
ATOM      2  C   UNL     1       7.169   0.428  22.967  0.00  0.00    +0.030 A 
ATOM      3  C   UNL     1       7.943  -0.700  22.621  0.00  0.00    +0.059 A 
ATOM      4  C   UNL     1       9.160  -0.500  21.933  0.00  0.00    +0.037 A 
ATOM      5  C   UNL     1       9.527   0.807  21.592  0.00  0.00    +0.024 A 
ATOM      6  C   UNL     1       8.684   1.898  21.860  0.00  0.00    +0.017 A 
ENDROOT
BRANCH   3   7
ATOM      7  C   UNL     1       7.432  -2.106  22.876  0.00  0.00    +0.251 C 
ATOM      8  N   UNL     1       7.276  -2.485  24.193  0.00  0.00    -0.261 N 
ATOM      9  H   UNL     1       7.577  -1.921  24.970  0.00  0.00    +0.157 HD
ATOM     10  C   UNL     1       6.711  -3.672  24.569  0.00  0.00    +0.165 A 
ATOM     11  S   UNL     1       6.851  -3.974  26.246  0.00  0.00    -0.060 S 
ATOM     12  C   UNL     1       6.071  -5.482  26.017  0.00  0.00    +0.071 A 
ATOM     13  C   UNL     1       5.696  -5.622  24.692  0.00  0.00    +0.047 A 
ATOM     14  C   UNL     1       4.943  -6.761  24.110  0.00  0.00    +0.066 C 
ATOM     15  N   UNL     1       6.090  -4.581  23.865  0.00  0.00    -0.230 NA
ATOM     16  O   UNL     1       7.161  -2.814  21.908  0.00  0.00    -0.270 OA
ENDBRANCH   3   7
BRANCH   4  17
ATOM     17  N   UNL     1      10.124  -1.517  21.804  0.00  0.00    -0.357 N 
ATOM     18  H   UNL     1       9.908  -2.143  21.016  0.00  0.00    +0.142 HD
ATOM     19  H   UNL     1      11.087  -1.207  21.793  0.00  0.00    +0.142 HD
ENDBRANCH   4  17
BRANCH   1  20
ATOM     20  S   UNL     1       6.507   3.203  22.912  0.00  0.00    -0.050 S 
BRANCH  20  23
ATOM     21  C   UNL     1       6.974   2.653  26.114  0.00  0.00    +0.152 C 
ATOM     22  N   UNL     1       5.697   2.571  25.462  0.00  0.00    -0.311 N 
ATOM     23  C   UNL     1       5.365   2.789  24.146  0.00  0.00    +0.196 A 
ATOM     24  N   UNL     1       4.069   2.599  24.025  0.00  0.00    -0.122 NA
ATOM     25  N   UNL     1       3.544   2.239  25.235  0.00  0.00    -0.137 NA
ATOM     26  C   UNL     1       4.531   2.241  26.095  0.00  0.00    +0.225 A 
ENDBRANCH  20  23
ENDBRANCH   1  20
TORSDOF 4
ENDMDL
MODEL 8
REMARK VINA RESULT:      -6.3      4.138      9.067
REMARK  Name = 
REMARK  6 active torsions:
REMARK  status: ('A' for Active; 'I' for Inactive)
REMARK    1  A    between atoms: C_1  and  N_2
REMARK    2  A    between atoms: C_6  and  S_7
REMARK    3  A    between atoms: S_7  and  C_8
REMARK    4  A    between atoms: C_11  and  N_12
REMARK    5  A    between atoms: C_13  and  C_15
REMARK    6  A    between atoms: C_20  and  C_21
REMARK                            x       y       z     vdW  Elec       q    Type
REMARK                         _______ _______ _______ _____ _____    ______ ____
ROOT
ATOM      1  C   UNL     1       8.792  -1.509  23.438  0.00  0.00    +0.016 A 
ATOM      2  C   UNL     1       8.432  -0.285  24.012  0.00  0.00    +0.030 A 
ATOM      3  C   UNL     1       8.837   0.964  23.492  0.00  0.00    +0.059 A 
ATOM      4  C   UNL     1       9.542   0.991  22.270  0.00  0.00    +0.037 A 
ATOM      5  C   UNL     1       9.840  -0.226  21.644  0.00  0.00    +0.024 A 
ATOM      6  C   UNL     1       9.513  -1.455  22.240  0.00  0.00    +0.017 A 
ENDROOT
BRANCH   3   7
ATOM      7  C   UNL     1       8.627   2.244  24.281  0.00  0.00    +0.251 C 
ATOM      8  N   UNL     1       7.393   2.416  24.874  0.00  0.00    -0.261 N 
ATOM      9  H   UNL     1       6.616   1.795  24.723  0.00  0.00    +0.157 HD
ATOM     10  C   UNL     1       7.104   3.457  25.711  0.00  0.00    +0.165 A 
ATOM     11  S   UNL     1       5.446   3.544  26.118  0.00  0.00    -0.060 S 
ATOM     12  C   UNL     1       5.767   4.954  27.035  0.00  0.00    +0.071 A 
ATOM     13  C   UNL     1       7.124   5.223  27.026  0.00  0.00    +0.047 A 
ATOM     14  C   UNL     1       7.804   6.324  27.754  0.00  0.00    +0.066 C 
ATOM     15  N   UNL     1       7.880   4.365  26.242  0.00  0.00    -0.230 NA
ATOM     16  O   UNL     1       9.563   3.036  24.371  0.00  0.00    -0.270 OA
ENDBRANCH   3   7
BRANCH   4  17
ATOM     17  N   UNL     1       9.730   2.178  21.538  0.00  0.00    -0.357 N 
ATOM     18  H   UNL     1      10.389   2.040  20.758  0.00  0.00    +0.142 HD
ATOM     19  H   UNL     1       8.885   2.649  21.245  0.00  0.00    +0.142 HD
ENDBRANCH   4  17
BRANCH   1  20
ATOM     20  S   UNL     1       8.366  -3.136  24.086  0.00  0.00    -0.050 S 
BRANCH  20  23
ATOM     21  C   UNL     1       6.132  -5.336  25.059  0.00  0.00    +0.152 C 
ATOM     22  N   UNL     1       6.040  -4.580  23.841  0.00  0.00    -0.311 N 
ATOM     23  C   UNL     1       6.888  -3.628  23.328  0.00  0.00    +0.196 A 
ATOM     24  N   UNL     1       6.381  -3.213  22.188  0.00  0.00    -0.122 NA
ATOM     25  N   UNL     1       5.221  -3.890  21.930  0.00  0.00    -0.137 NA
ATOM     26  C   UNL     1       5.018  -4.699  22.939  0.00  0.00    +0.225 A 
ENDBRANCH  20  23
ENDBRANCH   1  20
TORSDOF 4
ENDMDL
MODEL 9
REMARK VINA RESULT:      -6.2      2.162      2.475
REMARK  Name = 
REMARK  6 active torsions:
REMARK  status: ('A' for Active; 'I' for Inactive)
REMARK    1  A    between atoms: C_1  and  N_2
REMARK    2  A    between atoms: C_6  and  S_7
REMARK    3  A    between atoms: S_7  and  C_8
REMARK    4  A    between atoms: C_11  and  N_12
REMARK    5  A    between atoms: C_13  and  C_15
REMARK    6  A    between atoms: C_20  and  C_21
REMARK                            x       y       z     vdW  Elec       q    Type
REMARK                         _______ _______ _______ _____ _____    ______ ____
ROOT
ATOM      1  C   UNL     1       8.659  -2.576  23.343  0.00  0.00    +0.016 A 
ATOM      2  C   UNL     1       7.357  -3.081  23.243  0.00  0.00    +0.030 A 
ATOM      3  C   UNL     1       6.898  -4.193  23.981  0.00  0.00    +0.059 A 
ATOM      4  C   UNL     1       7.752  -4.758  24.953  0.00  0.00    +0.037 A 
ATOM      5  C   UNL     1       9.030  -4.211  25.117  0.00  0.00    +0.024 A 
ATOM      6  C   UNL     1       9.493  -3.171  24.296  0.00  0.00    +0.017 A 
ENDROOT
BRANCH   3   7
ATOM      7  C   UNL     1       5.566  -4.847  23.662  0.00  0.00    +0.251 C 
ATOM      8  N   UNL     1       4.440  -4.271  24.214  0.00  0.00    -0.261 N 
ATOM      9  H   UNL     1       4.475  -3.521  24.884  0.00  0.00    +0.157 HD
ATOM     10  C   UNL     1       3.169  -4.676  23.917  0.00  0.00    +0.165 A 
ATOM     11  S   UNL     1       1.987  -3.944  24.910  0.00  0.00    -0.060 S 
ATOM     12  C   UNL     1       0.779  -4.856  24.108  0.00  0.00    +0.071 A 
ATOM     13  C   UNL     1       1.350  -5.604  23.094  0.00  0.00    +0.047 A 
ATOM     14  C   UNL     1       0.627  -6.477  22.135  0.00  0.00    +0.066 C 
ATOM     15  N   UNL     1       2.730  -5.508  23.008  0.00  0.00    -0.230 NA
ATOM     16  O   UNL     1       5.557  -5.824  22.917  0.00  0.00    -0.270 OA
ENDBRANCH   3   7
BRANCH   4  17
ATOM     17  N   UNL     1       7.287  -5.666  25.923  0.00  0.00    -0.357 N 
ATOM     18  H   UNL     1       6.268  -5.801  25.854  0.00  0.00    +0.142 HD
ATOM     19  H   UNL     1       7.786  -6.544  25.974  0.00  0.00    +0.142 HD
ENDBRANCH   4  17
BRANCH   1  20
ATOM     20  S   UNL     1       9.327  -1.205  22.384  0.00  0.00    -0.050 S 
BRANCH  20  23
ATOM     21  C   UNL     1      10.750   0.496  24.805  0.00  0.00    +0.152 C 
ATOM     22  N   UNL     1       9.513   0.871  24.176  0.00  0.00    -0.311 N 
ATOM     23  C   UNL     1       8.825   0.263  23.154  0.00  0.00    +0.196 A 
ATOM     24  N   UNL     1       7.748   0.979  22.917  0.00  0.00    -0.122 NA
ATOM     25  N   UNL     1       7.703   2.039  23.780  0.00  0.00    -0.137 NA
ATOM     26  C   UNL     1       8.779   1.972  24.522  0.00  0.00    +0.225 A 
ENDBRANCH  20  23
ENDBRANCH   1  20
TORSDOF 4
ENDMDL
