MODEL 1
REMARK VINA RESULT:      -6.9      0.000      0.000
REMARK  Name = 
REMARK  5 active torsions:
REMARK  status: ('A' for Active; 'I' for Inactive)
REMARK    1  A    between atoms: O_1  and  C_2
REMARK    2  A    between atoms: C_2  and  C_4
REMARK    3  A    between atoms: N_6  and  C_7
REMARK    4  A    between atoms: C_16  and  C_17
REMARK    5  A    between atoms: C_17  and  O_18
REMARK                            x       y       z     vdW  Elec       q    Type
REMARK                         _______ _______ _______ _____ _____    ______ ____
ROOT
ATOM      1  C   UNL     1       8.508  -2.937  22.764  0.00  0.00    +0.048 A 
ATOM      2  C   UNL     1       9.061  -2.955  24.061  0.00  0.00    +0.081 A 
ATOM      3  C   UNL     1       9.675  -1.796  24.580  0.00  0.00    +0.025 A 
ATOM      4  C   UNL     1       9.768  -0.620  23.813  0.00  0.00    -0.017 A 
ATOM      5  C   UNL     1      10.361   0.559  24.298  0.00  0.00    +0.008 A 
ATOM      6  C   UNL     1      10.474   1.690  23.484  0.00  0.00    +0.001 A 
ATOM      7  C   UNL     1       9.997   1.664  22.177  0.00  0.00    +0.001 A 
ATOM      8  C   UNL     1       9.392   0.511  21.688  0.00  0.00    +0.008 A 
ATOM      9  C   UNL     1       9.267  -0.627  22.498  0.00  0.00    -0.016 A 
ATOM     10  C   UNL     1       8.653  -1.775  21.997  0.00  0.00    +0.032 A 
ENDROOT
BRANCH   1  12
ATOM     11  C   UNL     1       6.471  -4.122  21.979  0.00  0.00    +0.325 C 
ATOM     12  N   UNL     1       7.830  -4.060  22.225  0.00  0.00    -0.275 N 
ATOM     13  H   UNL     1       8.373  -4.916  22.062  0.00  0.00    +0.155 HD
ATOM     14  O   UNL     1       5.596  -3.293  22.224  0.00  0.00    -0.263 OA
BRANCH  11  15
ATOM     15  C   UNL     1       5.971  -5.415  21.331  0.00  0.00    +0.393 C 
ATOM     16  O   UNL     1       5.955  -5.601  20.134  0.00  0.00    -0.240 OA
BRANCH  15  17
ATOM     17  O   UNL     1       5.570  -6.284  22.284  0.00  0.00    -0.474 OA
ATOM     18  H   UNL     1       5.319  -5.768  23.087  0.00  0.00    +0.296 HD
ENDBRANCH  15  17
ENDBRANCH  11  15
ENDBRANCH   1  12
BRANCH   2  19
ATOM     19  C   UNL     1       9.049  -4.209  24.857  0.00  0.00    +0.339 C 
ATOM     20  O   UNL     1       8.057  -4.584  25.461  0.00  0.00    -0.245 OA
BRANCH  19  21
ATOM     21  O   UNL     1      10.220  -4.879  24.891  0.00  0.00    -0.477 OA
ATOM     22  H   UNL     1      10.449  -5.304  25.736  0.00  0.00    +0.295 HD
ENDBRANCH  19  21
ENDBRANCH   2  19
TORSDOF 5
ENDMDL
MODEL 2
REMARK VINA RESULT:      -6.8      1.573      3.710
REMARK  Name = 
REMARK  5 active torsions:
REMARK  status: ('A' for Active; 'I' for Inactive)
REMARK    1  A    between atoms: O_1  and  C_2
REMARK    2  A    between atoms: C_2  and  C_4
REMARK    3  A    between atoms: N_6  and  C_7
REMARK    4  A    between atoms: C_16  and  C_17
REMARK    5  A    between atoms: C_17  and  O_18
REMARK                            x       y       z     vdW  Elec       q    Type
REMARK                         _______ _______ _______ _____ _____    ______ ____
ROOT
ATOM      1  C   UNL     1       8.792  -2.617  24.283  0.00  0.00    +0.048 A 
ATOM      2  C   UNL     1       8.280  -2.662  22.971  0.00  0.00    +0.081 A 
ATOM      3  C   UNL     1       8.499  -1.580  22.093  0.00  0.00    +0.025 A 
ATOM      4  C   UNL     1       9.206  -0.438  22.512  0.00  0.00    -0.017 A 
ATOM      5  C   UNL     1       9.456   0.656  21.664  0.00  0.00    +0.008 A 
ATOM      6  C   UNL     1      10.122   1.790  22.138  0.00  0.00    +0.001 A 
ATOM      7  C   UNL     1      10.549   1.851  23.461  0.00  0.00    +0.001 A 
ATOM      8  C   UNL     1      10.324   0.772  24.307  0.00  0.00    +0.008 A 
ATOM      9  C   UNL     1       9.664  -0.375  23.841  0.00  0.00    -0.016 A 
ATOM     10  C   UNL     1       9.450  -1.454  24.700  0.00  0.00    +0.032 A 
ENDROOT
BRANCH   1  12
ATOM     11  C   UNL     1       7.749  -3.752  26.232  0.00  0.00    +0.325 C 
ATOM     12  N   UNL     1       8.646  -3.706  25.180  0.00  0.00    -0.275 N 
ATOM     13  H   UNL     1       9.295  -4.497  25.085  0.00  0.00    +0.155 HD
ATOM     14  O   UNL     1       6.979  -2.883  26.636  0.00  0.00    -0.263 OA
BRANCH  11  15
ATOM     15  C   UNL     1       7.723  -5.059  27.026  0.00  0.00    +0.393 C 
ATOM     16  O   UNL     1       7.030  -5.234  28.005  0.00  0.00    -0.240 OA
BRANCH  15  17
ATOM     17  O   UNL     1       8.568  -5.954  26.471  0.00  0.00    -0.474 OA
ATOM     18  H   UNL     1       8.380  -6.841  26.861  0.00  0.00    +0.296 HD
ENDBRANCH  15  17
ENDBRANCH  11  15
ENDBRANCH   1  12
BRANCH   2  19
ATOM     19  C   UNL     1       7.459  -3.820  22.532  0.00  0.00    +0.339 C 
ATOM     20  O   UNL     1       7.731  -4.965  22.853  0.00  0.00    -0.245 OA
BRANCH  19  21
ATOM     21  O   UNL     1       6.419  -3.515  21.728  0.00  0.00    -0.477 OA
ATOM     22  H   UNL     1       5.758  -2.901  22.093  0.00  0.00    +0.295 HD
ENDBRANCH  19  21
ENDBRANCH   2  19
TORSDOF 5
ENDMDL
MODEL 3
REMARK VINA RESULT:      -6.4      0.817      1.302
REMARK  Name = 
REMARK  5 active torsions:
REMARK  status: ('A' for Active; 'I' for Inactive)
REMARK    1  A    between atoms: O_1  and  C_2
REMARK    2  A    between atoms: C_2  and  C_4
REMARK    3  A    between atoms: N_6  and  C_7
REMARK    4  A    between atoms: C_16  and  C_17
REMARK    5  A    between atoms: C_17  and  O_18
REMARK                            x       y       z     vdW  Elec       q    Type
REMARK                         _______ _______ _______ _____ _____    ______ ____
ROOT
ATOM      1  C   UNL     1       8.162  -2.739  23.151  0.00  0.00    +0.048 A 
ATOM      2  C   UNL     1       8.347  -2.450  24.518  0.00  0.00    +0.081 A 
ATOM      3  C   UNL     1       8.864  -1.197  24.909  0.00  0.00    +0.025 A 
ATOM      4  C   UNL     1       9.222  -0.231  23.950  0.00  0.00    -0.017 A 
ATOM      5  C   UNL     1       9.729   1.034  24.298  0.00  0.00    +0.008 A 
ATOM      6  C   UNL     1      10.117   1.945  23.311  0.00  0.00    +0.001 A 
ATOM      7  C   UNL     1      10.003   1.612  21.966  0.00  0.00    +0.001 A 
ATOM      8  C   UNL     1       9.488   0.372  21.605  0.00  0.00    +0.008 A 
ATOM      9  C   UNL     1       9.090  -0.547  22.586  0.00  0.00    -0.016 A 
ATOM     10  C   UNL     1       8.568  -1.786  22.210  0.00  0.00    +0.032 A 
ENDROOT
BRANCH   1  12
ATOM     11  C   UNL     1       6.357  -4.089  22.105  0.00  0.00    +0.325 C 
ATOM     12  N   UNL     1       7.591  -3.962  22.717  0.00  0.00    -0.275 N 
ATOM     13  H   UNL     1       8.098  -4.831  22.926  0.00  0.00    +0.155 HD
ATOM     14  O   UNL     1       5.507  -3.228  21.881  0.00  0.00    -0.263 OA
BRANCH  11  15
ATOM     15  C   UNL     1       5.976  -5.503  21.662  0.00  0.00    +0.393 C 
ATOM     16  O   UNL     1       5.726  -6.402  22.435  0.00  0.00    -0.240 OA
BRANCH  15  17
ATOM     17  O   UNL     1       5.961  -5.576  20.313  0.00  0.00    -0.474 OA
ATOM     18  H   UNL     1       6.807  -5.990  20.016  0.00  0.00    +0.296 HD
ENDBRANCH  15  17
ENDBRANCH  11  15
ENDBRANCH   1  12
BRANCH   2  19
ATOM     19  C   UNL     1       8.055  -3.485  25.544  0.00  0.00    +0.339 C 
ATOM     20  O   UNL     1       8.928  -3.961  26.250  0.00  0.00    -0.245 OA
BRANCH  19  21
ATOM     21  O   UNL     1       6.767  -3.883  25.607  0.00  0.00    -0.477 OA
ATOM     22  H   UNL     1       6.595  -4.709  26.094  0.00  0.00    +0.295 HD
ENDBRANCH  19  21
ENDBRANCH   2  19
TORSDOF 5
ENDMDL
MODEL 4
REMARK VINA RESULT:      -6.4      1.859      2.441
REMARK  Name = 
REMARK  5 active torsions:
REMARK  status: ('A' for Active; 'I' for Inactive)
REMARK    1  A    between atoms: O_1  and  C_2
REMARK    2  A    between atoms: C_2  and  C_4
REMARK    3  A    between atoms: N_6  and  C_7
REMARK    4  A    between atoms: C_16  and  C_17
REMARK    5  A    between atoms: C_17  and  O_18
REMARK                            x       y       z     vdW  Elec       q    Type
REMARK                         _______ _______ _______ _____ _____    ______ ____
ROOT
ATOM      1  C   UNL     1       7.462  -4.217  24.090  0.00  0.00    +0.048 A 
ATOM      2  C   UNL     1       8.028  -3.863  25.331  0.00  0.00    +0.081 A 
ATOM      3  C   UNL     1       8.864  -2.731  25.426  0.00  0.00    +0.025 A 
ATOM      4  C   UNL     1       9.165  -1.955  24.291  0.00  0.00    -0.017 A 
ATOM      5  C   UNL     1       9.984  -0.814  24.346  0.00  0.00    +0.008 A 
ATOM      6  C   UNL     1      10.295  -0.100  23.184  0.00  0.00    +0.001 A 
ATOM      7  C   UNL     1       9.794  -0.513  21.953  0.00  0.00    +0.001 A 
ATOM      8  C   UNL     1       8.970  -1.630  21.884  0.00  0.00    +0.008 A 
ATOM      9  C   UNL     1       8.645  -2.348  23.044  0.00  0.00    -0.016 A 
ATOM     10  C   UNL     1       7.811  -3.464  22.962  0.00  0.00    +0.032 A 
ENDROOT
BRANCH   1  12
ATOM     11  C   UNL     1       5.201  -5.244  24.141  0.00  0.00    +0.325 C 
ATOM     12  N   UNL     1       6.570  -5.312  23.960  0.00  0.00    -0.275 N 
ATOM     13  H   UNL     1       6.971  -6.240  23.780  0.00  0.00    +0.155 HD
ATOM     14  O   UNL     1       4.509  -4.294  24.501  0.00  0.00    -0.263 OA
BRANCH  11  15
ATOM     15  C   UNL     1       4.431  -6.542  23.882  0.00  0.00    +0.393 C 
ATOM     16  O   UNL     1       4.400  -7.468  24.663  0.00  0.00    -0.240 OA
BRANCH  15  17
ATOM     17  O   UNL     1       3.812  -6.480  22.684  0.00  0.00    -0.474 OA
ATOM     18  H   UNL     1       4.232  -5.760  22.155  0.00  0.00    +0.296 HD
ENDBRANCH  15  17
ENDBRANCH  11  15
ENDBRANCH   1  12
BRANCH   2  19
ATOM     19  C   UNL     1       7.792  -4.715  26.526  0.00  0.00    +0.339 C 
ATOM     20  O   UNL     1       7.116  -4.335  27.468  0.00  0.00    -0.245 OA
BRANCH  19  21
ATOM     21  O   UNL     1       8.408  -5.915  26.506  0.00  0.00    -0.477 OA
ATOM     22  H   UNL     1       7.905  -6.663  26.874  0.00  0.00    +0.295 HD
ENDBRANCH  19  21
ENDBRANCH   2  19
TORSDOF 5
ENDMDL
MODEL 5
REMARK VINA RESULT:      -6.2      3.180      6.378
REMARK  Name = 
REMARK  5 active torsions:
REMARK  status: ('A' for Active; 'I' for Inactive)
REMARK    1  A    between atoms: O_1  and  C_2
REMARK    2  A    between atoms: C_2  and  C_4
REMARK    3  A    between atoms: N_6  and  C_7
REMARK    4  A    between atoms: C_16  and  C_17
REMARK    5  A    between atoms: C_17  and  O_18
REMARK                            x       y       z     vdW  Elec       q    Type
REMARK                         _______ _______ _______ _____ _____    ______ ____
ROOT
ATOM      1  C   UNL     1       7.197  -3.738  24.147  0.00  0.00    +0.048 A 
ATOM      2  C   UNL     1       6.416  -4.630  23.387  0.00  0.00    +0.081 A 
ATOM      3  C   UNL     1       5.640  -5.614  24.034  0.00  0.00    +0.025 A 
ATOM      4  C   UNL     1       5.648  -5.736  25.436  0.00  0.00    -0.017 A 
ATOM      5  C   UNL     1       4.880  -6.696  26.120  0.00  0.00    +0.008 A 
ATOM      6  C   UNL     1       4.956  -6.813  27.511  0.00  0.00    +0.001 A 
ATOM      7  C   UNL     1       5.796  -5.976  28.240  0.00  0.00    +0.001 A 
ATOM      8  C   UNL     1       6.549  -5.012  27.581  0.00  0.00    +0.008 A 
ATOM      9  C   UNL     1       6.475  -4.881  26.186  0.00  0.00    -0.016 A 
ATOM     10  C   UNL     1       7.232  -3.904  25.537  0.00  0.00    +0.032 A 
ENDROOT
BRANCH   1  12
ATOM     11  C   UNL     1       9.327  -2.620  23.523  0.00  0.00    +0.325 C 
ATOM     12  N   UNL     1       7.946  -2.697  23.542  0.00  0.00    -0.275 N 
ATOM     13  H   UNL     1       7.430  -1.905  23.140  0.00  0.00    +0.155 HD
ATOM     14  O   UNL     1      10.154  -3.357  24.056  0.00  0.00    -0.263 OA
BRANCH  11  15
ATOM     15  C   UNL     1       9.917  -1.438  22.751  0.00  0.00    +0.393 C 
ATOM     16  O   UNL     1      10.322  -0.427  23.283  0.00  0.00    -0.240 OA
BRANCH  15  17
ATOM     17  O   UNL     1       9.915  -1.704  21.427  0.00  0.00    -0.474 OA
ATOM     18  H   UNL     1      10.546  -2.444  21.259  0.00  0.00    +0.296 HD
ENDBRANCH  15  17
ENDBRANCH  11  15
ENDBRANCH   1  12
BRANCH   2  19
ATOM     19  C   UNL     1       6.456  -4.574  21.902  0.00  0.00    +0.339 C 
ATOM     20  O   UNL     1       5.896  -3.693  21.272  0.00  0.00    -0.245 OA
BRANCH  19  21
ATOM     21  O   UNL     1       7.123  -5.586  21.307  0.00  0.00    -0.477 OA
ATOM     22  H   UNL     1       8.071  -5.659  21.518  0.00  0.00    +0.295 HD
ENDBRANCH  19  21
ENDBRANCH   2  19
TORSDOF 5
ENDMDL
MODEL 6
REMARK VINA RESULT:      -6.2      1.285      1.446
REMARK  Name = 
REMARK  5 active torsions:
REMARK  status: ('A' for Active; 'I' for Inactive)
REMARK    1  A    between atoms: O_1  and  C_2
REMARK    2  A    between atoms: C_2  and  C_4
REMARK    3  A    between atoms: N_6  and  C_7
REMARK    4  A    between atoms: C_16  and  C_17
REMARK    5  A    between atoms: C_17  and  O_18
REMARK                            x       y       z     vdW  Elec       q    Type
REMARK                         _______ _______ _______ _____ _____    ______ ____
ROOT
ATOM      1  C   UNL     1       7.379  -3.020  23.589  0.00  0.00    +0.048 A 
ATOM      2  C   UNL     1       8.614  -3.304  24.205  0.00  0.00    +0.081 A 
ATOM      3  C   UNL     1       9.651  -2.349  24.176  0.00  0.00    +0.025 A 
ATOM      4  C   UNL     1       9.482  -1.116  23.520  0.00  0.00    -0.017 A 
ATOM      5  C   UNL     1      10.487  -0.133  23.478  0.00  0.00    +0.008 A 
ATOM      6  C   UNL     1      10.292   1.059  22.773  0.00  0.00    +0.001 A 
ATOM      7  C   UNL     1       9.096   1.289  22.101  0.00  0.00    +0.001 A 
ATOM      8  C   UNL     1       8.087   0.334  22.146  0.00  0.00    +0.008 A 
ATOM      9  C   UNL     1       8.268  -0.862  22.856  0.00  0.00    -0.016 A 
ATOM     10  C   UNL     1       7.244  -1.809  22.898  0.00  0.00    +0.032 A 
ENDROOT
BRANCH   1  12
ATOM     11  C   UNL     1       5.692  -4.515  22.545  0.00  0.00    +0.325 C 
ATOM     12  N   UNL     1       6.290  -3.926  23.644  0.00  0.00    -0.275 N 
ATOM     13  H   UNL     1       5.868  -4.116  24.562  0.00  0.00    +0.155 HD
ATOM     14  O   UNL     1       5.915  -4.337  21.349  0.00  0.00    -0.263 OA
BRANCH  11  15
ATOM     15  C   UNL     1       4.574  -5.514  22.852  0.00  0.00    +0.393 C 
ATOM     16  O   UNL     1       3.396  -5.227  22.835  0.00  0.00    -0.240 OA
BRANCH  15  17
ATOM     17  O   UNL     1       5.101  -6.726  23.129  0.00  0.00    -0.474 OA
ATOM     18  H   UNL     1       4.719  -7.382  22.498  0.00  0.00    +0.296 HD
ENDBRANCH  15  17
ENDBRANCH  11  15
ENDBRANCH   1  12
BRANCH   2  19
ATOM     19  C   UNL     1       8.844  -4.632  24.832  0.00  0.00    +0.339 C 
ATOM     20  O   UNL     1       7.969  -5.218  25.448  0.00  0.00    -0.245 OA
BRANCH  19  21
ATOM     21  O   UNL     1      10.095  -5.119  24.701  0.00  0.00    -0.477 OA
ATOM     22  H   UNL     1      10.813  -4.563  25.052  0.00  0.00    +0.295 HD
ENDBRANCH  19  21
ENDBRANCH   2  19
TORSDOF 5
ENDMDL
MODEL 7
REMARK VINA RESULT:      -6.1      2.135      3.689
REMARK  Name = 
REMARK  5 active torsions:
REMARK  status: ('A' for Active; 'I' for Inactive)
REMARK    1  A    between atoms: O_1  and  C_2
REMARK    2  A    between atoms: C_2  and  C_4
REMARK    3  A    between atoms: N_6  and  C_7
REMARK    4  A    between atoms: C_16  and  C_17
REMARK    5  A    between atoms: C_17  and  O_18
REMARK                            x       y       z     vdW  Elec       q    Type
REMARK                         _______ _______ _______ _____ _____    ______ ____
ROOT
ATOM      1  C   UNL     1       7.129  -3.458  24.291  0.00  0.00    +0.048 A 
ATOM      2  C   UNL     1       7.433  -3.456  22.915  0.00  0.00    +0.081 A 
ATOM      3  C   UNL     1       8.388  -2.551  22.407  0.00  0.00    +0.025 A 
ATOM      4  C   UNL     1       9.032  -1.628  23.251  0.00  0.00    -0.017 A 
ATOM      5  C   UNL     1       9.998  -0.718  22.786  0.00  0.00    +0.008 A 
ATOM      6  C   UNL     1      10.577   0.215  23.652  0.00  0.00    +0.001 A 
ATOM      7  C   UNL     1      10.205   0.253  24.992  0.00  0.00    +0.001 A 
ATOM      8  C   UNL     1       9.264  -0.650  25.471  0.00  0.00    +0.008 A 
ATOM      9  C   UNL     1       8.681  -1.595  24.613  0.00  0.00    -0.016 A 
ATOM     10  C   UNL     1       7.742  -2.501  25.108  0.00  0.00    +0.032 A 
ENDROOT
BRANCH   1  12
ATOM     11  C   UNL     1       6.564  -5.406  25.727  0.00  0.00    +0.325 C 
ATOM     12  N   UNL     1       6.220  -4.389  24.854  0.00  0.00    -0.275 N 
ATOM     13  H   UNL     1       5.240  -4.351  24.547  0.00  0.00    +0.155 HD
ATOM     14  O   UNL     1       7.676  -5.747  26.125  0.00  0.00    -0.263 OA
BRANCH  11  15
ATOM     15  C   UNL     1       5.402  -6.248  26.258  0.00  0.00    +0.393 C 
ATOM     16  O   UNL     1       4.329  -6.337  25.700  0.00  0.00    -0.240 OA
BRANCH  15  17
ATOM     17  O   UNL     1       5.761  -6.857  27.409  0.00  0.00    -0.474 OA
ATOM     18  H   UNL     1       5.152  -6.551  28.124  0.00  0.00    +0.296 HD
ENDBRANCH  15  17
ENDBRANCH  11  15
ENDBRANCH   1  12
BRANCH   2  19
ATOM     19  C   UNL     1       6.706  -4.365  21.991  0.00  0.00    +0.339 C 
ATOM     20  O   UNL     1       5.817  -3.966  21.257  0.00  0.00    -0.245 OA
BRANCH  19  21
ATOM     21  O   UNL     1       7.074  -5.662  22.053  0.00  0.00    -0.477 OA
ATOM     22  H   UNL     1       6.388  -6.315  21.830  0.00  0.00    +0.295 HD
ENDBRANCH  19  21
ENDBRANCH   2  19
TORSDOF 5
ENDMDL
MODEL 8
REMARK VINA RESULT:      -6.0      2.975      5.848
REMARK  Name = 
REMARK  5 active torsions:
REMARK  status: ('A' for Active; 'I' for Inactive)
REMARK    1  A    between atoms: O_1  and  C_2
REMARK    2  A    between atoms: C_2  and  C_4
REMARK    3  A    between atoms: N_6  and  C_7
REMARK    4  A    between atoms: C_16  and  C_17
REMARK    5  A    between atoms: C_17  and  O_18
REMARK                            x       y       z     vdW  Elec       q    Type
REMARK                         _______ _______ _______ _____ _____    ______ ____
ROOT
ATOM      1  C   UNL     1       7.499  -4.119  23.874  0.00  0.00    +0.048 A 
ATOM      2  C   UNL     1       7.789  -4.830  25.055  0.00  0.00    +0.081 A 
ATOM      3  C   UNL     1       6.766  -5.535  25.723  0.00  0.00    +0.025 A 
ATOM      4  C   UNL     1       5.445  -5.523  25.239  0.00  0.00    -0.017 A 
ATOM      5  C   UNL     1       4.398  -6.222  25.867  0.00  0.00    +0.008 A 
ATOM      6  C   UNL     1       3.091  -6.142  25.379  0.00  0.00    +0.001 A 
ATOM      7  C   UNL     1       2.807  -5.369  24.257  0.00  0.00    +0.001 A 
ATOM      8  C   UNL     1       3.833  -4.685  23.615  0.00  0.00    +0.008 A 
ATOM      9  C   UNL     1       5.149  -4.763  24.092  0.00  0.00    -0.016 A 
ATOM     10  C   UNL     1       6.171  -4.077  23.434  0.00  0.00    +0.032 A 
ENDROOT
BRANCH   1  12
ATOM     11  C   UNL     1       8.525  -2.088  22.877  0.00  0.00    +0.325 C 
ATOM     12  N   UNL     1       8.508  -3.446  23.140  0.00  0.00    -0.275 N 
ATOM     13  H   UNL     1       9.253  -4.012  22.715  0.00  0.00    +0.155 HD
ATOM     14  O   UNL     1       7.684  -1.232  23.146  0.00  0.00    -0.263 OA
BRANCH  11  15
ATOM     15  C   UNL     1       9.752  -1.572  22.121  0.00  0.00    +0.393 C 
ATOM     16  O   UNL     1      10.892  -1.847  22.427  0.00  0.00    -0.240 OA
BRANCH  15  17
ATOM     17  O   UNL     1       9.364  -0.792  21.089  0.00  0.00    -0.474 OA
ATOM     18  H   UNL     1       9.456   0.152  21.363  0.00  0.00    +0.296 HD
ENDBRANCH  15  17
ENDBRANCH  11  15
ENDBRANCH   1  12
BRANCH   2  19
ATOM     19  C   UNL     1       9.159  -4.788  25.631  0.00  0.00    +0.339 C 
ATOM     20  O   UNL     1      10.157  -4.835  24.931  0.00  0.00    -0.245 OA
BRANCH  19  21
ATOM     21  O   UNL     1       9.214  -4.734  26.978  0.00  0.00    -0.477 OA
ATOM     22  H   UNL     1       8.585  -4.130  27.411  0.00  0.00    +0.295 HD
ENDBRANCH  19  21
ENDBRANCH   2  19
TORSDOF 5
ENDMDL
MODEL 9
REMARK VINA RESULT:      -6.0      1.752      2.097
REMARK  Name = 
REMARK  5 active torsions:
REMARK  status: ('A' for Active; 'I' for Inactive)
REMARK    1  A    between atoms: O_1  and  C_2
REMARK    2  A    between atoms: C_2  and  C_4
REMARK    3  A    between atoms: N_6  and  C_7
REMARK    4  A    between atoms: C_16  and  C_17
REMARK    5  A    between atoms: C_17  and  O_18
REMARK                            x       y       z     vdW  Elec       q    Type
REMARK                         _______ _______ _______ _____ _____    ______ ____
ROOT
ATOM      1  C   UNL     1       7.645  -2.227  22.915  0.00  0.00    +0.048 A 
ATOM      2  C   UNL     1       6.905  -1.600  23.937  0.00  0.00    +0.081 A 
ATOM      3  C   UNL     1       7.105  -0.232  24.213  0.00  0.00    +0.025 A 
ATOM      4  C   UNL     1       8.054   0.520  23.496  0.00  0.00    -0.017 A 
ATOM      5  C   UNL     1       8.275   1.889  23.732  0.00  0.00    +0.008 A 
ATOM      6  C   UNL     1       9.262   2.585  23.029  0.00  0.00    +0.001 A 
ATOM      7  C   UNL     1      10.041   1.931  22.081  0.00  0.00    +0.001 A 
ATOM      8  C   UNL     1       9.824   0.582  21.823  0.00  0.00    +0.008 A 
ATOM      9  C   UNL     1       8.832  -0.125  22.518  0.00  0.00    -0.016 A 
ATOM     10  C   UNL     1       8.620  -1.478  22.245  0.00  0.00    +0.032 A 
ENDROOT
BRANCH   1  12
ATOM     11  C   UNL     1       6.435  -4.042  21.725  0.00  0.00    +0.325 C 
ATOM     12  N   UNL     1       7.435  -3.585  22.565  0.00  0.00    -0.275 N 
ATOM     13  H   UNL     1       8.027  -4.295  23.014  0.00  0.00    +0.155 HD
ATOM     14  O   UNL     1       5.523  -3.416  21.188  0.00  0.00    -0.263 OA
BRANCH  11  15
ATOM     15  C   UNL     1       6.443  -5.545  21.438  0.00  0.00    +0.393 C 
ATOM     16  O   UNL     1       5.652  -6.090  20.699  0.00  0.00    -0.240 OA
BRANCH  15  17
ATOM     17  O   UNL     1       7.446  -6.140  22.119  0.00  0.00    -0.474 OA
ATOM     18  H   UNL     1       7.052  -6.801  22.737  0.00  0.00    +0.296 HD
ENDBRANCH  15  17
ENDBRANCH  11  15
ENDBRANCH   1  12
BRANCH   2  19
ATOM     19  C   UNL     1       5.957  -2.394  24.762  0.00  0.00    +0.339 C 
ATOM     20  O   UNL     1       4.777  -2.100  24.856  0.00  0.00    -0.245 OA
BRANCH  19  21
ATOM     21  O   UNL     1       6.505  -3.434  25.425  0.00  0.00    -0.477 OA
ATOM     22  H   UNL     1       7.413  -3.306  25.753  0.00  0.00    +0.295 HD
ENDBRANCH  19  21
ENDBRANCH   2  19
TORSDOF 5
ENDMDL
