MODEL 1
REMARK VINA RESULT:      -7.3      0.000      0.000
REMARK  Name = 
REMARK  5 active torsions:
REMARK  status: ('A' for Active; 'I' for Inactive)
REMARK    1  A    between atoms: O_1  and  C_2
REMARK    2  A    between atoms: C_8  and  C_9
REMARK    3  A    between atoms: C_9  and  C_10
REMARK    4  A    between atoms: C_10  and  C_12
REMARK    5  A    between atoms: C_12  and  N_13
REMARK                            x       y       z     vdW  Elec       q    Type
REMARK                         _______ _______ _______ _____ _____    ______ ____
ROOT
ATOM      1  C   UNL     1       9.072  -3.931  24.868  0.00  0.00    +0.200 C 
ENDROOT
BRANCH   1   2
ATOM      2  N   UNL     1       7.884  -4.727  25.129  0.00  0.00    -0.291 N 
ATOM      3  C   UNL     1       6.974  -4.918  24.100  0.00  0.00    +0.262 A 
ATOM      4  O   UNL     1       7.154  -4.533  22.950  0.00  0.00    -0.267 OA
ATOM      5  C   UNL     1       5.732  -5.630  24.466  0.00  0.00    +0.066 A 
ATOM      6  C   UNL     1       5.623  -6.107  25.768  0.00  0.00    +0.079 A 
ATOM      7  C   UNL     1       4.443  -6.751  26.157  0.00  0.00    +0.045 A 
ATOM      8  C   UNL     1       3.386  -6.904  25.251  0.00  0.00    +0.038 A 
ATOM      9  C   UNL     1       3.510  -6.423  23.942  0.00  0.00    +0.056 A 
ATOM     10 CL   UNL     1       2.249  -6.565  22.771  0.00  0.00    -0.082 Cl
ATOM     11 BR   UNL     1       1.811  -7.761  25.882  0.00  0.00    -0.049 Br
ATOM     12  N   UNL     1       6.643  -5.959  26.715  0.00  0.00    -0.237 NA
ATOM     13  C   UNL     1       4.690  -5.787  23.546  0.00  0.00    +0.036 A 
ATOM     14  C   UNL     1       7.693  -5.294  26.367  0.00  0.00    +0.203 A 
ENDBRANCH   1   2
BRANCH   1  15
ATOM     15  C   UNL     1       8.777  -2.463  25.144  0.00  0.00    +0.155 C 
ATOM     16  O   UNL     1       8.670  -2.041  26.300  0.00  0.00    -0.295 OA
BRANCH  15  17
ATOM     17  C   UNL     1       8.714  -1.522  23.958  0.00  0.00    +0.097 C 
BRANCH  17  19
ATOM     18  C   UNL     1      10.540   0.314  23.993  0.00  0.00    +0.132 C 
ATOM     19  C   UNL     1      10.102  -1.075  23.458  0.00  0.00    +0.089 C 
ATOM     20  N   UNL     1      10.196  -1.113  21.985  0.00  0.00    -0.310 NA
ATOM     21  H   UNL     1      11.174  -0.977  21.718  0.00  0.00    +0.122 HD
ATOM     22  C   UNL     1       9.408  -0.046  21.345  0.00  0.00    +0.081 C 
ATOM     23  C   UNL     1       9.759   1.352  21.864  0.00  0.00    +0.018 C 
ATOM     24  C   UNL     1       9.698   1.434  23.388  0.00  0.00    +0.034 C 
BRANCH  18  25
ATOM     25  O   UNL     1      10.546   0.376  25.413  0.00  0.00    -0.390 OA
ATOM     26  H   UNL     1      11.457   0.302  25.745  0.00  0.00    +0.210 HD
ENDBRANCH  18  25
ENDBRANCH  17  19
ENDBRANCH  15  17
ENDBRANCH   1  15
TORSDOF 5
ENDMDL
MODEL 2
REMARK VINA RESULT:      -7.3      4.271      6.969
REMARK  Name = 
REMARK  5 active torsions:
REMARK  status: ('A' for Active; 'I' for Inactive)
REMARK    1  A    between atoms: O_1  and  C_2
REMARK    2  A    between atoms: C_8  and  C_9
REMARK    3  A    between atoms: C_9  and  C_10
REMARK    4  A    between atoms: C_10  and  C_12
REMARK    5  A    between atoms: C_12  and  N_13
REMARK                            x       y       z     vdW  Elec       q    Type
REMARK                         _______ _______ _______ _____ _____    ______ ____
ROOT
ATOM      1  C   UNL     1       9.372  -4.446  25.757  0.00  0.00    +0.200 C 
ENDROOT
BRANCH   1   2
ATOM      2  N   UNL     1       9.060  -3.037  25.574  0.00  0.00    -0.291 N 
ATOM      3  C   UNL     1       9.578  -2.382  24.468  0.00  0.00    +0.262 A 
ATOM      4  O   UNL     1      10.212  -2.939  23.579  0.00  0.00    -0.267 OA
ATOM      5  C   UNL     1       9.327  -0.927  24.407  0.00  0.00    +0.066 A 
ATOM      6  C   UNL     1       8.536  -0.368  25.407  0.00  0.00    +0.079 A 
ATOM      7  C   UNL     1       8.312   1.013  25.401  0.00  0.00    +0.045 A 
ATOM      8  C   UNL     1       8.881   1.820  24.407  0.00  0.00    +0.038 A 
ATOM      9  C   UNL     1       9.670   1.245  23.405  0.00  0.00    +0.056 A 
ATOM     10 CL   UNL     1      10.413   2.174  22.152  0.00  0.00    -0.082 Cl
ATOM     11 BR   UNL     1       8.547   3.688  24.502  0.00  0.00    -0.049 Br
ATOM     12  N   UNL     1       7.964  -1.130  26.432  0.00  0.00    -0.237 NA
ATOM     13  C   UNL     1       9.890  -0.136  23.401  0.00  0.00    +0.036 A 
ATOM     14  C   UNL     1       8.244  -2.390  26.472  0.00  0.00    +0.203 A 
ENDBRANCH   1   2
BRANCH   1  15
ATOM     15  C   UNL     1       8.135  -5.286  25.476  0.00  0.00    +0.155 C 
ATOM     16  O   UNL     1       7.483  -5.789  26.397  0.00  0.00    -0.295 OA
BRANCH  15  17
ATOM     17  C   UNL     1       7.675  -5.404  24.037  0.00  0.00    +0.097 C 
BRANCH  17  19
ATOM     18  C   UNL     1       5.660  -5.498  22.413  0.00  0.00    +0.132 C 
ATOM     19  C   UNL     1       6.146  -5.291  23.872  0.00  0.00    +0.089 C 
ATOM     20  N   UNL     1       5.626  -4.020  24.414  0.00  0.00    -0.310 NA
ATOM     21  H   UNL     1       4.605  -4.071  24.437  0.00  0.00    +0.122 HD
ATOM     22  C   UNL     1       5.996  -2.863  23.582  0.00  0.00    +0.081 C 
ATOM     23  C   UNL     1       5.585  -3.022  22.116  0.00  0.00    +0.018 C 
ATOM     24  C   UNL     1       6.083  -4.337  21.517  0.00  0.00    +0.034 C 
BRANCH  18  25
ATOM     25  O   UNL     1       6.067  -6.747  21.872  0.00  0.00    -0.390 OA
ATOM     26  H   UNL     1       6.663  -6.605  21.118  0.00  0.00    +0.210 HD
ENDBRANCH  18  25
ENDBRANCH  17  19
ENDBRANCH  15  17
ENDBRANCH   1  15
TORSDOF 5
ENDMDL
MODEL 3
REMARK VINA RESULT:      -7.1      4.030      7.338
REMARK  Name = 
REMARK  5 active torsions:
REMARK  status: ('A' for Active; 'I' for Inactive)
REMARK    1  A    between atoms: O_1  and  C_2
REMARK    2  A    between atoms: C_8  and  C_9
REMARK    3  A    between atoms: C_9  and  C_10
REMARK    4  A    between atoms: C_10  and  C_12
REMARK    5  A    between atoms: C_12  and  N_13
REMARK                            x       y       z     vdW  Elec       q    Type
REMARK                         _______ _______ _______ _____ _____    ______ ____
ROOT
ATOM      1  C   UNL     1       7.869  -5.262  25.021  0.00  0.00    +0.200 C 
ENDROOT
BRANCH   1   2
ATOM      2  N   UNL     1       8.055  -3.819  25.005  0.00  0.00    -0.291 N 
ATOM      3  C   UNL     1       7.943  -3.150  23.796  0.00  0.00    +0.262 A 
ATOM      4  O   UNL     1       7.603  -3.687  22.747  0.00  0.00    -0.267 OA
ATOM      5  C   UNL     1       8.265  -1.708  23.829  0.00  0.00    +0.066 A 
ATOM      6  C   UNL     1       8.569  -1.144  25.064  0.00  0.00    +0.079 A 
ATOM      7  C   UNL     1       8.917   0.210  25.123  0.00  0.00    +0.045 A 
ATOM      8  C   UNL     1       8.966   0.982  23.955  0.00  0.00    +0.038 A 
ATOM      9  C   UNL     1       8.654   0.403  22.719  0.00  0.00    +0.056 A 
ATOM     10 CL   UNL     1       8.701   1.286  21.236  0.00  0.00    -0.082 Cl
ATOM     11 BR   UNL     1       9.483   2.802  24.132  0.00  0.00    -0.049 Br
ATOM     12  N   UNL     1       8.555  -1.880  26.254  0.00  0.00    -0.237 NA
ATOM     13  C   UNL     1       8.296  -0.947  22.656  0.00  0.00    +0.036 A 
ATOM     14  C   UNL     1       8.310  -3.145  26.176  0.00  0.00    +0.203 A 
ENDBRANCH   1   2
BRANCH   1  15
ATOM     15  C   UNL     1       6.653  -5.612  25.866  0.00  0.00    +0.155 C 
ATOM     16  O   UNL     1       6.778  -6.018  27.026  0.00  0.00    -0.295 OA
BRANCH  15  17
ATOM     17  C   UNL     1       5.283  -5.357  25.269  0.00  0.00    +0.097 C 
BRANCH  17  19
ATOM     18  C   UNL     1       4.179  -5.291  22.928  0.00  0.00    +0.132 C 
ATOM     19  C   UNL     1       5.054  -6.088  23.931  0.00  0.00    +0.089 C 
ATOM     20  N   UNL     1       4.505  -7.444  24.131  0.00  0.00    -0.310 NA
ATOM     21  H   UNL     1       4.534  -7.942  23.238  0.00  0.00    +0.122 HD
ATOM     22  C   UNL     1       3.103  -7.421  24.580  0.00  0.00    +0.081 C 
ATOM     23  C   UNL     1       2.190  -6.609  23.657  0.00  0.00    +0.018 C 
ATOM     24  C   UNL     1       2.730  -5.203  23.402  0.00  0.00    +0.034 C 
BRANCH  18  25
ATOM     25  O   UNL     1       4.711  -4.007  22.638  0.00  0.00    -0.390 OA
ATOM     26  H   UNL     1       5.508  -3.849  23.171  0.00  0.00    +0.210 HD
ENDBRANCH  18  25
ENDBRANCH  17  19
ENDBRANCH  15  17
ENDBRANCH   1  15
TORSDOF 5
ENDMDL
MODEL 4
REMARK VINA RESULT:      -7.1      5.032      8.353
REMARK  Name = 
REMARK  5 active torsions:
REMARK  status: ('A' for Active; 'I' for Inactive)
REMARK    1  A    between atoms: O_1  and  C_2
REMARK    2  A    between atoms: C_8  and  C_9
REMARK    3  A    between atoms: C_9  and  C_10
REMARK    4  A    between atoms: C_10  and  C_12
REMARK    5  A    between atoms: C_12  and  N_13
REMARK                            x       y       z     vdW  Elec       q    Type
REMARK                         _______ _______ _______ _____ _____    ______ ____
ROOT
ATOM      1  C   UNL     1       8.404  -1.395  22.308  0.00  0.00    +0.200 C 
ENDROOT
BRANCH   1   2
ATOM      2  N   UNL     1       8.806  -0.052  22.698  0.00  0.00    -0.291 N 
ATOM      3  C   UNL     1       8.228   0.512  23.825  0.00  0.00    +0.262 A 
ATOM      4  O   UNL     1       7.463  -0.088  24.573  0.00  0.00    -0.267 OA
ATOM      5  C   UNL     1       8.587   1.920  24.093  0.00  0.00    +0.066 A 
ATOM      6  C   UNL     1       9.518   2.519  23.251  0.00  0.00    +0.079 A 
ATOM      7  C   UNL     1       9.849   3.863  23.454  0.00  0.00    +0.045 A 
ATOM      8  C   UNL     1       9.246   4.595  24.485  0.00  0.00    +0.038 A 
ATOM      9  C   UNL     1       8.314   3.979  25.328  0.00  0.00    +0.056 A 
ATOM     10 CL   UNL     1       7.521   4.817  26.613  0.00  0.00    -0.082 Cl
ATOM     11 BR   UNL     1       9.735   6.423  24.660  0.00  0.00    -0.049 Br
ATOM     12  N   UNL     1      10.132   1.835  22.195  0.00  0.00    -0.237 NA
ATOM     13  C   UNL     1       7.986   2.634  25.135  0.00  0.00    +0.036 A 
ATOM     14  C   UNL     1       9.758   0.620  21.969  0.00  0.00    +0.203 A 
ENDBRANCH   1   2
BRANCH   1  15
ATOM     15  C   UNL     1       9.267  -2.418  23.030  0.00  0.00    +0.155 C 
ATOM     16  O   UNL     1      10.498  -2.393  22.936  0.00  0.00    -0.295 OA
BRANCH  15  17
ATOM     17  C   UNL     1       8.572  -3.409  23.943  0.00  0.00    +0.097 C 
BRANCH  17  19
ATOM     18  C   UNL     1       9.242  -4.731  26.067  0.00  0.00    +0.132 C 
ATOM     19  C   UNL     1       9.059  -3.339  25.404  0.00  0.00    +0.089 C 
ATOM     20  N   UNL     1       8.190  -2.482  26.235  0.00  0.00    -0.310 NA
ATOM     21  H   UNL     1       8.647  -2.333  27.137  0.00  0.00    +0.122 HD
ATOM     22  C   UNL     1       6.879  -3.101  26.498  0.00  0.00    +0.081 C 
ATOM     23  C   UNL     1       6.988  -4.500  27.111  0.00  0.00    +0.018 C 
ATOM     24  C   UNL     1       7.898  -5.418  26.296  0.00  0.00    +0.034 C 
BRANCH  18  25
ATOM     25  O   UNL     1      10.137  -5.566  25.347  0.00  0.00    -0.390 OA
ATOM     26  H   UNL     1      10.518  -6.235  25.941  0.00  0.00    +0.210 HD
ENDBRANCH  18  25
ENDBRANCH  17  19
ENDBRANCH  15  17
ENDBRANCH   1  15
TORSDOF 5
ENDMDL
MODEL 5
REMARK VINA RESULT:      -7.0      2.214      3.046
REMARK  Name = 
REMARK  5 active torsions:
REMARK  status: ('A' for Active; 'I' for Inactive)
REMARK    1  A    between atoms: O_1  and  C_2
REMARK    2  A    between atoms: C_8  and  C_9
REMARK    3  A    between atoms: C_9  and  C_10
REMARK    4  A    between atoms: C_10  and  C_12
REMARK    5  A    between atoms: C_12  and  N_13
REMARK                            x       y       z     vdW  Elec       q    Type
REMARK                         _______ _______ _______ _____ _____    ______ ____
ROOT
ATOM      1  C   UNL     1       9.941  -1.501  22.942  0.00  0.00    +0.200 C 
ENDROOT
BRANCH   1   2
ATOM      2  N   UNL     1       9.120  -2.537  23.548  0.00  0.00    -0.291 N 
ATOM      3  C   UNL     1       7.915  -2.865  22.946  0.00  0.00    +0.262 A 
ATOM      4  O   UNL     1       7.537  -2.399  21.877  0.00  0.00    -0.267 OA
ATOM      5  C   UNL     1       7.074  -3.835  23.680  0.00  0.00    +0.066 A 
ATOM      6  C   UNL     1       7.594  -4.383  24.848  0.00  0.00    +0.079 A 
ATOM      7  C   UNL     1       6.807  -5.274  25.586  0.00  0.00    +0.045 A 
ATOM      8  C   UNL     1       5.514  -5.601  25.159  0.00  0.00    +0.038 A 
ATOM      9  C   UNL     1       5.005  -5.045  23.980  0.00  0.00    +0.056 A 
ATOM     10 CL   UNL     1       3.418  -5.392  23.393  0.00  0.00    -0.082 Cl
ATOM     11 BR   UNL     1       4.510  -6.793  26.247  0.00  0.00    -0.049 Br
ATOM     12  N   UNL     1       8.872  -4.071  25.326  0.00  0.00    -0.237 NA
ATOM     13  C   UNL     1       5.790  -4.162  23.233  0.00  0.00    +0.036 A 
ATOM     14  C   UNL     1       9.556  -3.187  24.678  0.00  0.00    +0.203 A 
ENDBRANCH   1   2
BRANCH   1  15
ATOM     15  C   UNL     1       9.985  -0.283  23.854  0.00  0.00    +0.155 C 
ATOM     16  O   UNL     1      11.010   0.007  24.479  0.00  0.00    -0.295 OA
BRANCH  15  17
ATOM     17  C   UNL     1       8.763   0.611  23.894  0.00  0.00    +0.097 C 
BRANCH  17  19
ATOM     18  C   UNL     1       8.463   2.039  21.753  0.00  0.00    +0.132 C 
ATOM     19  C   UNL     1       8.064   0.753  22.526  0.00  0.00    +0.089 C 
ATOM     20  N   UNL     1       6.596   0.657  22.644  0.00  0.00    -0.310 NA
ATOM     21  H   UNL     1       6.198   0.584  21.705  0.00  0.00    +0.122 HD
ATOM     22  C   UNL     1       6.006   1.844  23.286  0.00  0.00    +0.081 C 
ATOM     23  C   UNL     1       6.399   3.155  22.599  0.00  0.00    +0.018 C 
ATOM     24  C   UNL     1       7.912   3.289  22.433  0.00  0.00    +0.034 C 
BRANCH  18  25
ATOM     25  O   UNL     1       9.864   2.136  21.541  0.00  0.00    -0.390 OA
ATOM     26  H   UNL     1      10.274   1.258  21.612  0.00  0.00    +0.210 HD
ENDBRANCH  18  25
ENDBRANCH  17  19
ENDBRANCH  15  17
ENDBRANCH   1  15
TORSDOF 5
ENDMDL
MODEL 6
REMARK VINA RESULT:      -7.0      1.940      2.598
REMARK  Name = 
REMARK  5 active torsions:
REMARK  status: ('A' for Active; 'I' for Inactive)
REMARK    1  A    between atoms: O_1  and  C_2
REMARK    2  A    between atoms: C_8  and  C_9
REMARK    3  A    between atoms: C_9  and  C_10
REMARK    4  A    between atoms: C_10  and  C_12
REMARK    5  A    between atoms: C_12  and  N_13
REMARK                            x       y       z     vdW  Elec       q    Type
REMARK                         _______ _______ _______ _____ _____    ______ ____
ROOT
ATOM      1  C   UNL     1       8.331  -2.564  21.990  0.00  0.00    +0.200 C 
ENDROOT
BRANCH   1   2
ATOM      2  N   UNL     1       7.915  -3.332  23.153  0.00  0.00    -0.291 N 
ATOM      3  C   UNL     1       6.938  -4.301  22.993  0.00  0.00    +0.262 A 
ATOM      4  O   UNL     1       6.462  -4.620  21.908  0.00  0.00    -0.267 OA
ATOM      5  C   UNL     1       6.474  -4.956  24.234  0.00  0.00    +0.066 A 
ATOM      6  C   UNL     1       7.106  -4.604  25.423  0.00  0.00    +0.079 A 
ATOM      7  C   UNL     1       6.665  -5.177  26.620  0.00  0.00    +0.045 A 
ATOM      8  C   UNL     1       5.597  -6.084  26.622  0.00  0.00    +0.038 A 
ATOM      9  C   UNL     1       4.972  -6.432  25.419  0.00  0.00    +0.056 A 
ATOM     10 CL   UNL     1       3.645  -7.535  25.341  0.00  0.00    -0.082 Cl
ATOM     11 BR   UNL     1       5.047  -6.782  28.302  0.00  0.00    -0.049 Br
ATOM     12  N   UNL     1       8.163  -3.688  25.474  0.00  0.00    -0.237 NA
ATOM     13  C   UNL     1       5.416  -5.871  24.218  0.00  0.00    +0.036 A 
ATOM     14  C   UNL     1       8.508  -3.107  24.373  0.00  0.00    +0.203 A 
ENDBRANCH   1   2
BRANCH   1  15
ATOM     15  C   UNL     1       9.345  -1.509  22.407  0.00  0.00    +0.155 C 
ATOM     16  O   UNL     1      10.552  -1.763  22.440  0.00  0.00    -0.295 OA
BRANCH  15  17
ATOM     17  C   UNL     1       8.831  -0.111  22.689  0.00  0.00    +0.097 C 
BRANCH  17  19
ATOM     18  C   UNL     1      10.484   1.602  23.709  0.00  0.00    +0.132 C 
ATOM     19  C   UNL     1       9.876   0.990  22.419  0.00  0.00    +0.089 C 
ATOM     20  N   UNL     1       9.344   2.054  21.545  0.00  0.00    -0.310 NA
ATOM     21  H   UNL     1      10.118   2.660  21.261  0.00  0.00    +0.122 HD
ATOM     22  C   UNL     1       8.349   2.897  22.230  0.00  0.00    +0.081 C 
ATOM     23  C   UNL     1       8.870   3.496  23.539  0.00  0.00    +0.018 C 
ATOM     24  C   UNL     1       9.454   2.433  24.469  0.00  0.00    +0.034 C 
BRANCH  18  25
ATOM     25  O   UNL     1      11.085   0.625  24.547  0.00  0.00    -0.390 OA
ATOM     26  H   UNL     1      11.997   0.453  24.257  0.00  0.00    +0.210 HD
ENDBRANCH  18  25
ENDBRANCH  17  19
ENDBRANCH  15  17
ENDBRANCH   1  15
TORSDOF 5
ENDMDL
MODEL 7
REMARK VINA RESULT:      -7.0      2.492      3.319
REMARK  Name = 
REMARK  5 active torsions:
REMARK  status: ('A' for Active; 'I' for Inactive)
REMARK    1  A    between atoms: O_1  and  C_2
REMARK    2  A    between atoms: C_8  and  C_9
REMARK    3  A    between atoms: C_9  and  C_10
REMARK    4  A    between atoms: C_10  and  C_12
REMARK    5  A    between atoms: C_12  and  N_13
REMARK                            x       y       z     vdW  Elec       q    Type
REMARK                         _______ _______ _______ _____ _____    ______ ____
ROOT
ATOM      1  C   UNL     1       9.882  -2.433  23.810  0.00  0.00    +0.200 C 
ENDROOT
BRANCH   1   2
ATOM      2  N   UNL     1       8.640  -3.188  23.865  0.00  0.00    -0.291 N 
ATOM      3  C   UNL     1       8.231  -3.704  25.084  0.00  0.00    +0.262 A 
ATOM      4  O   UNL     1       8.805  -3.486  26.146  0.00  0.00    -0.267 OA
ATOM      5  C   UNL     1       7.029  -4.564  25.046  0.00  0.00    +0.066 A 
ATOM      6  C   UNL     1       6.380  -4.710  23.824  0.00  0.00    +0.079 A 
ATOM      7  C   UNL     1       5.263  -5.548  23.747  0.00  0.00    +0.045 A 
ATOM      8  C   UNL     1       4.810  -6.234  24.881  0.00  0.00    +0.038 A 
ATOM      9  C   UNL     1       5.469  -6.076  26.105  0.00  0.00    +0.056 A 
ATOM     10 CL   UNL     1       4.978  -6.895  27.544  0.00  0.00    -0.082 Cl
ATOM     11 BR   UNL     1       3.306  -7.376  24.668  0.00  0.00    -0.049 Br
ATOM     12  N   UNL     1       6.807  -4.061  22.660  0.00  0.00    -0.237 NA
ATOM     13  C   UNL     1       6.581  -5.232  26.190  0.00  0.00    +0.036 A 
ATOM     14  C   UNL     1       7.886  -3.354  22.727  0.00  0.00    +0.203 A 
ENDBRANCH   1   2
BRANCH   1  15
ATOM     15  C   UNL     1       9.694  -1.197  22.943  0.00  0.00    +0.155 C 
ATOM     16  O   UNL     1      10.173  -1.137  21.807  0.00  0.00    -0.295 OA
BRANCH  15  17
ATOM     17  C   UNL     1       8.818  -0.084  23.483  0.00  0.00    +0.097 C 
BRANCH  17  19
ATOM     18  C   UNL     1       8.413   1.974  21.964  0.00  0.00    +0.132 C 
ATOM     19  C   UNL     1       7.926   0.569  22.408  0.00  0.00    +0.089 C 
ATOM     20  N   UNL     1       6.510   0.620  22.823  0.00  0.00    -0.310 NA
ATOM     21  H   UNL     1       5.945   0.898  22.017  0.00  0.00    +0.122 HD
ATOM     22  C   UNL     1       6.275   1.605  23.892  0.00  0.00    +0.081 C 
ATOM     23  C   UNL     1       6.775   3.008  23.536  0.00  0.00    +0.018 C 
ATOM     24  C   UNL     1       8.233   3.002  23.078  0.00  0.00    +0.034 C 
BRANCH  18  25
ATOM     25  O   UNL     1       9.747   1.962  21.477  0.00  0.00    -0.390 OA
ATOM     26  H   UNL     1       9.848   2.620  20.768  0.00  0.00    +0.210 HD
ENDBRANCH  18  25
ENDBRANCH  17  19
ENDBRANCH  15  17
ENDBRANCH   1  15
TORSDOF 5
ENDMDL
MODEL 8
REMARK VINA RESULT:      -7.0      5.139      8.629
REMARK  Name = 
REMARK  5 active torsions:
REMARK  status: ('A' for Active; 'I' for Inactive)
REMARK    1  A    between atoms: O_1  and  C_2
REMARK    2  A    between atoms: C_8  and  C_9
REMARK    3  A    between atoms: C_9  and  C_10
REMARK    4  A    between atoms: C_10  and  C_12
REMARK    5  A    between atoms: C_12  and  N_13
REMARK                            x       y       z     vdW  Elec       q    Type
REMARK                         _______ _______ _______ _____ _____    ______ ____
ROOT
ATOM      1  C   UNL     1       9.114  -0.895  24.102  0.00  0.00    +0.200 C 
ENDROOT
BRANCH   1   2
ATOM      2  N   UNL     1       8.678   0.391  23.582  0.00  0.00    -0.291 N 
ATOM      3  C   UNL     1       9.430   1.517  23.882  0.00  0.00    +0.262 A 
ATOM      4  O   UNL     1      10.497   1.485  24.485  0.00  0.00    -0.267 OA
ATOM      5  C   UNL     1       8.866   2.805  23.428  0.00  0.00    +0.066 A 
ATOM      6  C   UNL     1       7.691   2.767  22.683  0.00  0.00    +0.079 A 
ATOM      7  C   UNL     1       7.110   3.971  22.272  0.00  0.00    +0.045 A 
ATOM      8  C   UNL     1       7.699   5.196  22.612  0.00  0.00    +0.038 A 
ATOM      9  C   UNL     1       8.883   5.221  23.359  0.00  0.00    +0.056 A 
ATOM     10 CL   UNL     1       9.662   6.689  23.826  0.00  0.00    -0.082 Cl
ATOM     11 BR   UNL     1       6.818   6.779  22.038  0.00  0.00    -0.049 Br
ATOM     12  N   UNL     1       7.056   1.570  22.336  0.00  0.00    -0.237 NA
ATOM     13  C   UNL     1       9.472   4.020  23.764  0.00  0.00    +0.036 A 
ATOM     14  C   UNL     1       7.558   0.470  22.789  0.00  0.00    +0.203 A 
ENDBRANCH   1   2
BRANCH   1  15
ATOM     15  C   UNL     1       9.531  -1.799  22.951  0.00  0.00    +0.155 C 
ATOM     16  O   UNL     1      10.675  -1.758  22.491  0.00  0.00    -0.295 OA
BRANCH  15  17
ATOM     17  C   UNL     1       8.523  -2.816  22.454  0.00  0.00    +0.097 C 
BRANCH  17  19
ATOM     18  C   UNL     1       7.688  -4.869  23.795  0.00  0.00    +0.132 C 
ATOM     19  C   UNL     1       7.584  -3.338  23.561  0.00  0.00    +0.089 C 
ATOM     20  N   UNL     1       6.181  -2.946  23.324  0.00  0.00    -0.310 NA
ATOM     21  H   UNL     1       5.637  -3.164  24.162  0.00  0.00    +0.122 HD
ATOM     22  C   UNL     1       5.577  -3.679  22.198  0.00  0.00    +0.081 C 
ATOM     23  C   UNL     1       5.686  -5.199  22.344  0.00  0.00    +0.018 C 
ATOM     24  C   UNL     1       7.120  -5.651  22.614  0.00  0.00    +0.034 C 
BRANCH  18  25
ATOM     25  O   UNL     1       9.009  -5.286  24.110  0.00  0.00    -0.390 OA
ATOM     26  H   UNL     1       9.013  -6.230  24.341  0.00  0.00    +0.210 HD
ENDBRANCH  18  25
ENDBRANCH  17  19
ENDBRANCH  15  17
ENDBRANCH   1  15
TORSDOF 5
ENDMDL
MODEL 9
REMARK VINA RESULT:      -6.7      4.857      8.512
REMARK  Name = 
REMARK  5 active torsions:
REMARK  status: ('A' for Active; 'I' for Inactive)
REMARK    1  A    between atoms: O_1  and  C_2
REMARK    2  A    between atoms: C_8  and  C_9
REMARK    3  A    between atoms: C_9  and  C_10
REMARK    4  A    between atoms: C_10  and  C_12
REMARK    5  A    between atoms: C_12  and  N_13
REMARK                            x       y       z     vdW  Elec       q    Type
REMARK                         _______ _______ _______ _____ _____    ______ ____
ROOT
ATOM      1  C   UNL     1       9.825  -1.001  21.920  0.00  0.00    +0.200 C 
ENDROOT
BRANCH   1   2
ATOM      2  N   UNL     1       9.689   0.303  22.549  0.00  0.00    -0.291 N 
ATOM      3  C   UNL     1       8.653   1.131  22.144  0.00  0.00    +0.262 A 
ATOM      4  O   UNL     1       7.783   0.795  21.349  0.00  0.00    -0.267 OA
ATOM      5  C   UNL     1       8.647   2.486  22.733  0.00  0.00    +0.066 A 
ATOM      6  C   UNL     1       9.618   2.779  23.685  0.00  0.00    +0.079 A 
ATOM      7  C   UNL     1       9.664   4.066  24.233  0.00  0.00    +0.045 A 
ATOM      8  C   UNL     1       8.751   5.045  23.821  0.00  0.00    +0.038 A 
ATOM      9  C   UNL     1       7.777   4.737  22.865  0.00  0.00    +0.056 A 
ATOM     10 CL   UNL     1       6.623   5.892  22.300  0.00  0.00    -0.082 Cl
ATOM     11 BR   UNL     1       8.914   6.773  24.596  0.00  0.00    -0.049 Br
ATOM     12  N   UNL     1      10.564   1.841  24.113  0.00  0.00    -0.237 NA
ATOM     13  C   UNL     1       7.720   3.450  22.322  0.00  0.00    +0.036 A 
ATOM     14  C   UNL     1      10.561   0.682  23.542  0.00  0.00    +0.203 A 
ENDBRANCH   1   2
BRANCH   1  15
ATOM     15  C   UNL     1       9.400  -2.088  22.896  0.00  0.00    +0.155 C 
ATOM     16  O   UNL     1      10.223  -2.639  23.634  0.00  0.00    -0.295 OA
BRANCH  15  17
ATOM     17  C   UNL     1       7.921  -2.404  23.000  0.00  0.00    +0.097 C 
BRANCH  17  19
ATOM     18  C   UNL     1       6.059  -4.143  22.536  0.00  0.00    +0.132 C 
ATOM     19  C   UNL     1       7.582  -3.865  22.644  0.00  0.00    +0.089 C 
ATOM     20  N   UNL     1       8.216  -4.821  23.573  0.00  0.00    -0.310 NA
ATOM     21  H   UNL     1       8.104  -5.765  23.195  0.00  0.00    +0.122 HD
ATOM     22  C   UNL     1       7.596  -4.800  24.908  0.00  0.00    +0.081 C 
ATOM     23  C   UNL     1       6.081  -5.022  24.870  0.00  0.00    +0.018 C 
ATOM     24  C   UNL     1       5.383  -4.068  23.902  0.00  0.00    +0.034 C 
BRANCH  18  25
ATOM     25  O   UNL     1       5.415  -3.302  21.589  0.00  0.00    -0.390 OA
ATOM     26  H   UNL     1       6.012  -3.123  20.843  0.00  0.00    +0.210 HD
ENDBRANCH  18  25
ENDBRANCH  17  19
ENDBRANCH  15  17
ENDBRANCH   1  15
TORSDOF 5
ENDMDL
