MODEL 1
REMARK VINA RESULT:      -3.7      0.000      0.000
REMARK  Name = 
REMARK  7 active torsions:
REMARK  status: ('A' for Active; 'I' for Inactive)
REMARK    1  A    between atoms: N_1  and  C_2
REMARK    2  A    between atoms: C_2  and  C_3
REMARK    3  A    between atoms: C_3  and  C_4
REMARK    4  A    between atoms: C_4  and  C_5
REMARK    5  A    between atoms: C_5  and  C_6
REMARK    6  A    between atoms: C_6  and  C_7
REMARK    7  A    between atoms: C_7  and  O_8
REMARK                            x       y       z     vdW  Elec       q    Type
REMARK                         _______ _______ _______ _____ _____    ______ ____
ROOT
ATOM      1  C   UNL     1      10.660   0.417  24.797  0.00  0.00    +0.002 C 
ENDROOT
BRANCH   1   2
ATOM      2  C   UNL     1      10.707   1.674  23.918  0.00  0.00    +0.015 C 
BRANCH   2   3
ATOM      3  C   UNL     1       9.493   1.870  23.006  0.00  0.00    +0.077 C 
BRANCH   3   4
ATOM      4  N   UNL     1       9.872   1.859  21.598  0.00  0.00    -0.330 NA
ATOM      5  H   UNL     1      10.454   2.671  21.397  0.00  0.00    +0.118 HD
ATOM      6  H   UNL     1      10.449   1.040  21.411  0.00  0.00    +0.118 HD
ENDBRANCH   3   4
ENDBRANCH   2   3
ENDBRANCH   1   2
BRANCH   1   7
ATOM      7  C   UNL     1       9.471  -0.489  24.479  0.00  0.00    +0.011 C 
BRANCH   7   8
ATOM      8  C   UNL     1       9.900  -1.753  23.738  0.00  0.00    +0.120 C 
BRANCH   8   9
ATOM      9  C   UNL     1       9.313  -1.804  22.346  0.00  0.00    +0.305 C 
ATOM     10  O   UNL     1       8.184  -2.172  22.064  0.00  0.00    -0.251 OA
BRANCH   9  11
ATOM     11  O   UNL     1      10.187  -1.376  21.405  0.00  0.00    -0.481 OA
ATOM     12  H   UNL     1      10.806  -2.069  21.106  0.00  0.00    +0.295 HD
ENDBRANCH   9  11
ENDBRANCH   8   9
ENDBRANCH   7   8
ENDBRANCH   1   7
TORSDOF 7
ENDMDL
MODEL 2
REMARK VINA RESULT:      -3.7      2.470      3.758
REMARK  Name = 
REMARK  7 active torsions:
REMARK  status: ('A' for Active; 'I' for Inactive)
REMARK    1  A    between atoms: N_1  and  C_2
REMARK    2  A    between atoms: C_2  and  C_3
REMARK    3  A    between atoms: C_3  and  C_4
REMARK    4  A    between atoms: C_4  and  C_5
REMARK    5  A    between atoms: C_5  and  C_6
REMARK    6  A    between atoms: C_6  and  C_7
REMARK    7  A    between atoms: C_7  and  O_8
REMARK                            x       y       z     vdW  Elec       q    Type
REMARK                         _______ _______ _______ _____ _____    ______ ____
ROOT
ATOM      1  C   UNL     1       9.837  -0.524  24.901  0.00  0.00    +0.002 C 
ENDROOT
BRANCH   1   2
ATOM      2  C   UNL     1       9.196  -1.124  23.642  0.00  0.00    +0.015 C 
BRANCH   2   3
ATOM      3  C   UNL     1      10.172  -1.441  22.507  0.00  0.00    +0.077 C 
BRANCH   3   4
ATOM      4  N   UNL     1       9.791  -0.771  21.269  0.00  0.00    -0.330 NA
ATOM      5  H   UNL     1      10.630  -0.513  20.751  0.00  0.00    +0.118 HD
ATOM      6  H   UNL     1       9.278  -1.423  20.678  0.00  0.00    +0.118 HD
ENDBRANCH   3   4
ENDBRANCH   2   3
ENDBRANCH   1   2
BRANCH   1   7
ATOM      7  C   UNL     1      10.684   0.714  24.605  0.00  0.00    +0.011 C 
BRANCH   7   8
ATOM      8  C   UNL     1       9.833   1.883  24.118  0.00  0.00    +0.120 C 
BRANCH   8   9
ATOM      9  C   UNL     1      10.550   2.686  23.058  0.00  0.00    +0.305 C 
ATOM     10  O   UNL     1      11.322   3.608  23.266  0.00  0.00    -0.251 OA
BRANCH   9  11
ATOM     11  O   UNL     1      10.254   2.264  21.807  0.00  0.00    -0.481 OA
ATOM     12  H   UNL     1       9.379   2.562  21.493  0.00  0.00    +0.295 HD
ENDBRANCH   9  11
ENDBRANCH   8   9
ENDBRANCH   7   8
ENDBRANCH   1   7
TORSDOF 7
ENDMDL
MODEL 3
REMARK VINA RESULT:      -3.7      3.607      4.446
REMARK  Name = 
REMARK  7 active torsions:
REMARK  status: ('A' for Active; 'I' for Inactive)
REMARK    1  A    between atoms: N_1  and  C_2
REMARK    2  A    between atoms: C_2  and  C_3
REMARK    3  A    between atoms: C_3  and  C_4
REMARK    4  A    between atoms: C_4  and  C_5
REMARK    5  A    between atoms: C_5  and  C_6
REMARK    6  A    between atoms: C_6  and  C_7
REMARK    7  A    between atoms: C_7  and  O_8
REMARK                            x       y       z     vdW  Elec       q    Type
REMARK                         _______ _______ _______ _____ _____    ______ ____
ROOT
ATOM      1  C   UNL     1      10.678   4.738  23.809  0.00  0.00    +0.002 C 
ENDROOT
BRANCH   1   2
ATOM      2  C   UNL     1      11.799   5.765  23.597  0.00  0.00    +0.015 C 
BRANCH   2   3
ATOM      3  C   UNL     1      12.840   5.379  22.545  0.00  0.00    +0.077 C 
BRANCH   3   4
ATOM      4  N   UNL     1      14.144   5.128  23.146  0.00  0.00    -0.330 NA
ATOM      5  H   UNL     1      14.484   4.213  22.853  0.00  0.00    +0.118 HD
ATOM      6  H   UNL     1      14.815   5.808  22.791  0.00  0.00    +0.118 HD
ENDBRANCH   3   4
ENDBRANCH   2   3
ENDBRANCH   1   2
BRANCH   1   7
ATOM      7  C   UNL     1      11.085   3.321  23.404  0.00  0.00    +0.011 C 
BRANCH   7   8
ATOM      8  C   UNL     1       9.964   2.314  23.649  0.00  0.00    +0.120 C 
BRANCH   8   9
ATOM      9  C   UNL     1       8.997   2.271  22.490  0.00  0.00    +0.305 C 
ATOM     10  O   UNL     1       7.791   2.443  22.563  0.00  0.00    -0.251 OA
BRANCH   9  11
ATOM     11  O   UNL     1       9.618   2.024  21.312  0.00  0.00    -0.481 OA
ATOM     12  H   UNL     1      10.354   2.637  21.125  0.00  0.00    +0.295 HD
ENDBRANCH   9  11
ENDBRANCH   8   9
ENDBRANCH   7   8
ENDBRANCH   1   7
TORSDOF 7
ENDMDL
MODEL 4
REMARK VINA RESULT:      -3.6      2.395      3.188
REMARK  Name = 
REMARK  7 active torsions:
REMARK  status: ('A' for Active; 'I' for Inactive)
REMARK    1  A    between atoms: N_1  and  C_2
REMARK    2  A    between atoms: C_2  and  C_3
REMARK    3  A    between atoms: C_3  and  C_4
REMARK    4  A    between atoms: C_4  and  C_5
REMARK    5  A    between atoms: C_5  and  C_6
REMARK    6  A    between atoms: C_6  and  C_7
REMARK    7  A    between atoms: C_7  and  O_8
REMARK                            x       y       z     vdW  Elec       q    Type
REMARK                         _______ _______ _______ _____ _____    ______ ____
ROOT
ATOM      1  C   UNL     1       9.110   1.697  22.978  0.00  0.00    +0.002 C 
ENDROOT
BRANCH   1   2
ATOM      2  C   UNL     1       9.904   1.022  21.851  0.00  0.00    +0.015 C 
BRANCH   2   3
ATOM      3  C   UNL     1       9.306  -0.287  21.333  0.00  0.00    +0.077 C 
BRANCH   3   4
ATOM      4  N   UNL     1      10.161  -1.427  21.642  0.00  0.00    -0.330 NA
ATOM      5  H   UNL     1       9.897  -1.813  22.548  0.00  0.00    +0.118 HD
ATOM      6  H   UNL     1       9.997  -2.166  20.959  0.00  0.00    +0.118 HD
ENDBRANCH   3   4
ENDBRANCH   2   3
ENDBRANCH   1   2
BRANCH   1   7
ATOM      7  C   UNL     1       9.942   1.922  24.240  0.00  0.00    +0.011 C 
BRANCH   7   8
ATOM      8  C   UNL     1      10.708   0.667  24.649  0.00  0.00    +0.120 C 
BRANCH   8   9
ATOM      9  C   UNL     1       9.780  -0.391  25.200  0.00  0.00    +0.305 C 
ATOM     10  O   UNL     1       9.498  -1.444  24.652  0.00  0.00    -0.251 OA
BRANCH   9  11
ATOM     11  O   UNL     1       9.281  -0.055  26.413  0.00  0.00    -0.481 OA
ATOM     12  H   UNL     1       9.962   0.245  27.044  0.00  0.00    +0.295 HD
ENDBRANCH   9  11
ENDBRANCH   8   9
ENDBRANCH   7   8
ENDBRANCH   1   7
TORSDOF 7
ENDMDL
MODEL 5
REMARK VINA RESULT:      -3.5      1.319      1.846
REMARK  Name = 
REMARK  7 active torsions:
REMARK  status: ('A' for Active; 'I' for Inactive)
REMARK    1  A    between atoms: N_1  and  C_2
REMARK    2  A    between atoms: C_2  and  C_3
REMARK    3  A    between atoms: C_3  and  C_4
REMARK    4  A    between atoms: C_4  and  C_5
REMARK    5  A    between atoms: C_5  and  C_6
REMARK    6  A    between atoms: C_6  and  C_7
REMARK    7  A    between atoms: C_7  and  O_8
REMARK                            x       y       z     vdW  Elec       q    Type
REMARK                         _______ _______ _______ _____ _____    ______ ____
ROOT
ATOM      1  C   UNL     1       9.677   1.432  24.425  0.00  0.00    +0.002 C 
ENDROOT
BRANCH   1   2
ATOM      2  C   UNL     1       8.653   1.355  23.284  0.00  0.00    +0.015 C 
BRANCH   2   3
ATOM      3  C   UNL     1       9.254   1.328  21.876  0.00  0.00    +0.077 C 
BRANCH   3   4
ATOM      4  N   UNL     1      10.258   2.369  21.701  0.00  0.00    -0.330 NA
ATOM      5  H   UNL     1      10.788   2.191  20.848  0.00  0.00    +0.118 HD
ATOM      6  H   UNL     1       9.793   3.266  21.565  0.00  0.00    +0.118 HD
ENDBRANCH   3   4
ENDBRANCH   2   3
ENDBRANCH   1   2
BRANCH   1   7
ATOM      7  C   UNL     1      10.480   0.142  24.592  0.00  0.00    +0.011 C 
BRANCH   7   8
ATOM      8  C   UNL     1       9.584  -1.094  24.563  0.00  0.00    +0.120 C 
BRANCH   8   9
ATOM      9  C   UNL     1      10.093  -2.123  23.580  0.00  0.00    +0.305 C 
ATOM     10  O   UNL     1      10.520  -1.886  22.462  0.00  0.00    -0.251 OA
BRANCH   9  11
ATOM     11  O   UNL     1      10.040  -3.380  24.079  0.00  0.00    -0.481 OA
ATOM     12  H   UNL     1       9.223  -3.564  24.580  0.00  0.00    +0.295 HD
ENDBRANCH   9  11
ENDBRANCH   8   9
ENDBRANCH   7   8
ENDBRANCH   1   7
TORSDOF 7
ENDMDL
MODEL 6
REMARK VINA RESULT:      -3.4      5.399      6.128
REMARK  Name = 
REMARK  7 active torsions:
REMARK  status: ('A' for Active; 'I' for Inactive)
REMARK    1  A    between atoms: N_1  and  C_2
REMARK    2  A    between atoms: C_2  and  C_3
REMARK    3  A    between atoms: C_3  and  C_4
REMARK    4  A    between atoms: C_4  and  C_5
REMARK    5  A    between atoms: C_5  and  C_6
REMARK    6  A    between atoms: C_6  and  C_7
REMARK    7  A    between atoms: C_7  and  O_8
REMARK                            x       y       z     vdW  Elec       q    Type
REMARK                         _______ _______ _______ _____ _____    ______ ____
ROOT
ATOM      1  C   UNL     1       6.911  -4.335  24.508  0.00  0.00    +0.002 C 
ENDROOT
BRANCH   1   2
ATOM      2  C   UNL     1       7.762  -5.033  25.577  0.00  0.00    +0.015 C 
BRANCH   2   3
ATOM      3  C   UNL     1       9.214  -4.557  25.660  0.00  0.00    +0.077 C 
BRANCH   3   4
ATOM      4  N   UNL     1      10.150  -5.629  25.343  0.00  0.00    -0.330 NA
ATOM      5  H   UNL     1      10.362  -5.610  24.346  0.00  0.00    +0.118 HD
ATOM      6  H   UNL     1      11.031  -5.461  25.826  0.00  0.00    +0.118 HD
ENDBRANCH   3   4
ENDBRANCH   2   3
ENDBRANCH   1   2
BRANCH   1   7
ATOM      7  C   UNL     1       7.616  -4.239  23.154  0.00  0.00    +0.011 C 
BRANCH   7   8
ATOM      8  C   UNL     1       7.389  -5.486  22.304  0.00  0.00    +0.120 C 
BRANCH   8   9
ATOM      9  C   UNL     1       6.142  -5.360  21.460  0.00  0.00    +0.305 C 
ATOM     10  O   UNL     1       5.840  -4.392  20.780  0.00  0.00    -0.251 OA
BRANCH   9  11
ATOM     11  O   UNL     1       5.367  -6.468  21.520  0.00  0.00    -0.481 OA
ATOM     12  H   UNL     1       5.338  -6.967  20.682  0.00  0.00    +0.295 HD
ENDBRANCH   9  11
ENDBRANCH   8   9
ENDBRANCH   7   8
ENDBRANCH   1   7
TORSDOF 7
ENDMDL
MODEL 7
REMARK VINA RESULT:      -3.3      3.534      4.711
REMARK  Name = 
REMARK  7 active torsions:
REMARK  status: ('A' for Active; 'I' for Inactive)
REMARK    1  A    between atoms: N_1  and  C_2
REMARK    2  A    between atoms: C_2  and  C_3
REMARK    3  A    between atoms: C_3  and  C_4
REMARK    4  A    between atoms: C_4  and  C_5
REMARK    5  A    between atoms: C_5  and  C_6
REMARK    6  A    between atoms: C_6  and  C_7
REMARK    7  A    between atoms: C_7  and  O_8
REMARK                            x       y       z     vdW  Elec       q    Type
REMARK                         _______ _______ _______ _____ _____    ______ ____
ROOT
ATOM      1  C   UNL     1       9.736  -2.442  23.605  0.00  0.00    +0.002 C 
ENDROOT
BRANCH   1   2
ATOM      2  C   UNL     1       9.237  -3.147  24.874  0.00  0.00    +0.015 C 
BRANCH   2   3
ATOM      3  C   UNL     1       9.100  -4.667  24.758  0.00  0.00    +0.077 C 
BRANCH   3   4
ATOM      4  N   UNL     1      10.251  -5.355  25.330  0.00  0.00    -0.330 NA
ATOM      5  H   UNL     1      10.233  -5.260  26.345  0.00  0.00    +0.118 HD
ATOM      6  H   UNL     1      10.177  -6.353  25.135  0.00  0.00    +0.118 HD
ENDBRANCH   3   4
ENDBRANCH   2   3
ENDBRANCH   1   2
BRANCH   1   7
ATOM      7  C   UNL     1       9.959  -0.943  23.806  0.00  0.00    +0.011 C 
BRANCH   7   8
ATOM      8  C   UNL     1       9.946  -0.183  22.482  0.00  0.00    +0.120 C 
BRANCH   8   9
ATOM      9  C   UNL     1      10.165   1.298  22.693  0.00  0.00    +0.305 C 
ATOM     10  O   UNL     1      10.452   1.830  23.753  0.00  0.00    -0.251 OA
BRANCH   9  11
ATOM     11  O   UNL     1      10.017   2.006  21.549  0.00  0.00    -0.481 OA
ATOM     12  H   UNL     1      10.264   2.946  21.640  0.00  0.00    +0.295 HD
ENDBRANCH   9  11
ENDBRANCH   8   9
ENDBRANCH   7   8
ENDBRANCH   1   7
TORSDOF 7
ENDMDL
MODEL 8
REMARK VINA RESULT:      -3.3      1.940      2.495
REMARK  Name = 
REMARK  7 active torsions:
REMARK  status: ('A' for Active; 'I' for Inactive)
REMARK    1  A    between atoms: N_1  and  C_2
REMARK    2  A    between atoms: C_2  and  C_3
REMARK    3  A    between atoms: C_3  and  C_4
REMARK    4  A    between atoms: C_4  and  C_5
REMARK    5  A    between atoms: C_5  and  C_6
REMARK    6  A    between atoms: C_6  and  C_7
REMARK    7  A    between atoms: C_7  and  O_8
REMARK                            x       y       z     vdW  Elec       q    Type
REMARK                         _______ _______ _______ _____ _____    ______ ____
ROOT
ATOM      1  C   UNL     1       9.108   0.926  22.018  0.00  0.00    +0.002 C 
ENDROOT
BRANCH   1   2
ATOM      2  C   UNL     1      10.159   1.992  22.355  0.00  0.00    +0.015 C 
BRANCH   2   3
ATOM      3  C   UNL     1      10.628   2.000  23.812  0.00  0.00    +0.077 C 
BRANCH   3   4
ATOM      4  N   UNL     1       9.526   1.748  24.732  0.00  0.00    -0.330 NA
ATOM      5  H   UNL     1       8.930   1.012  24.355  0.00  0.00    +0.118 HD
ATOM      6  H   UNL     1       9.897   1.392  25.612  0.00  0.00    +0.118 HD
ENDBRANCH   3   4
ENDBRANCH   2   3
ENDBRANCH   1   2
BRANCH   1   7
ATOM      7  C   UNL     1       9.720  -0.447  21.743  0.00  0.00    +0.011 C 
BRANCH   7   8
ATOM      8  C   UNL     1       8.958  -1.563  22.454  0.00  0.00    +0.120 C 
BRANCH   8   9
ATOM      9  C   UNL     1       9.558  -1.866  23.807  0.00  0.00    +0.305 C 
ATOM     10  O   UNL     1       9.430  -1.182  24.811  0.00  0.00    -0.251 OA
BRANCH   9  11
ATOM     11  O   UNL     1      10.271  -3.017  23.807  0.00  0.00    -0.481 OA
ATOM     12  H   UNL     1      10.928  -3.066  23.088  0.00  0.00    +0.295 HD
ENDBRANCH   9  11
ENDBRANCH   8   9
ENDBRANCH   7   8
ENDBRANCH   1   7
TORSDOF 7
ENDMDL
MODEL 9
REMARK VINA RESULT:      -3.3      3.766      4.664
REMARK  Name = 
REMARK  7 active torsions:
REMARK  status: ('A' for Active; 'I' for Inactive)
REMARK    1  A    between atoms: N_1  and  C_2
REMARK    2  A    between atoms: C_2  and  C_3
REMARK    3  A    between atoms: C_3  and  C_4
REMARK    4  A    between atoms: C_4  and  C_5
REMARK    5  A    between atoms: C_5  and  C_6
REMARK    6  A    between atoms: C_6  and  C_7
REMARK    7  A    between atoms: C_7  and  O_8
REMARK                            x       y       z     vdW  Elec       q    Type
REMARK                         _______ _______ _______ _____ _____    ______ ____
ROOT
ATOM      1  C   UNL     1       8.315  -3.001  23.205  0.00  0.00    +0.002 C 
ENDROOT
BRANCH   1   2
ATOM      2  C   UNL     1       9.674  -2.518  23.729  0.00  0.00    +0.015 C 
BRANCH   2   3
ATOM      3  C   UNL     1      10.412  -1.542  22.810  0.00  0.00    +0.077 C 
BRANCH   3   4
ATOM      4  N   UNL     1       9.863  -1.556  21.460  0.00  0.00    -0.330 NA
ATOM      5  H   UNL     1       8.934  -1.134  21.466  0.00  0.00    +0.118 HD
ATOM      6  H   UNL     1      10.438  -0.970  20.856  0.00  0.00    +0.118 HD
ENDBRANCH   3   4
ENDBRANCH   2   3
ENDBRANCH   1   2
BRANCH   1   7
ATOM      7  C   UNL     1       7.834  -4.280  23.889  0.00  0.00    +0.011 C 
BRANCH   7   8
ATOM      8  C   UNL     1       8.938  -4.933  24.716  0.00  0.00    +0.120 C 
BRANCH   8   9
ATOM      9  C   UNL     1       8.473  -5.231  26.123  0.00  0.00    +0.305 C 
ATOM     10  O   UNL     1       7.428  -5.786  26.423  0.00  0.00    -0.251 OA
BRANCH   9  11
ATOM     11  O   UNL     1       9.363  -4.819  27.056  0.00  0.00    -0.481 OA
ATOM     12  H   UNL     1       9.320  -3.861  27.237  0.00  0.00    +0.295 HD
ENDBRANCH   9  11
ENDBRANCH   8   9
ENDBRANCH   7   8
ENDBRANCH   1   7
TORSDOF 7
ENDMDL
