MODEL 1
REMARK VINA RESULT:      -5.5      0.000      0.000
REMARK  Name = 
REMARK  5 active torsions:
REMARK  status: ('A' for Active; 'I' for Inactive)
REMARK    1  A    between atoms: N_1  and  CA_2
REMARK    2  A    between atoms: CA_2  and  C_4
REMARK    3  A    between atoms: CA_2  and  C_13
REMARK    4  A    between atoms: C_4  and  C_5
REMARK    5  A    between atoms: C_13  and  O_14
REMARK                            x       y       z     vdW  Elec       q    Type
REMARK                         _______ _______ _______ _____ _____    ______ ____
ROOT
ATOM      1  C   UNL     1       8.823  -3.624  24.756  0.00  0.00    +0.000 C 
ENDROOT
BRANCH   1   2
ATOM      2  C   UNL     1       8.966  -2.184  25.180  0.00  0.00    +0.000 A 
ATOM      3  C   UNL     1       9.470  -1.156  24.414  0.00  0.00    +0.000 A 
ATOM      4  C   UNL     1       9.464  -0.051  25.168  0.00  0.00    +0.000 A 
ATOM      5  C   UNL     1       9.954   1.080  24.578  0.00  0.00    +0.000 A 
ATOM      6  C   UNL     1      10.364   0.795  23.277  0.00  0.00    +0.000 A 
ATOM      7  N   UNL     1       8.971  -0.278  26.396  0.00  0.00    +0.000 N 
ATOM      8  H   UNL     1       8.862   0.409  27.172  0.00  0.00    +0.000 HD
ATOM      9 SE   UNL     1      10.126  -0.958  22.746  0.00  0.00    +0.000 Se
ATOM     10  C   UNL     1       8.663  -1.601  26.416  0.00  0.00    +0.000 A 
ENDBRANCH   1   2
BRANCH   1  11
ATOM     11  CA  UNL     1       9.134  -4.670  25.854  0.00  0.00    +0.000 C 
BRANCH  11  12
ATOM     12  N   UNL     1      10.133  -5.643  25.398  0.00  0.00    +0.000 NA
ATOM     13  H1  UNL     1      10.574  -5.333  24.503  0.00  0.00    +0.000 HD
ATOM     14  H2  UNL     1      10.878  -5.749  26.125  0.00  0.00    +0.000 HD
ENDBRANCH  11  12
BRANCH  11  15
ATOM     15  C   UNL     1       7.887  -5.363  26.359  0.00  0.00    +0.000 C 
ATOM     16  OXT UNL     1       6.887  -5.427  25.660  0.00  0.00    +0.000 OA
BRANCH  15  17
ATOM     17  O   UNL     1       7.868  -5.938  27.581  0.00  0.00    +0.000 OA
ATOM     18  H   UNL     1       8.675  -6.252  28.013  0.00  0.00    +0.000 HD
ENDBRANCH  15  17
ENDBRANCH  11  15
ENDBRANCH   1  11
TORSDOF 5
ENDMDL
MODEL 2
REMARK VINA RESULT:      -5.5      2.431      2.950
REMARK  Name = 
REMARK  5 active torsions:
REMARK  status: ('A' for Active; 'I' for Inactive)
REMARK    1  A    between atoms: N_1  and  CA_2
REMARK    2  A    between atoms: CA_2  and  C_4
REMARK    3  A    between atoms: CA_2  and  C_13
REMARK    4  A    between atoms: C_4  and  C_5
REMARK    5  A    between atoms: C_13  and  O_14
REMARK                            x       y       z     vdW  Elec       q    Type
REMARK                         _______ _______ _______ _____ _____    ______ ____
ROOT
ATOM      1  C   UNL     1       9.701  -2.551  24.270  0.00  0.00    +0.000 C 
ENDROOT
BRANCH   1   2
ATOM      2  C   UNL     1       9.677  -1.539  23.153  0.00  0.00    +0.000 A 
ATOM      3  C   UNL     1       9.967  -0.197  23.265  0.00  0.00    +0.000 A 
ATOM      4  C   UNL     1       9.791   0.356  22.059  0.00  0.00    +0.000 A 
ATOM      5  C   UNL     1      10.013   1.702  21.978  0.00  0.00    +0.000 A 
ATOM      6  C   UNL     1      10.381   2.195  23.228  0.00  0.00    +0.000 A 
ATOM      7  N   UNL     1       9.411  -0.546  21.140  0.00  0.00    +0.000 N 
ATOM      8  H   UNL     1       9.206  -0.375  20.132  0.00  0.00    +0.000 HD
ATOM      9 SE   UNL     1      10.468   0.936  24.576  0.00  0.00    +0.000 Se
ATOM     10  C   UNL     1       9.334  -1.725  21.809  0.00  0.00    +0.000 A 
ENDBRANCH   1   2
BRANCH   1  11
ATOM     11  CA  UNL     1       8.727  -3.742  24.101  0.00  0.00    +0.000 C 
BRANCH  11  12
ATOM     12  N   UNL     1       7.333  -3.324  24.283  0.00  0.00    +0.000 NA
ATOM     13  H1  UNL     1       7.162  -3.013  25.267  0.00  0.00    +0.000 HD
ATOM     14  H2  UNL     1       7.114  -2.533  23.634  0.00  0.00    +0.000 HD
ENDBRANCH  11  12
BRANCH  11  15
ATOM     15  C   UNL     1       9.072  -4.902  25.012  0.00  0.00    +0.000 C 
ATOM     16  OXT UNL     1       8.213  -5.419  25.709  0.00  0.00    +0.000 OA
BRANCH  15  17
ATOM     17  O   UNL     1      10.329  -5.395  25.050  0.00  0.00    +0.000 OA
ATOM     18  H   UNL     1      10.547  -6.209  25.524  0.00  0.00    +0.000 HD
ENDBRANCH  15  17
ENDBRANCH  11  15
ENDBRANCH   1  11
TORSDOF 5
ENDMDL
MODEL 3
REMARK VINA RESULT:      -5.2      2.088      2.345
REMARK  Name = 
REMARK  5 active torsions:
REMARK  status: ('A' for Active; 'I' for Inactive)
REMARK    1  A    between atoms: N_1  and  CA_2
REMARK    2  A    between atoms: CA_2  and  C_4
REMARK    3  A    between atoms: CA_2  and  C_13
REMARK    4  A    between atoms: C_4  and  C_5
REMARK    5  A    between atoms: C_13  and  O_14
REMARK                            x       y       z     vdW  Elec       q    Type
REMARK                         _______ _______ _______ _____ _____    ______ ____
ROOT
ATOM      1  C   UNL     1       8.200  -4.671  23.983  0.00  0.00    +0.000 C 
ENDROOT
BRANCH   1   2
ATOM      2  C   UNL     1       7.637  -3.344  23.541  0.00  0.00    +0.000 A 
ATOM      3  C   UNL     1       8.363  -2.226  23.195  0.00  0.00    +0.000 A 
ATOM      4  C   UNL     1       7.492  -1.253  22.904  0.00  0.00    +0.000 A 
ATOM      5  C   UNL     1       8.034  -0.048  22.556  0.00  0.00    +0.000 A 
ATOM      6  C   UNL     1       9.425  -0.126  22.594  0.00  0.00    +0.000 A 
ATOM      7  N   UNL     1       6.219  -1.661  23.024  0.00  0.00    +0.000 N 
ATOM      8  H   UNL     1       5.356  -1.100  22.860  0.00  0.00    +0.000 HD
ATOM      9 SE   UNL     1      10.105  -1.774  23.075  0.00  0.00    +0.000 Se
ATOM     10  C   UNL     1       6.297  -2.957  23.422  0.00  0.00    +0.000 A 
ENDBRANCH   1   2
BRANCH   1  11
ATOM     11  CA  UNL     1       9.025  -4.635  25.291  0.00  0.00    +0.000 C 
BRANCH  11  12
ATOM     12  N   UNL     1      10.102  -5.630  25.272  0.00  0.00    +0.000 NA
ATOM     13  H1  UNL     1       9.744  -6.561  24.962  0.00  0.00    +0.000 HD
ATOM     14  H2  UNL     1      10.857  -5.320  24.617  0.00  0.00    +0.000 HD
ENDBRANCH  11  12
BRANCH  11  15
ATOM     15  C   UNL     1       8.159  -4.791  26.524  0.00  0.00    +0.000 C 
ATOM     16  OXT UNL     1       7.510  -3.848  26.948  0.00  0.00    +0.000 OA
BRANCH  15  17
ATOM     17  O   UNL     1       8.076  -5.981  27.158  0.00  0.00    +0.000 OA
ATOM     18  H   UNL     1       7.633  -6.744  26.762  0.00  0.00    +0.000 HD
ENDBRANCH  15  17
ENDBRANCH  11  15
ENDBRANCH   1  11
TORSDOF 5
ENDMDL
MODEL 4
REMARK VINA RESULT:      -5.1      1.672      2.038
REMARK  Name = 
REMARK  5 active torsions:
REMARK  status: ('A' for Active; 'I' for Inactive)
REMARK    1  A    between atoms: N_1  and  CA_2
REMARK    2  A    between atoms: CA_2  and  C_4
REMARK    3  A    between atoms: CA_2  and  C_13
REMARK    4  A    between atoms: C_4  and  C_5
REMARK    5  A    between atoms: C_13  and  O_14
REMARK                            x       y       z     vdW  Elec       q    Type
REMARK                         _______ _______ _______ _____ _____    ______ ____
ROOT
ATOM      1  C   UNL     1       8.773  -3.900  24.237  0.00  0.00    +0.000 C 
ENDROOT
BRANCH   1   2
ATOM      2  C   UNL     1       9.251  -2.480  24.075  0.00  0.00    +0.000 A 
ATOM      3  C   UNL     1       8.786  -1.381  24.764  0.00  0.00    +0.000 A 
ATOM      4  C   UNL     1       9.438  -0.309  24.300  0.00  0.00    +0.000 A 
ATOM      5  C   UNL     1       9.091   0.890  24.856  0.00  0.00    +0.000 A 
ATOM      6  C   UNL     1       8.095   0.697  25.812  0.00  0.00    +0.000 A 
ATOM      7  N   UNL     1      10.324  -0.629  23.344  0.00  0.00    +0.000 N 
ATOM      8  H   UNL     1      10.952   0.017  22.820  0.00  0.00    +0.000 HD
ATOM      9 SE   UNL     1       7.561  -1.054  26.047  0.00  0.00    +0.000 Se
ATOM     10  C   UNL     1      10.214  -1.975  23.194  0.00  0.00    +0.000 A 
ENDBRANCH   1   2
BRANCH   1  11
ATOM     11  CA  UNL     1       9.151  -4.576  25.577  0.00  0.00    +0.000 C 
BRANCH  11  12
ATOM     12  N   UNL     1      10.115  -5.663  25.375  0.00  0.00    +0.000 NA
ATOM     13  H1  UNL     1       9.950  -6.143  24.461  0.00  0.00    +0.000 HD
ATOM     14  H2  UNL     1      11.088  -5.278  25.384  0.00  0.00    +0.000 HD
ENDBRANCH  11  12
BRANCH  11  15
ATOM     15  C   UNL     1       7.937  -5.059  26.342  0.00  0.00    +0.000 C 
ATOM     16  OXT UNL     1       6.813  -4.742  25.984  0.00  0.00    +0.000 OA
BRANCH  15  17
ATOM     17  O   UNL     1       8.078  -5.862  27.419  0.00  0.00    +0.000 OA
ATOM     18  H   UNL     1       7.397  -6.500  27.676  0.00  0.00    +0.000 HD
ENDBRANCH  15  17
ENDBRANCH  11  15
ENDBRANCH   1  11
TORSDOF 5
ENDMDL
MODEL 5
REMARK VINA RESULT:      -5.1      4.149      5.950
REMARK  Name = 
REMARK  5 active torsions:
REMARK  status: ('A' for Active; 'I' for Inactive)
REMARK    1  A    between atoms: N_1  and  CA_2
REMARK    2  A    between atoms: CA_2  and  C_4
REMARK    3  A    between atoms: CA_2  and  C_13
REMARK    4  A    between atoms: C_4  and  C_5
REMARK    5  A    between atoms: C_13  and  O_14
REMARK                            x       y       z     vdW  Elec       q    Type
REMARK                         _______ _______ _______ _____ _____    ______ ____
ROOT
ATOM      1  C   UNL     1       8.080  -0.341  22.957  0.00  0.00    +0.000 C 
ENDROOT
BRANCH   1   2
ATOM      2  C   UNL     1       8.407  -1.741  23.410  0.00  0.00    +0.000 A 
ATOM      3  C   UNL     1       7.698  -2.883  23.104  0.00  0.00    +0.000 A 
ATOM      4  C   UNL     1       8.290  -3.905  23.731  0.00  0.00    +0.000 A 
ATOM      5  C   UNL     1       7.708  -5.130  23.561  0.00  0.00    +0.000 A 
ATOM      6  C   UNL     1       6.588  -5.011  22.742  0.00  0.00    +0.000 A 
ATOM      7  N   UNL     1       9.366  -3.515  24.433  0.00  0.00    +0.000 N 
ATOM      8  H   UNL     1       9.996  -4.111  25.010  0.00  0.00    +0.000 HD
ATOM      9 SE   UNL     1       6.232  -3.302  22.141  0.00  0.00    +0.000 Se
ATOM     10  C   UNL     1       9.445  -2.172  24.244  0.00  0.00    +0.000 A 
ENDBRANCH   1   2
BRANCH   1  11
ATOM     11  CA  UNL     1       8.975   0.211  21.821  0.00  0.00    +0.000 C 
BRANCH  11  12
ATOM     12  N   UNL     1       9.660  -0.871  21.106  0.00  0.00    +0.000 NA
ATOM     13  H1  UNL     1      10.549  -0.528  20.675  0.00  0.00    +0.000 HD
ATOM     14  H2  UNL     1       9.882  -1.648  21.771  0.00  0.00    +0.000 HD
ENDBRANCH  11  12
BRANCH  11  15
ATOM     15  C   UNL     1       9.961   1.248  22.316  0.00  0.00    +0.000 C 
ATOM     16  OXT UNL     1      10.501   1.120  23.404  0.00  0.00    +0.000 OA
BRANCH  15  17
ATOM     17  O   UNL     1      10.271   2.319  21.554  0.00  0.00    +0.000 OA
ATOM     18  H   UNL     1       9.632   3.021  21.370  0.00  0.00    +0.000 HD
ENDBRANCH  15  17
ENDBRANCH  11  15
ENDBRANCH   1  11
TORSDOF 5
ENDMDL
MODEL 6
REMARK VINA RESULT:      -4.9      4.495      6.387
REMARK  Name = 
REMARK  5 active torsions:
REMARK  status: ('A' for Active; 'I' for Inactive)
REMARK    1  A    between atoms: N_1  and  CA_2
REMARK    2  A    between atoms: CA_2  and  C_4
REMARK    3  A    between atoms: CA_2  and  C_13
REMARK    4  A    between atoms: C_4  and  C_5
REMARK    5  A    between atoms: C_13  and  O_14
REMARK                            x       y       z     vdW  Elec       q    Type
REMARK                         _______ _______ _______ _____ _____    ______ ____
ROOT
ATOM      1  C   UNL     1      10.571   1.114  23.906  0.00  0.00    +0.000 C 
ENDROOT
BRANCH   1   2
ATOM      2  C   UNL     1      10.124  -0.323  23.820  0.00  0.00    +0.000 A 
ATOM      3  C   UNL     1       9.424  -1.017  24.783  0.00  0.00    +0.000 A 
ATOM      4  C   UNL     1       9.259  -2.268  24.339  0.00  0.00    +0.000 A 
ATOM      5  C   UNL     1       8.598  -3.120  25.178  0.00  0.00    +0.000 A 
ATOM      6  C   UNL     1       8.242  -2.450  26.347  0.00  0.00    +0.000 A 
ATOM      7  N   UNL     1       9.801  -2.449  23.124  0.00  0.00    +0.000 N 
ATOM      8  H   UNL     1       9.814  -3.326  22.561  0.00  0.00    +0.000 HD
ATOM      9 SE   UNL     1       8.740  -0.673  26.417  0.00  0.00    +0.000 Se
ATOM     10  C   UNL     1      10.343  -1.249  22.794  0.00  0.00    +0.000 A 
ENDBRANCH   1   2
BRANCH   1  11
ATOM     11  CA  UNL     1       9.707   2.124  23.114  0.00  0.00    +0.000 C 
BRANCH  11  12
ATOM     12  N   UNL     1      10.120   2.196  21.709  0.00  0.00    +0.000 NA
ATOM     13  H1  UNL     1       9.436   2.754  21.148  0.00  0.00    +0.000 HD
ATOM     14  H2  UNL     1      11.062   2.646  21.641  0.00  0.00    +0.000 HD
ENDBRANCH  11  12
BRANCH  11  15
ATOM     15  C   UNL     1       9.696   3.498  23.751  0.00  0.00    +0.000 C 
ATOM     16  OXT UNL     1       8.946   3.742  24.683  0.00  0.00    +0.000 OA
BRANCH  15  17
ATOM     17  O   UNL     1      10.530   4.465  23.312  0.00  0.00    +0.000 OA
ATOM     18  H   UNL     1      11.489   4.342  23.282  0.00  0.00    +0.000 HD
ENDBRANCH  15  17
ENDBRANCH  11  15
ENDBRANCH   1  11
TORSDOF 5
ENDMDL
MODEL 7
REMARK VINA RESULT:      -4.9      4.658      5.554
REMARK  Name = 
REMARK  5 active torsions:
REMARK  status: ('A' for Active; 'I' for Inactive)
REMARK    1  A    between atoms: N_1  and  CA_2
REMARK    2  A    between atoms: CA_2  and  C_4
REMARK    3  A    between atoms: CA_2  and  C_13
REMARK    4  A    between atoms: C_4  and  C_5
REMARK    5  A    between atoms: C_13  and  O_14
REMARK                            x       y       z     vdW  Elec       q    Type
REMARK                         _______ _______ _______ _____ _____    ______ ____
ROOT
ATOM      1  C   UNL     1       5.394  -4.963  26.819  0.00  0.00    +0.000 C 
ENDROOT
BRANCH   1   2
ATOM      2  C   UNL     1       5.300  -5.638  25.474  0.00  0.00    +0.000 A 
ATOM      3  C   UNL     1       5.904  -5.219  24.309  0.00  0.00    +0.000 A 
ATOM      4  C   UNL     1       5.540  -6.065  23.339  0.00  0.00    +0.000 A 
ATOM      5  C   UNL     1       6.030  -5.794  22.092  0.00  0.00    +0.000 A 
ATOM      6  C   UNL     1       6.822  -4.649  22.134  0.00  0.00    +0.000 A 
ATOM      7  N   UNL     1       4.734  -7.038  23.792  0.00  0.00    +0.000 N 
ATOM      8  H   UNL     1       4.309  -7.817  23.243  0.00  0.00    +0.000 HD
ATOM      9 SE   UNL     1       6.981  -3.865  23.799  0.00  0.00    +0.000 Se
ATOM     10  C   UNL     1       4.575  -6.781  25.116  0.00  0.00    +0.000 A 
ENDBRANCH   1   2
BRANCH   1  11
ATOM     11  CA  UNL     1       6.581  -5.414  27.703  0.00  0.00    +0.000 C 
BRANCH  11  12
ATOM     12  N   UNL     1       7.664  -5.984  26.895  0.00  0.00    +0.000 NA
ATOM     13  H1  UNL     1       8.226  -5.229  26.438  0.00  0.00    +0.000 HD
ATOM     14  H2  UNL     1       8.295  -6.555  27.503  0.00  0.00    +0.000 HD
ENDBRANCH  11  12
BRANCH  11  15
ATOM     15  C   UNL     1       6.155  -6.370  28.797  0.00  0.00    +0.000 C 
ATOM     16  OXT UNL     1       6.344  -6.091  29.971  0.00  0.00    +0.000 OA
BRANCH  15  17
ATOM     17  O   UNL     1       5.542  -7.534  28.491  0.00  0.00    +0.000 OA
ATOM     18  H   UNL     1       5.064  -7.660  27.660  0.00  0.00    +0.000 HD
ENDBRANCH  15  17
ENDBRANCH  11  15
ENDBRANCH   1  11
TORSDOF 5
ENDMDL
MODEL 8
REMARK VINA RESULT:      -4.9      3.625      3.969
REMARK  Name = 
REMARK  5 active torsions:
REMARK  status: ('A' for Active; 'I' for Inactive)
REMARK    1  A    between atoms: N_1  and  CA_2
REMARK    2  A    between atoms: CA_2  and  C_4
REMARK    3  A    between atoms: CA_2  and  C_13
REMARK    4  A    between atoms: C_4  and  C_5
REMARK    5  A    between atoms: C_13  and  O_14
REMARK                            x       y       z     vdW  Elec       q    Type
REMARK                         _______ _______ _______ _____ _____    ______ ____
ROOT
ATOM      1  C   UNL     1       7.045  -2.340  23.039  0.00  0.00    +0.000 C 
ENDROOT
BRANCH   1   2
ATOM      2  C   UNL     1       8.146  -1.447  22.526  0.00  0.00    +0.000 A 
ATOM      3  C   UNL     1       8.120  -0.070  22.473  0.00  0.00    +0.000 A 
ATOM      4  C   UNL     1       9.267   0.334  21.917  0.00  0.00    +0.000 A 
ATOM      5  C   UNL     1       9.415   1.683  21.759  0.00  0.00    +0.000 A 
ATOM      6  C   UNL     1       8.282   2.341  22.234  0.00  0.00    +0.000 A 
ATOM      7  N   UNL     1      10.069  -0.696  21.604  0.00  0.00    +0.000 N 
ATOM      8  H   UNL     1      11.012  -0.655  21.160  0.00  0.00    +0.000 HD
ATOM      9 SE   UNL     1       6.965   1.242  22.919  0.00  0.00    +0.000 Se
ATOM     10  C   UNL     1       9.381  -1.807  21.975  0.00  0.00    +0.000 A 
ENDBRANCH   1   2
BRANCH   1  11
ATOM     11  CA  UNL     1       6.712  -3.558  22.145  0.00  0.00    +0.000 C 
BRANCH  11  12
ATOM     12  N   UNL     1       5.266  -3.695  21.943  0.00  0.00    +0.000 NA
ATOM     13  H1  UNL     1       4.890  -2.894  21.387  0.00  0.00    +0.000 HD
ATOM     14  H2  UNL     1       5.064  -4.586  21.433  0.00  0.00    +0.000 HD
ENDBRANCH  11  12
BRANCH  11  15
ATOM     15  C   UNL     1       7.314  -4.843  22.675  0.00  0.00    +0.000 C 
ATOM     16  OXT UNL     1       7.999  -4.835  23.685  0.00  0.00    +0.000 OA
BRANCH  15  17
ATOM     17  O   UNL     1       7.083  -6.018  22.050  0.00  0.00    +0.000 OA
ATOM     18  H   UNL     1       7.410  -6.197  21.157  0.00  0.00    +0.000 HD
ENDBRANCH  15  17
ENDBRANCH  11  15
ENDBRANCH   1  11
TORSDOF 5
ENDMDL
MODEL 9
REMARK VINA RESULT:      -4.7      2.881      3.741
REMARK  Name = 
REMARK  5 active torsions:
REMARK  status: ('A' for Active; 'I' for Inactive)
REMARK    1  A    between atoms: N_1  and  CA_2
REMARK    2  A    between atoms: CA_2  and  C_4
REMARK    3  A    between atoms: CA_2  and  C_13
REMARK    4  A    between atoms: C_4  and  C_5
REMARK    5  A    between atoms: C_13  and  O_14
REMARK                            x       y       z     vdW  Elec       q    Type
REMARK                         _______ _______ _______ _____ _____    ______ ____
ROOT
ATOM      1  C   UNL     1       8.277  -1.290  22.863  0.00  0.00    +0.000 C 
ENDROOT
BRANCH   1   2
ATOM      2  C   UNL     1       8.667   0.140  22.589  0.00  0.00    +0.000 A 
ATOM      3  C   UNL     1       8.624   1.183  23.488  0.00  0.00    +0.000 A 
ATOM      4  C   UNL     1       9.010   2.289  22.843  0.00  0.00    +0.000 A 
ATOM      5  C   UNL     1       9.010   3.442  23.577  0.00  0.00    +0.000 A 
ATOM      6  C   UNL     1       8.585   3.175  24.876  0.00  0.00    +0.000 A 
ATOM      7  N   UNL     1       9.323   2.044  21.561  0.00  0.00    +0.000 N 
ATOM      8  H   UNL     1       9.646   2.729  20.845  0.00  0.00    +0.000 HD
ATOM      9 SE   UNL     1       8.170   1.408  25.219  0.00  0.00    +0.000 Se
ATOM     10  C   UNL     1       9.109   0.713  21.391  0.00  0.00    +0.000 A 
ENDBRANCH   1   2
BRANCH   1  11
ATOM     11  CA  UNL     1       9.346  -2.137  23.594  0.00  0.00    +0.000 C 
BRANCH  11  12
ATOM     12  N   UNL     1      10.592  -2.207  22.824  0.00  0.00    +0.000 NA
ATOM     13  H1  UNL     1      10.831  -1.275  22.416  0.00  0.00    +0.000 HD
ATOM     14  H2  UNL     1      11.374  -2.516  23.447  0.00  0.00    +0.000 HD
ENDBRANCH  11  12
BRANCH  11  15
ATOM     15  C   UNL     1       8.843  -3.522  23.946  0.00  0.00    +0.000 C 
ATOM     16  OXT UNL     1       7.698  -3.851  23.677  0.00  0.00    +0.000 OA
BRANCH  15  17
ATOM     17  O   UNL     1       9.658  -4.418  24.543  0.00  0.00    +0.000 OA
ATOM     18  H   UNL     1      10.096  -4.231  25.385  0.00  0.00    +0.000 HD
ENDBRANCH  15  17
ENDBRANCH  11  15
ENDBRANCH   1  11
TORSDOF 5
ENDMDL
