MODEL 1
REMARK VINA RESULT:      -5.3      0.000      0.000
REMARK  Name = 
REMARK  11 active torsions:
REMARK  status: ('A' for Active; 'I' for Inactive)
REMARK    1  A    between atoms: N_1  and  CA_2
REMARK    2  A    between atoms: CA_2  and  C_4
REMARK    3  A    between atoms: CA_2  and  C_15
REMARK    4  A    between atoms: C_4  and  C_5
REMARK    5  A    between atoms: C_5  and  C_6
REMARK    6  A    between atoms: C_6  and  N_7
REMARK    7  A    between atoms: C_8  and  C_10
REMARK    8  A    between atoms: C_10  and  P_11
REMARK    9  A    between atoms: P_11  and  O_12
REMARK   10  A    between atoms: P_11  and  O_13
REMARK   11  A    between atoms: C_15  and  O_16
REMARK                            x       y       z     vdW  Elec       q    Type
REMARK                         _______ _______ _______ _____ _____    ______ ____
ROOT
ATOM      1  C   UNL     1       8.618  -2.695  23.865  0.00  0.00    +0.104 C 
ENDROOT
BRANCH   1   2
ATOM      2  N   UNL     1       8.613  -1.451  23.106  0.00  0.00    -0.315 N 
ATOM      3  H   UNL     1       7.711  -1.078  22.822  0.00  0.00    +0.149 HD
ATOM      4  C   UNL     1       9.680  -1.110  22.300  0.00  0.00    +0.225 C 
ATOM      5  O   UNL     1      10.718  -1.767  22.232  0.00  0.00    -0.275 OA
BRANCH   4   6
ATOM      6  C   UNL     1       9.465   0.109  21.459  0.00  0.00    +0.222 C 
BRANCH   6   7
ATOM      7  P   UNL     1       9.356   1.521  22.617  0.00  0.00    +0.337 P 
ATOM      8  O   UNL     1       9.263   2.717  23.597  0.00  0.00    -0.258 OA
BRANCH   7   9
ATOM      9  O   UNL     1      10.293   2.336  21.543  0.00  0.00    -0.324 OA
ATOM     10  H   UNL     1      10.025   2.109  20.632  0.00  0.00    +0.220 HD
ENDBRANCH   7   9
BRANCH   7  11
ATOM     11  O   UNL     1      10.543   0.822  23.515  0.00  0.00    -0.324 OA
ATOM     12  H   UNL     1      10.239  -0.090  23.708  0.00  0.00    +0.220 HD
ENDBRANCH   7  11
ENDBRANCH   6   7
ENDBRANCH   4   6
ENDBRANCH   1   2
BRANCH   1  13
ATOM     13  C   UNL     1       7.811  -3.778  23.159  0.00  0.00    +0.021 C 
BRANCH  13  14
ATOM     14  C   UNL     1       7.996  -5.127  23.846  0.00  0.00    +0.031 C 
BRANCH  14  15
ATOM     15  CA  UNL     1       8.530  -5.016  25.277  0.00  0.00    +0.161 C 
BRANCH  15  16
ATOM     16  N   UNL     1       9.736  -5.873  25.499  0.00  0.00    -0.318 NA
ATOM     17  H1  UNL     1       9.838  -6.503  24.695  0.00  0.00    +0.119 HD
ATOM     18  H2  UNL     1      10.565  -5.273  25.452  0.00  0.00    +0.119 HD
ENDBRANCH  15  16
BRANCH  15  19
ATOM     19  C   UNL     1       7.438  -5.446  26.281  0.00  0.00    +0.322 C 
ATOM     20  OXT UNL     1       6.240  -5.452  26.062  0.00  0.00    -0.249 OA
BRANCH  19  21
ATOM     21  O   UNL     1       7.990  -5.824  27.465  0.00  0.00    -0.480 OA
ATOM     22  H   UNL     1       8.145  -4.982  27.965  0.00  0.00    +0.295 HD
ENDBRANCH  19  21
ENDBRANCH  15  19
ENDBRANCH  14  15
ENDBRANCH  13  14
ENDBRANCH   1  13
TORSDOF 11
ENDMDL
MODEL 2
REMARK VINA RESULT:      -5.2      4.404      5.657
REMARK  Name = 
REMARK  11 active torsions:
REMARK  status: ('A' for Active; 'I' for Inactive)
REMARK    1  A    between atoms: N_1  and  CA_2
REMARK    2  A    between atoms: CA_2  and  C_4
REMARK    3  A    between atoms: CA_2  and  C_15
REMARK    4  A    between atoms: C_4  and  C_5
REMARK    5  A    between atoms: C_5  and  C_6
REMARK    6  A    between atoms: C_6  and  N_7
REMARK    7  A    between atoms: C_8  and  C_10
REMARK    8  A    between atoms: C_10  and  P_11
REMARK    9  A    between atoms: P_11  and  O_12
REMARK   10  A    between atoms: P_11  and  O_13
REMARK   11  A    between atoms: C_15  and  O_16
REMARK                            x       y       z     vdW  Elec       q    Type
REMARK                         _______ _______ _______ _____ _____    ______ ____
ROOT
ATOM      1  C   UNL     1       8.016  -2.971  22.965  0.00  0.00    +0.104 C 
ENDROOT
BRANCH   1   2
ATOM      2  N   UNL     1       7.335  -4.258  22.927  0.00  0.00    -0.315 N 
ATOM      3  H   UNL     1       7.910  -5.095  22.982  0.00  0.00    +0.149 HD
ATOM      4  C   UNL     1       6.132  -4.403  22.266  0.00  0.00    +0.225 C 
ATOM      5  O   UNL     1       5.522  -3.467  21.751  0.00  0.00    -0.275 OA
BRANCH   4   6
ATOM      6  C   UNL     1       5.635  -5.812  22.172  0.00  0.00    +0.222 C 
BRANCH   6   7
ATOM      7  P   UNL     1       4.086  -5.877  23.144  0.00  0.00    +0.337 P 
ATOM      8  O   UNL     1       2.775  -5.932  23.966  0.00  0.00    -0.258 OA
BRANCH   7   9
ATOM      9  O   UNL     1       4.764  -4.726  24.099  0.00  0.00    -0.324 OA
ATOM     10  H   UNL     1       5.707  -4.932  24.247  0.00  0.00    +0.220 HD
ENDBRANCH   7   9
BRANCH   7  11
ATOM     11  O   UNL     1       4.668  -7.215  23.902  0.00  0.00    -0.324 OA
ATOM     12  H   UNL     1       4.167  -7.294  24.741  0.00  0.00    +0.220 HD
ENDBRANCH   7  11
ENDBRANCH   6   7
ENDBRANCH   4   6
ENDBRANCH   1   2
BRANCH   1  13
ATOM     13  C   UNL     1       9.161  -2.979  23.970  0.00  0.00    +0.021 C 
BRANCH  13  14
ATOM     14  C   UNL     1       8.645  -3.257  25.379  0.00  0.00    +0.031 C 
BRANCH  14  15
ATOM     15  CA  UNL     1       9.045  -4.636  25.914  0.00  0.00    +0.161 C 
BRANCH  15  16
ATOM     16  N   UNL     1       9.786  -5.445  24.898  0.00  0.00    -0.318 NA
ATOM     17  H1  UNL     1       9.181  -5.568  24.078  0.00  0.00    +0.119 HD
ATOM     18  H2  UNL     1      10.567  -4.880  24.550  0.00  0.00    +0.119 HD
ENDBRANCH  15  16
BRANCH  15  19
ATOM     19  C   UNL     1       7.783  -5.422  26.334  0.00  0.00    +0.322 C 
ATOM     20  OXT UNL     1       6.805  -5.615  25.633  0.00  0.00    -0.249 OA
BRANCH  19  21
ATOM     21  O   UNL     1       7.901  -5.882  27.608  0.00  0.00    -0.480 OA
ATOM     22  H   UNL     1       8.824  -5.652  27.888  0.00  0.00    +0.295 HD
ENDBRANCH  19  21
ENDBRANCH  15  19
ENDBRANCH  14  15
ENDBRANCH  13  14
ENDBRANCH   1  13
TORSDOF 11
ENDMDL
MODEL 3
REMARK VINA RESULT:      -5.2      2.762      6.788
REMARK  Name = 
REMARK  11 active torsions:
REMARK  status: ('A' for Active; 'I' for Inactive)
REMARK    1  A    between atoms: N_1  and  CA_2
REMARK    2  A    between atoms: CA_2  and  C_4
REMARK    3  A    between atoms: CA_2  and  C_15
REMARK    4  A    between atoms: C_4  and  C_5
REMARK    5  A    between atoms: C_5  and  C_6
REMARK    6  A    between atoms: C_6  and  N_7
REMARK    7  A    between atoms: C_8  and  C_10
REMARK    8  A    between atoms: C_10  and  P_11
REMARK    9  A    between atoms: P_11  and  O_12
REMARK   10  A    between atoms: P_11  and  O_13
REMARK   11  A    between atoms: C_15  and  O_16
REMARK                            x       y       z     vdW  Elec       q    Type
REMARK                         _______ _______ _______ _____ _____    ______ ____
ROOT
ATOM      1  C   UNL     1       9.907  -1.913  23.846  0.00  0.00    +0.104 C 
ENDROOT
BRANCH   1   2
ATOM      2  N   UNL     1       8.768  -2.819  23.916  0.00  0.00    -0.315 N 
ATOM      3  H   UNL     1       7.843  -2.404  24.000  0.00  0.00    +0.149 HD
ATOM      4  C   UNL     1       8.904  -4.087  24.441  0.00  0.00    +0.225 C 
ATOM      5  O   UNL     1       9.980  -4.564  24.799  0.00  0.00    -0.275 OA
BRANCH   4   6
ATOM      6  C   UNL     1       7.620  -4.842  24.598  0.00  0.00    +0.222 C 
BRANCH   6   7
ATOM      7  P   UNL     1       7.280  -4.912  26.394  0.00  0.00    +0.337 P 
ATOM      8  O   UNL     1       6.993  -4.971  27.915  0.00  0.00    -0.258 OA
BRANCH   7   9
ATOM      9  O   UNL     1       8.148  -3.523  26.503  0.00  0.00    -0.324 OA
ATOM     10  H   UNL     1       8.853  -3.625  27.172  0.00  0.00    +0.220 HD
ENDBRANCH   7   9
BRANCH   7  11
ATOM     11  O   UNL     1       8.510  -5.995  26.541  0.00  0.00    -0.324 OA
ATOM     12  H   UNL     1       8.143  -6.864  26.272  0.00  0.00    +0.220 HD
ENDBRANCH   7  11
ENDBRANCH   6   7
ENDBRANCH   4   6
ENDBRANCH   1   2
BRANCH   1  13
ATOM     13  C   UNL     1       9.742  -0.741  24.807  0.00  0.00    +0.021 C 
BRANCH  13  14
ATOM     14  C   UNL     1      10.410   0.513  24.252  0.00  0.00    +0.031 C 
BRANCH  14  15
ATOM     15  CA  UNL     1       9.442   1.446  23.516  0.00  0.00    +0.161 C 
BRANCH  15  16
ATOM     16  N   UNL     1       8.011   1.102  23.784  0.00  0.00    -0.318 NA
ATOM     17  H1  UNL     1       7.464   1.971  23.785  0.00  0.00    +0.119 HD
ATOM     18  H2  UNL     1       7.652   0.583  22.977  0.00  0.00    +0.119 HD
ENDBRANCH  15  16
BRANCH  15  19
ATOM     19  C   UNL     1       9.684   1.359  21.993  0.00  0.00    +0.322 C 
ATOM     20  OXT UNL     1       9.279   0.472  21.262  0.00  0.00    -0.249 OA
BRANCH  19  21
ATOM     21  O   UNL     1      10.421   2.416  21.559  0.00  0.00    -0.480 OA
ATOM     22  H   UNL     1       9.775   3.158  21.441  0.00  0.00    +0.295 HD
ENDBRANCH  19  21
ENDBRANCH  15  19
ENDBRANCH  14  15
ENDBRANCH  13  14
ENDBRANCH   1  13
TORSDOF 11
ENDMDL
MODEL 4
REMARK VINA RESULT:      -5.1      2.790      6.721
REMARK  Name = 
REMARK  11 active torsions:
REMARK  status: ('A' for Active; 'I' for Inactive)
REMARK    1  A    between atoms: N_1  and  CA_2
REMARK    2  A    between atoms: CA_2  and  C_4
REMARK    3  A    between atoms: CA_2  and  C_15
REMARK    4  A    between atoms: C_4  and  C_5
REMARK    5  A    between atoms: C_5  and  C_6
REMARK    6  A    between atoms: C_6  and  N_7
REMARK    7  A    between atoms: C_8  and  C_10
REMARK    8  A    between atoms: C_10  and  P_11
REMARK    9  A    between atoms: P_11  and  O_12
REMARK   10  A    between atoms: P_11  and  O_13
REMARK   11  A    between atoms: C_15  and  O_16
REMARK                            x       y       z     vdW  Elec       q    Type
REMARK                         _______ _______ _______ _____ _____    ______ ____
ROOT
ATOM      1  C   UNL     1       9.578  -2.413  22.950  0.00  0.00    +0.104 C 
ENDROOT
BRANCH   1   2
ATOM      2  N   UNL     1       8.828  -2.576  24.188  0.00  0.00    -0.315 N 
ATOM      3  H   UNL     1       8.446  -1.738  24.620  0.00  0.00    +0.149 HD
ATOM      4  C   UNL     1       9.101  -3.619  25.049  0.00  0.00    +0.225 C 
ATOM      5  O   UNL     1       9.913  -4.510  24.803  0.00  0.00    -0.275 OA
BRANCH   4   6
ATOM      6  C   UNL     1       8.366  -3.565  26.352  0.00  0.00    +0.222 C 
BRANCH   6   7
ATOM      7  P   UNL     1       7.200  -4.975  26.345  0.00  0.00    +0.337 P 
ATOM      8  O   UNL     1       6.213  -6.169  26.338  0.00  0.00    -0.258 OA
BRANCH   7   9
ATOM      9  O   UNL     1       8.511  -5.921  26.630  0.00  0.00    -0.324 OA
ATOM     10  H   UNL     1       8.940  -6.156  25.785  0.00  0.00    +0.220 HD
ENDBRANCH   7   9
BRANCH   7  11
ATOM     11  O   UNL     1       7.252  -4.954  24.701  0.00  0.00    -0.324 OA
ATOM     12  H   UNL     1       7.039  -4.035  24.432  0.00  0.00    +0.220 HD
ENDBRANCH   7  11
ENDBRANCH   6   7
ENDBRANCH   4   6
ENDBRANCH   1   2
BRANCH   1  13
ATOM     13  C   UNL     1       8.890  -1.432  22.009  0.00  0.00    +0.021 C 
BRANCH  13  14
ATOM     14  C   UNL     1       9.788  -0.233  21.723  0.00  0.00    +0.031 C 
BRANCH  14  15
ATOM     15  CA  UNL     1       9.308   1.062  22.386  0.00  0.00    +0.161 C 
BRANCH  15  16
ATOM     16  N   UNL     1       9.688   2.275  21.599  0.00  0.00    -0.318 NA
ATOM     17  H1  UNL     1       8.833   2.689  21.208  0.00  0.00    +0.119 HD
ATOM     18  H2  UNL     1      10.032   2.984  22.254  0.00  0.00    +0.119 HD
ENDBRANCH  15  16
BRANCH  15  19
ATOM     19  C   UNL     1       9.921   1.188  23.798  0.00  0.00    +0.322 C 
ATOM     20  OXT UNL     1      10.962   1.761  24.068  0.00  0.00    -0.249 OA
BRANCH  19  21
ATOM     21  O   UNL     1       9.140   0.567  24.722  0.00  0.00    -0.480 OA
ATOM     22  H   UNL     1       8.242   0.977  24.627  0.00  0.00    +0.295 HD
ENDBRANCH  19  21
ENDBRANCH  15  19
ENDBRANCH  14  15
ENDBRANCH  13  14
ENDBRANCH   1  13
TORSDOF 11
ENDMDL
MODEL 5
REMARK VINA RESULT:      -5.1      3.338      6.882
REMARK  Name = 
REMARK  11 active torsions:
REMARK  status: ('A' for Active; 'I' for Inactive)
REMARK    1  A    between atoms: N_1  and  CA_2
REMARK    2  A    between atoms: CA_2  and  C_4
REMARK    3  A    between atoms: CA_2  and  C_15
REMARK    4  A    between atoms: C_4  and  C_5
REMARK    5  A    between atoms: C_5  and  C_6
REMARK    6  A    between atoms: C_6  and  N_7
REMARK    7  A    between atoms: C_8  and  C_10
REMARK    8  A    between atoms: C_10  and  P_11
REMARK    9  A    between atoms: P_11  and  O_12
REMARK   10  A    between atoms: P_11  and  O_13
REMARK   11  A    between atoms: C_15  and  O_16
REMARK                            x       y       z     vdW  Elec       q    Type
REMARK                         _______ _______ _______ _____ _____    ______ ____
ROOT
ATOM      1  C   UNL     1       9.530  -2.602  23.724  0.00  0.00    +0.104 C 
ENDROOT
BRANCH   1   2
ATOM      2  N   UNL     1       8.194  -3.106  23.433  0.00  0.00    -0.315 N 
ATOM      3  H   UNL     1       7.417  -2.456  23.524  0.00  0.00    +0.149 HD
ATOM      4  C   UNL     1       7.884  -4.437  23.623  0.00  0.00    +0.225 C 
ATOM      5  O   UNL     1       8.708  -5.287  23.957  0.00  0.00    -0.275 OA
BRANCH   4   6
ATOM      6  C   UNL     1       6.437  -4.776  23.441  0.00  0.00    +0.222 C 
BRANCH   6   7
ATOM      7  P   UNL     1       6.225  -5.196  21.673  0.00  0.00    +0.337 P 
ATOM      8  O   UNL     1       6.046  -5.551  20.176  0.00  0.00    -0.258 OA
BRANCH   7   9
ATOM      9  O   UNL     1       5.643  -3.671  21.491  0.00  0.00    -0.324 OA
ATOM     10  H   UNL     1       4.667  -3.690  21.474  0.00  0.00    +0.220 HD
ENDBRANCH   7   9
BRANCH   7  11
ATOM     11  O   UNL     1       4.823  -5.961  22.066  0.00  0.00    -0.324 OA
ATOM     12  H   UNL     1       4.323  -5.339  22.637  0.00  0.00    +0.220 HD
ENDBRANCH   7  11
ENDBRANCH   6   7
ENDBRANCH   4   6
ENDBRANCH   1   2
BRANCH   1  13
ATOM     13  C   UNL     1       9.999  -1.625  22.652  0.00  0.00    +0.021 C 
BRANCH  13  14
ATOM     14  C   UNL     1       9.439  -0.229  22.907  0.00  0.00    +0.031 C 
BRANCH  14  15
ATOM     15  CA  UNL     1      10.444   0.722  23.564  0.00  0.00    +0.161 C 
BRANCH  15  16
ATOM     16  N   UNL     1      10.248   0.818  25.043  0.00  0.00    -0.318 NA
ATOM     17  H1  UNL     1       9.259   1.028  25.226  0.00  0.00    +0.119 HD
ATOM     18  H2  UNL     1      10.382  -0.116  25.443  0.00  0.00    +0.119 HD
ENDBRANCH  15  16
BRANCH  15  19
ATOM     19  C   UNL     1      10.300   2.137  22.962  0.00  0.00    +0.322 C 
ATOM     20  OXT UNL     1      10.357   3.181  23.589  0.00  0.00    -0.249 OA
BRANCH  19  21
ATOM     21  O   UNL     1      10.096   2.073  21.620  0.00  0.00    -0.480 OA
ATOM     22  H   UNL     1      10.030   3.015  21.317  0.00  0.00    +0.295 HD
ENDBRANCH  19  21
ENDBRANCH  15  19
ENDBRANCH  14  15
ENDBRANCH  13  14
ENDBRANCH   1  13
TORSDOF 11
ENDMDL
MODEL 6
REMARK VINA RESULT:      -5.1      3.243      6.369
REMARK  Name = 
REMARK  11 active torsions:
REMARK  status: ('A' for Active; 'I' for Inactive)
REMARK    1  A    between atoms: N_1  and  CA_2
REMARK    2  A    between atoms: CA_2  and  C_4
REMARK    3  A    between atoms: CA_2  and  C_15
REMARK    4  A    between atoms: C_4  and  C_5
REMARK    5  A    between atoms: C_5  and  C_6
REMARK    6  A    between atoms: C_6  and  N_7
REMARK    7  A    between atoms: C_8  and  C_10
REMARK    8  A    between atoms: C_10  and  P_11
REMARK    9  A    between atoms: P_11  and  O_12
REMARK   10  A    between atoms: P_11  and  O_13
REMARK   11  A    between atoms: C_15  and  O_16
REMARK                            x       y       z     vdW  Elec       q    Type
REMARK                         _______ _______ _______ _____ _____    ______ ____
ROOT
ATOM      1  C   UNL     1       8.939  -0.129  25.787  0.00  0.00    +0.104 C 
ENDROOT
BRANCH   1   2
ATOM      2  N   UNL     1       9.098  -1.472  26.329  0.00  0.00    -0.315 N 
ATOM      3  H   UNL     1      10.036  -1.763  26.594  0.00  0.00    +0.149 HD
ATOM      4  C   UNL     1       8.239  -2.489  25.966  0.00  0.00    +0.225 C 
ATOM      5  O   UNL     1       7.253  -2.322  25.249  0.00  0.00    -0.275 OA
BRANCH   4   6
ATOM      6  C   UNL     1       8.622  -3.844  26.472  0.00  0.00    +0.222 C 
BRANCH   6   7
ATOM      7  P   UNL     1       8.807  -4.911  24.997  0.00  0.00    +0.337 P 
ATOM      8  O   UNL     1       8.964  -5.813  23.748  0.00  0.00    -0.258 OA
BRANCH   7   9
ATOM      9  O   UNL     1      10.080  -5.590  25.780  0.00  0.00    -0.324 OA
ATOM     10  H   UNL     1       9.762  -6.289  26.383  0.00  0.00    +0.220 HD
ENDBRANCH   7   9
BRANCH   7  11
ATOM     11  O   UNL     1       9.594  -3.673  24.253  0.00  0.00    -0.324 OA
ATOM     12  H   UNL     1      10.202  -4.086  23.603  0.00  0.00    +0.220 HD
ENDBRANCH   7  11
ENDBRANCH   6   7
ENDBRANCH   4   6
ENDBRANCH   1   2
BRANCH   1  13
ATOM     13  C   UNL     1      10.137   0.271  24.935  0.00  0.00    +0.021 C 
BRANCH  13  14
ATOM     14  C   UNL     1       9.724   1.253  23.844  0.00  0.00    +0.031 C 
BRANCH  14  15
ATOM     15  CA  UNL     1      10.038   0.761  22.427  0.00  0.00    +0.161 C 
BRANCH  15  16
ATOM     16  N   UNL     1       9.546   1.705  21.378  0.00  0.00    -0.318 NA
ATOM     17  H1  UNL     1       9.474   1.195  20.490  0.00  0.00    +0.119 HD
ATOM     18  H2  UNL     1       8.577   1.953  21.602  0.00  0.00    +0.119 HD
ENDBRANCH  15  16
BRANCH  15  19
ATOM     19  C   UNL     1       9.376  -0.615  22.190  0.00  0.00    +0.322 C 
ATOM     20  OXT UNL     1       8.186  -0.854  22.295  0.00  0.00    -0.249 OA
BRANCH  19  21
ATOM     21  O   UNL     1      10.304  -1.546  21.844  0.00  0.00    -0.480 OA
ATOM     22  H   UNL     1       9.831  -2.416  21.876  0.00  0.00    +0.295 HD
ENDBRANCH  19  21
ENDBRANCH  15  19
ENDBRANCH  14  15
ENDBRANCH  13  14
ENDBRANCH   1  13
TORSDOF 11
ENDMDL
MODEL 7
REMARK VINA RESULT:      -5.0      1.972      2.322
REMARK  Name = 
REMARK  11 active torsions:
REMARK  status: ('A' for Active; 'I' for Inactive)
REMARK    1  A    between atoms: N_1  and  CA_2
REMARK    2  A    between atoms: CA_2  and  C_4
REMARK    3  A    between atoms: CA_2  and  C_15
REMARK    4  A    between atoms: C_4  and  C_5
REMARK    5  A    between atoms: C_5  and  C_6
REMARK    6  A    between atoms: C_6  and  N_7
REMARK    7  A    between atoms: C_8  and  C_10
REMARK    8  A    between atoms: C_10  and  P_11
REMARK    9  A    between atoms: P_11  and  O_12
REMARK   10  A    between atoms: P_11  and  O_13
REMARK   11  A    between atoms: C_15  and  O_16
REMARK                            x       y       z     vdW  Elec       q    Type
REMARK                         _______ _______ _______ _____ _____    ______ ____
ROOT
ATOM      1  C   UNL     1       9.533  -2.036  24.416  0.00  0.00    +0.104 C 
ENDROOT
BRANCH   1   2
ATOM      2  N   UNL     1       9.897  -0.633  24.564  0.00  0.00    -0.315 N 
ATOM      3  H   UNL     1       9.475  -0.117  25.332  0.00  0.00    +0.149 HD
ATOM      4  C   UNL     1      10.266   0.122  23.469  0.00  0.00    +0.225 C 
ATOM      5  O   UNL     1      10.394  -0.340  22.336  0.00  0.00    -0.275 OA
BRANCH   4   6
ATOM      6  C   UNL     1      10.452   1.581  23.748  0.00  0.00    +0.222 C 
BRANCH   6   7
ATOM      7  P   UNL     1       9.071   2.445  22.917  0.00  0.00    +0.337 P 
ATOM      8  O   UNL     1       7.901   3.176  22.213  0.00  0.00    -0.258 OA
BRANCH   7   9
ATOM      9  O   UNL     1       8.240   1.038  23.071  0.00  0.00    -0.324 OA
ATOM     10  H   UNL     1       8.292   0.722  23.993  0.00  0.00    +0.220 HD
ENDBRANCH   7   9
BRANCH   7  11
ATOM     11  O   UNL     1       9.809   2.151  21.477  0.00  0.00    -0.324 OA
ATOM     12  H   UNL     1      10.484   2.854  21.366  0.00  0.00    +0.220 HD
ENDBRANCH   7  11
ENDBRANCH   6   7
ENDBRANCH   4   6
ENDBRANCH   1   2
BRANCH   1  13
ATOM     13  C   UNL     1       8.260  -2.363  25.186  0.00  0.00    +0.021 C 
BRANCH  13  14
ATOM     14  C   UNL     1       8.547  -3.345  26.317  0.00  0.00    +0.031 C 
BRANCH  14  15
ATOM     15  CA  UNL     1       8.086  -4.775  26.016  0.00  0.00    +0.161 C 
BRANCH  15  16
ATOM     16  N   UNL     1       8.131  -5.651  27.227  0.00  0.00    -0.318 NA
ATOM     17  H1  UNL     1       7.970  -5.067  28.056  0.00  0.00    +0.119 HD
ATOM     18  H2  UNL     1       7.318  -6.274  27.199  0.00  0.00    +0.119 HD
ENDBRANCH  15  16
BRANCH  15  19
ATOM     19  C   UNL     1       8.989  -5.401  24.930  0.00  0.00    +0.322 C 
ATOM     20  OXT UNL     1       8.654  -5.639  23.783  0.00  0.00    -0.249 OA
BRANCH  19  21
ATOM     21  O   UNL     1      10.230  -5.659  25.423  0.00  0.00    -0.480 OA
ATOM     22  H   UNL     1      10.100  -6.356  26.115  0.00  0.00    +0.295 HD
ENDBRANCH  19  21
ENDBRANCH  15  19
ENDBRANCH  14  15
ENDBRANCH  13  14
ENDBRANCH   1  13
TORSDOF 11
ENDMDL
MODEL 8
REMARK VINA RESULT:      -5.0      1.974      2.480
REMARK  Name = 
REMARK  11 active torsions:
REMARK  status: ('A' for Active; 'I' for Inactive)
REMARK    1  A    between atoms: N_1  and  CA_2
REMARK    2  A    between atoms: CA_2  and  C_4
REMARK    3  A    between atoms: CA_2  and  C_15
REMARK    4  A    between atoms: C_4  and  C_5
REMARK    5  A    between atoms: C_5  and  C_6
REMARK    6  A    between atoms: C_6  and  N_7
REMARK    7  A    between atoms: C_8  and  C_10
REMARK    8  A    between atoms: C_10  and  P_11
REMARK    9  A    between atoms: P_11  and  O_12
REMARK   10  A    between atoms: P_11  and  O_13
REMARK   11  A    between atoms: C_15  and  O_16
REMARK                            x       y       z     vdW  Elec       q    Type
REMARK                         _______ _______ _______ _____ _____    ______ ____
ROOT
ATOM      1  C   UNL     1       7.526  -4.112  22.741  0.00  0.00    +0.104 C 
ENDROOT
BRANCH   1   2
ATOM      2  N   UNL     1       8.065  -2.839  23.201  0.00  0.00    -0.315 N 
ATOM      3  H   UNL     1       7.842  -2.010  22.654  0.00  0.00    +0.149 HD
ATOM      4  C   UNL     1       9.247  -2.785  23.910  0.00  0.00    +0.225 C 
ATOM      5  O   UNL     1       9.870  -3.784  24.271  0.00  0.00    -0.275 OA
BRANCH   4   6
ATOM      6  C   UNL     1       9.759  -1.404  24.172  0.00  0.00    +0.222 C 
BRANCH   6   7
ATOM      7  P   UNL     1       9.564  -0.477  22.607  0.00  0.00    +0.337 P 
ATOM      8  O   UNL     1       9.399   0.308  21.282  0.00  0.00    -0.258 OA
BRANCH   7   9
ATOM      9  O   UNL     1      10.534  -1.618  21.935  0.00  0.00    -0.324 OA
ATOM     10  H   UNL     1      11.418  -1.240  21.762  0.00  0.00    +0.220 HD
ENDBRANCH   7   9
BRANCH   7  11
ATOM     11  O   UNL     1      10.721   0.568  23.131  0.00  0.00    -0.324 OA
ATOM     12  H   UNL     1      10.268   1.202  23.727  0.00  0.00    +0.220 HD
ENDBRANCH   7  11
ENDBRANCH   6   7
ENDBRANCH   4   6
ENDBRANCH   1   2
BRANCH   1  13
ATOM     13  C   UNL     1       6.221  -4.450  23.450  0.00  0.00    +0.021 C 
BRANCH  13  14
ATOM     14  C   UNL     1       6.450  -5.489  24.544  0.00  0.00    +0.031 C 
BRANCH  14  15
ATOM     15  CA  UNL     1       6.334  -4.919  25.961  0.00  0.00    +0.161 C 
BRANCH  15  16
ATOM     16  N   UNL     1       6.435  -3.427  25.982  0.00  0.00    -0.318 NA
ATOM     17  H1  UNL     1       7.339  -3.158  25.575  0.00  0.00    +0.119 HD
ATOM     18  H2  UNL     1       5.744  -3.053  25.324  0.00  0.00    +0.119 HD
ENDBRANCH  15  16
BRANCH  15  19
ATOM     19  C   UNL     1       7.458  -5.494  26.852  0.00  0.00    +0.322 C 
ATOM     20  OXT UNL     1       7.329  -5.852  28.009  0.00  0.00    -0.249 OA
BRANCH  19  21
ATOM     21  O   UNL     1       8.633  -5.553  26.170  0.00  0.00    -0.480 OA
ATOM     22  H   UNL     1       9.333  -5.308  26.829  0.00  0.00    +0.295 HD
ENDBRANCH  19  21
ENDBRANCH  15  19
ENDBRANCH  14  15
ENDBRANCH  13  14
ENDBRANCH   1  13
TORSDOF 11
ENDMDL
MODEL 9
REMARK VINA RESULT:      -4.9      3.036      5.895
REMARK  Name = 
REMARK  11 active torsions:
REMARK  status: ('A' for Active; 'I' for Inactive)
REMARK    1  A    between atoms: N_1  and  CA_2
REMARK    2  A    between atoms: CA_2  and  C_4
REMARK    3  A    between atoms: CA_2  and  C_15
REMARK    4  A    between atoms: C_4  and  C_5
REMARK    5  A    between atoms: C_5  and  C_6
REMARK    6  A    between atoms: C_6  and  N_7
REMARK    7  A    between atoms: C_8  and  C_10
REMARK    8  A    between atoms: C_10  and  P_11
REMARK    9  A    between atoms: P_11  and  O_12
REMARK   10  A    between atoms: P_11  and  O_13
REMARK   11  A    between atoms: C_15  and  O_16
REMARK                            x       y       z     vdW  Elec       q    Type
REMARK                         _______ _______ _______ _____ _____    ______ ____
ROOT
ATOM      1  C   UNL     1       8.565  -3.126  25.852  0.00  0.00    +0.104 C 
ENDROOT
BRANCH   1   2
ATOM      2  N   UNL     1       7.472  -3.721  25.095  0.00  0.00    -0.315 N 
ATOM      3  H   UNL     1       6.533  -3.629  25.475  0.00  0.00    +0.149 HD
ATOM      4  C   UNL     1       7.685  -4.823  24.292  0.00  0.00    +0.225 C 
ATOM      5  O   UNL     1       8.794  -5.316  24.094  0.00  0.00    -0.275 OA
BRANCH   4   6
ATOM      6  C   UNL     1       6.444  -5.422  23.708  0.00  0.00    +0.222 C 
BRANCH   6   7
ATOM      7  P   UNL     1       6.005  -4.389  22.263  0.00  0.00    +0.337 P 
ATOM      8  O   UNL     1       5.633  -3.515  21.040  0.00  0.00    -0.258 OA
BRANCH   7   9
ATOM      9  O   UNL     1       7.562  -3.870  22.297  0.00  0.00    -0.324 OA
ATOM     10  H   UNL     1       7.600  -2.964  22.660  0.00  0.00    +0.220 HD
ENDBRANCH   7   9
BRANCH   7  11
ATOM     11  O   UNL     1       5.346  -3.294  23.299  0.00  0.00    -0.324 OA
ATOM     12  H   UNL     1       5.932  -3.276  24.086  0.00  0.00    +0.220 HD
ENDBRANCH   7  11
ENDBRANCH   6   7
ENDBRANCH   4   6
ENDBRANCH   1   2
BRANCH   1  13
ATOM     13  C   UNL     1       8.691  -1.634  25.565  0.00  0.00    +0.021 C 
BRANCH  13  14
ATOM     14  C   UNL     1       9.401  -1.395  24.236  0.00  0.00    +0.031 C 
BRANCH  14  15
ATOM     15  CA  UNL     1       8.606  -0.514  23.268  0.00  0.00    +0.161 C 
BRANCH  15  16
ATOM     16  N   UNL     1       7.209  -1.010  23.068  0.00  0.00    -0.318 NA
ATOM     17  H1  UNL     1       7.041  -1.779  23.728  0.00  0.00    +0.119 HD
ATOM     18  H2  UNL     1       6.564  -0.275  23.374  0.00  0.00    +0.119 HD
ENDBRANCH  15  16
BRANCH  15  19
ATOM     19  C   UNL     1       9.308  -0.477  21.893  0.00  0.00    +0.322 C 
ATOM     20  OXT UNL     1       9.492   0.522  21.220  0.00  0.00    -0.249 OA
BRANCH  19  21
ATOM     21  O   UNL     1       9.704  -1.723  21.518  0.00  0.00    -0.480 OA
ATOM     22  H   UNL     1       9.905  -2.202  22.363  0.00  0.00    +0.295 HD
ENDBRANCH  19  21
ENDBRANCH  15  19
ENDBRANCH  14  15
ENDBRANCH  13  14
ENDBRANCH   1  13
TORSDOF 11
ENDMDL
