MODEL 1
REMARK VINA RESULT:      -5.2      0.000      0.000
REMARK  Name = 
REMARK  5 active torsions:
REMARK  status: ('A' for Active; 'I' for Inactive)
REMARK    1  A    between atoms: O_1  and  S_2
REMARK    2  A    between atoms: S_2  and  C_5
REMARK    3  A    between atoms: C_5  and  C_6
REMARK    4  A    between atoms: C_6  and  N_7
REMARK    5  A    between atoms: N_7  and  C_8
REMARK                            x       y       z     vdW  Elec       q    Type
REMARK                         _______ _______ _______ _____ _____    ______ ____
ROOT
ATOM      1  N   UNL     1       9.539  -2.847  23.808  0.00  0.00    -0.342 N 
ATOM      2  H   UNL     1      10.313  -3.472  23.598  0.00  0.00    +0.146 HD
ENDROOT
BRANCH   1   3
ATOM      3  C   UNL     1       9.710  -1.578  23.244  0.00  0.00    +0.027 A 
ATOM      4  C   UNL     1      10.182  -0.529  24.047  0.00  0.00    +0.023 A 
ATOM      5  C   UNL     1      10.351   0.760  23.532  0.00  0.00    +0.002 A 
ATOM      6  C   UNL     1      10.021   1.029  22.208  0.00  0.00    +0.000 A 
ATOM      7  C   UNL     1       9.506   0.014  21.408  0.00  0.00    +0.002 A 
ATOM      8  C   UNL     1       9.342  -1.274  21.928  0.00  0.00    +0.023 A 
ENDBRANCH   1   3
BRANCH   1   9
ATOM      9  C   UNL     1       8.228  -3.503  23.690  0.00  0.00    +0.126 C 
BRANCH   9  10
ATOM     10  C   UNL     1       8.275  -4.920  24.231  0.00  0.00    +0.216 C 
BRANCH  10  11
ATOM     11  S   UNL     1       8.680  -4.875  25.963  0.00  0.00    +0.081 S 
ATOM     12  O   UNL     1       8.745  -3.507  26.420  0.00  0.00    -0.147 OA
ATOM     13  O   UNL     1       7.937  -5.887  26.676  0.00  0.00    -0.147 OA
BRANCH  11  14
ATOM     14  O   UNL     1      10.205  -5.395  25.856  0.00  0.00    -0.254 OA
ATOM     15  H   UNL     1      10.594  -5.404  26.756  0.00  0.00    +0.244 HD
ENDBRANCH  11  14
ENDBRANCH  10  11
ENDBRANCH   9  10
ENDBRANCH   1   9
TORSDOF 5
ENDMDL
MODEL 2
REMARK VINA RESULT:      -5.2      1.165      1.972
REMARK  Name = 
REMARK  5 active torsions:
REMARK  status: ('A' for Active; 'I' for Inactive)
REMARK    1  A    between atoms: O_1  and  S_2
REMARK    2  A    between atoms: S_2  and  C_5
REMARK    3  A    between atoms: C_5  and  C_6
REMARK    4  A    between atoms: C_6  and  N_7
REMARK    5  A    between atoms: N_7  and  C_8
REMARK                            x       y       z     vdW  Elec       q    Type
REMARK                         _______ _______ _______ _____ _____    ______ ____
ROOT
ATOM      1  N   UNL     1      10.129  -2.143  23.437  0.00  0.00    -0.342 N 
ATOM      2  H   UNL     1      10.616  -2.622  22.684  0.00  0.00    +0.146 HD
ENDROOT
BRANCH   1   3
ATOM      3  C   UNL     1      10.131  -0.752  23.276  0.00  0.00    +0.027 A 
ATOM      4  C   UNL     1       9.810  -0.207  22.024  0.00  0.00    +0.023 A 
ATOM      5  C   UNL     1       9.817   1.175  21.811  0.00  0.00    +0.002 A 
ATOM      6  C   UNL     1      10.177   2.036  22.842  0.00  0.00    +0.000 A 
ATOM      7  C   UNL     1      10.547   1.513  24.077  0.00  0.00    +0.002 A 
ATOM      8  C   UNL     1      10.534   0.130  24.286  0.00  0.00    +0.023 A 
ENDBRANCH   1   3
BRANCH   1   9
ATOM      9  C   UNL     1       8.875  -2.809  23.819  0.00  0.00    +0.126 C 
BRANCH   9  10
ATOM     10  C   UNL     1       8.972  -3.402  25.212  0.00  0.00    +0.216 C 
BRANCH  10  11
ATOM     11  S   UNL     1       8.868  -5.175  25.104  0.00  0.00    +0.081 S 
ATOM     12  O   UNL     1       8.127  -5.695  26.230  0.00  0.00    -0.147 OA
ATOM     13  O   UNL     1       8.583  -5.577  23.747  0.00  0.00    -0.147 OA
BRANCH  11  14
ATOM     14  O   UNL     1      10.421  -5.513  25.382  0.00  0.00    -0.254 OA
ATOM     15  H   UNL     1      10.541  -6.486  25.332  0.00  0.00    +0.244 HD
ENDBRANCH  11  14
ENDBRANCH  10  11
ENDBRANCH   9  10
ENDBRANCH   1   9
TORSDOF 5
ENDMDL
MODEL 3
REMARK VINA RESULT:      -5.2      0.064      1.333
REMARK  Name = 
REMARK  5 active torsions:
REMARK  status: ('A' for Active; 'I' for Inactive)
REMARK    1  A    between atoms: O_1  and  S_2
REMARK    2  A    between atoms: S_2  and  C_5
REMARK    3  A    between atoms: C_5  and  C_6
REMARK    4  A    between atoms: C_6  and  N_7
REMARK    5  A    between atoms: N_7  and  C_8
REMARK                            x       y       z     vdW  Elec       q    Type
REMARK                         _______ _______ _______ _____ _____    ______ ____
ROOT
ATOM      1  N   UNL     1       9.492  -2.908  23.776  0.00  0.00    -0.342 N 
ATOM      2  H   UNL     1      10.236  -3.527  23.464  0.00  0.00    +0.146 HD
ENDROOT
BRANCH   1   3
ATOM      3  C   UNL     1       9.648  -1.602  23.296  0.00  0.00    +0.027 A 
ATOM      4  C   UNL     1       9.369  -1.330  21.948  0.00  0.00    +0.023 A 
ATOM      5  C   UNL     1       9.528  -0.045  21.419  0.00  0.00    +0.002 A 
ATOM      6  C   UNL     1      10.000   0.986  22.225  0.00  0.00    +0.000 A 
ATOM      7  C   UNL     1      10.329   0.726  23.551  0.00  0.00    +0.002 A 
ATOM      8  C   UNL     1      10.164  -0.560  24.076  0.00  0.00    +0.023 A 
ENDBRANCH   1   3
BRANCH   1   9
ATOM      9  C   UNL     1       8.163  -3.532  23.708  0.00  0.00    +0.126 C 
BRANCH   9  10
ATOM     10  C   UNL     1       8.192  -4.942  24.268  0.00  0.00    +0.216 C 
BRANCH  10  11
ATOM     11  S   UNL     1       8.636  -4.880  25.991  0.00  0.00    +0.081 S 
ATOM     12  O   UNL     1       8.720  -3.508  26.430  0.00  0.00    -0.147 OA
ATOM     13  O   UNL     1       7.902  -5.879  26.731  0.00  0.00    -0.147 OA
BRANCH  11  14
ATOM     14  O   UNL     1      10.154  -5.413  25.855  0.00  0.00    -0.254 OA
ATOM     15  H   UNL     1      10.760  -4.703  26.158  0.00  0.00    +0.244 HD
ENDBRANCH  11  14
ENDBRANCH  10  11
ENDBRANCH   9  10
ENDBRANCH   1   9
TORSDOF 5
ENDMDL
MODEL 4
REMARK VINA RESULT:      -4.7      1.661      1.886
REMARK  Name = 
REMARK  5 active torsions:
REMARK  status: ('A' for Active; 'I' for Inactive)
REMARK    1  A    between atoms: O_1  and  S_2
REMARK    2  A    between atoms: S_2  and  C_5
REMARK    3  A    between atoms: C_5  and  C_6
REMARK    4  A    between atoms: C_6  and  N_7
REMARK    5  A    between atoms: N_7  and  C_8
REMARK                            x       y       z     vdW  Elec       q    Type
REMARK                         _______ _______ _______ _____ _____    ______ ____
ROOT
ATOM      1  N   UNL     1       7.557  -2.119  23.719  0.00  0.00    -0.342 N 
ATOM      2  H   UNL     1       7.950  -2.134  24.657  0.00  0.00    +0.146 HD
ENDROOT
BRANCH   1   3
ATOM      3  C   UNL     1       7.945  -0.984  22.997  0.00  0.00    +0.027 A 
ATOM      4  C   UNL     1       7.159   0.176  23.070  0.00  0.00    +0.023 A 
ATOM      5  C   UNL     1       7.497   1.328  22.352  0.00  0.00    +0.002 A 
ATOM      6  C   UNL     1       8.614   1.328  21.522  0.00  0.00    +0.000 A 
ATOM      7  C   UNL     1       9.378   0.173  21.398  0.00  0.00    +0.002 A 
ATOM      8  C   UNL     1       9.038  -0.975  22.122  0.00  0.00    +0.023 A 
ENDBRANCH   1   3
BRANCH   1   9
ATOM      9  C   UNL     1       7.610  -3.430  23.057  0.00  0.00    +0.126 C 
BRANCH   9  10
ATOM     10  C   UNL     1       7.721  -4.551  24.073  0.00  0.00    +0.216 C 
BRANCH  10  11
ATOM     11  S   UNL     1       9.237  -4.367  24.987  0.00  0.00    +0.081 S 
ATOM     12  O   UNL     1      10.154  -3.524  24.258  0.00  0.00    -0.147 OA
ATOM     13  O   UNL     1       8.953  -4.161  26.388  0.00  0.00    -0.147 OA
BRANCH  11  14
ATOM     14  O   UNL     1       9.782  -5.879  24.833  0.00  0.00    -0.254 OA
ATOM     15  H   UNL     1      10.727  -5.896  25.095  0.00  0.00    +0.244 HD
ENDBRANCH  11  14
ENDBRANCH  10  11
ENDBRANCH   9  10
ENDBRANCH   1   9
TORSDOF 5
ENDMDL
MODEL 5
REMARK VINA RESULT:      -4.6      3.058      3.371
REMARK  Name = 
REMARK  5 active torsions:
REMARK  status: ('A' for Active; 'I' for Inactive)
REMARK    1  A    between atoms: O_1  and  S_2
REMARK    2  A    between atoms: S_2  and  C_5
REMARK    3  A    between atoms: C_5  and  C_6
REMARK    4  A    between atoms: C_6  and  N_7
REMARK    5  A    between atoms: N_7  and  C_8
REMARK                            x       y       z     vdW  Elec       q    Type
REMARK                         _______ _______ _______ _____ _____    ______ ____
ROOT
ATOM      1  N   UNL     1       8.252  -2.673  22.390  0.00  0.00    -0.342 N 
ATOM      2  H   UNL     1       7.422  -2.430  21.855  0.00  0.00    +0.146 HD
ENDROOT
BRANCH   1   3
ATOM      3  C   UNL     1       9.010  -1.549  22.738  0.00  0.00    +0.027 A 
ATOM      4  C   UNL     1       9.414  -1.380  24.070  0.00  0.00    +0.023 A 
ATOM      5  C   UNL     1      10.157  -0.264  24.468  0.00  0.00    +0.002 A 
ATOM      6  C   UNL     1      10.483   0.721  23.541  0.00  0.00    +0.000 A 
ATOM      7  C   UNL     1      10.050   0.597  22.225  0.00  0.00    +0.002 A 
ATOM      8  C   UNL     1       9.311  -0.524  21.832  0.00  0.00    +0.023 A 
ENDBRANCH   1   3
BRANCH   1   9
ATOM      9  C   UNL     1       7.993  -3.695  23.414  0.00  0.00    +0.126 C 
BRANCH   9  10
ATOM     10  C   UNL     1       6.999  -4.728  22.915  0.00  0.00    +0.216 C 
BRANCH  10  11
ATOM     11  S   UNL     1       5.426  -3.943  22.635  0.00  0.00    +0.081 S 
ATOM     12  O   UNL     1       4.372  -4.929  22.662  0.00  0.00    -0.147 OA
ATOM     13  O   UNL     1       5.344  -2.711  23.383  0.00  0.00    -0.147 OA
BRANCH  11  14
ATOM     14  O   UNL     1       5.642  -3.544  21.086  0.00  0.00    -0.254 OA
ATOM     15  H   UNL     1       6.425  -2.956  21.024  0.00  0.00    +0.244 HD
ENDBRANCH  11  14
ENDBRANCH  10  11
ENDBRANCH   9  10
ENDBRANCH   1   9
TORSDOF 5
ENDMDL
MODEL 6
REMARK VINA RESULT:      -4.6      4.146      5.694
REMARK  Name = 
REMARK  5 active torsions:
REMARK  status: ('A' for Active; 'I' for Inactive)
REMARK    1  A    between atoms: O_1  and  S_2
REMARK    2  A    between atoms: S_2  and  C_5
REMARK    3  A    between atoms: C_5  and  C_6
REMARK    4  A    between atoms: C_6  and  N_7
REMARK    5  A    between atoms: N_7  and  C_8
REMARK                            x       y       z     vdW  Elec       q    Type
REMARK                         _______ _______ _______ _____ _____    ______ ____
ROOT
ATOM      1  N   UNL     1       8.771  -0.894  24.304  0.00  0.00    -0.342 N 
ATOM      2  H   UNL     1       8.185  -0.221  23.817  0.00  0.00    +0.146 HD
ENDROOT
BRANCH   1   3
ATOM      3  C   UNL     1       8.451  -2.217  23.976  0.00  0.00    +0.027 A 
ATOM      4  C   UNL     1       7.616  -2.467  22.877  0.00  0.00    +0.023 A 
ATOM      5  C   UNL     1       7.254  -3.770  22.522  0.00  0.00    +0.002 A 
ATOM      6  C   UNL     1       7.698  -4.847  23.283  0.00  0.00    +0.000 A 
ATOM      7  C   UNL     1       8.487  -4.617  24.405  0.00  0.00    +0.002 A 
ATOM      8  C   UNL     1       8.849  -3.311  24.752  0.00  0.00    +0.023 A 
ENDBRANCH   1   3
BRANCH   1   9
ATOM      9  C   UNL     1      10.186  -0.497  24.339  0.00  0.00    +0.126 C 
BRANCH   9  10
ATOM     10  C   UNL     1      10.383   0.882  23.736  0.00  0.00    +0.216 C 
BRANCH  10  11
ATOM     11  S   UNL     1       9.479   0.988  22.207  0.00  0.00    +0.081 S 
ATOM     12  O   UNL     1       9.799  -0.141  21.366  0.00  0.00    -0.147 OA
ATOM     13  O   UNL     1       8.117   1.396  22.459  0.00  0.00    -0.147 OA
BRANCH  11  14
ATOM     14  O   UNL     1      10.246   2.261  21.576  0.00  0.00    -0.254 OA
ATOM     15  H   UNL     1      10.753   1.961  20.792  0.00  0.00    +0.244 HD
ENDBRANCH  11  14
ENDBRANCH  10  11
ENDBRANCH   9  10
ENDBRANCH   1   9
TORSDOF 5
ENDMDL
MODEL 7
REMARK VINA RESULT:      -4.6      1.277      2.171
REMARK  Name = 
REMARK  5 active torsions:
REMARK  status: ('A' for Active; 'I' for Inactive)
REMARK    1  A    between atoms: O_1  and  S_2
REMARK    2  A    between atoms: S_2  and  C_5
REMARK    3  A    between atoms: C_5  and  C_6
REMARK    4  A    between atoms: C_6  and  N_7
REMARK    5  A    between atoms: N_7  and  C_8
REMARK                            x       y       z     vdW  Elec       q    Type
REMARK                         _______ _______ _______ _____ _____    ______ ____
ROOT
ATOM      1  N   UNL     1       8.788  -3.289  23.923  0.00  0.00    -0.342 N 
ATOM      2  H   UNL     1       7.841  -3.273  24.294  0.00  0.00    +0.146 HD
ENDROOT
BRANCH   1   3
ATOM      3  C   UNL     1       9.190  -2.041  23.433  0.00  0.00    +0.027 A 
ATOM      4  C   UNL     1       8.990  -1.740  22.077  0.00  0.00    +0.023 A 
ATOM      5  C   UNL     1       9.391  -0.513  21.540  0.00  0.00    +0.002 A 
ATOM      6  C   UNL     1      10.030   0.424  22.345  0.00  0.00    +0.000 A 
ATOM      7  C   UNL     1      10.282   0.126  23.680  0.00  0.00    +0.002 A 
ATOM      8  C   UNL     1       9.874  -1.101  24.213  0.00  0.00    +0.023 A 
ENDBRANCH   1   3
BRANCH   1   9
ATOM      9  C   UNL     1       9.720  -4.051  24.768  0.00  0.00    +0.126 C 
BRANCH   9  10
ATOM     10  C   UNL     1       9.040  -5.265  25.374  0.00  0.00    +0.216 C 
BRANCH  10  11
ATOM     11  S   UNL     1       7.743  -4.727  26.468  0.00  0.00    +0.081 S 
ATOM     12  O   UNL     1       7.569  -5.684  27.534  0.00  0.00    -0.147 OA
ATOM     13  O   UNL     1       7.858  -3.310  26.720  0.00  0.00    -0.147 OA
BRANCH  11  14
ATOM     14  O   UNL     1       6.497  -4.928  25.462  0.00  0.00    -0.254 OA
ATOM     15  H   UNL     1       6.794  -5.479  24.707  0.00  0.00    +0.244 HD
ENDBRANCH  11  14
ENDBRANCH  10  11
ENDBRANCH   9  10
ENDBRANCH   1   9
TORSDOF 5
ENDMDL
MODEL 8
REMARK VINA RESULT:      -4.5      3.626      5.625
REMARK  Name = 
REMARK  5 active torsions:
REMARK  status: ('A' for Active; 'I' for Inactive)
REMARK    1  A    between atoms: O_1  and  S_2
REMARK    2  A    between atoms: S_2  and  C_5
REMARK    3  A    between atoms: C_5  and  C_6
REMARK    4  A    between atoms: C_6  and  N_7
REMARK    5  A    between atoms: N_7  and  C_8
REMARK                            x       y       z     vdW  Elec       q    Type
REMARK                         _______ _______ _______ _____ _____    ______ ____
ROOT
ATOM      1  N   UNL     1       7.683  -2.753  22.165  0.00  0.00    -0.342 N 
ATOM      2  H   UNL     1       8.632  -3.055  22.370  0.00  0.00    +0.146 HD
ENDROOT
BRANCH   1   3
ATOM      3  C   UNL     1       6.739  -3.759  22.401  0.00  0.00    +0.027 A 
ATOM      4  C   UNL     1       7.043  -5.081  22.043  0.00  0.00    +0.023 A 
ATOM      5  C   UNL     1       6.124  -6.116  22.244  0.00  0.00    +0.002 A 
ATOM      6  C   UNL     1       4.870  -5.840  22.780  0.00  0.00    +0.000 A 
ATOM      7  C   UNL     1       4.532  -4.529  23.096  0.00  0.00    +0.002 A 
ATOM      8  C   UNL     1       5.456  -3.498  22.897  0.00  0.00    +0.023 A 
ENDBRANCH   1   3
BRANCH   1   9
ATOM      9  C   UNL     1       7.402  -1.392  22.646  0.00  0.00    +0.126 C 
BRANCH   9  10
ATOM     10  C   UNL     1       8.432  -0.950  23.669  0.00  0.00    +0.216 C 
BRANCH  10  11
ATOM     11  S   UNL     1      10.060  -1.096  22.964  0.00  0.00    +0.081 S 
ATOM     12  O   UNL     1      10.889  -0.000  23.408  0.00  0.00    -0.147 OA
ATOM     13  O   UNL     1      10.507  -2.468  23.020  0.00  0.00    -0.147 OA
BRANCH  11  14
ATOM     14  O   UNL     1       9.673  -0.786  21.428  0.00  0.00    -0.254 OA
ATOM     15  H   UNL     1      10.402  -0.270  21.022  0.00  0.00    +0.244 HD
ENDBRANCH  11  14
ENDBRANCH  10  11
ENDBRANCH   9  10
ENDBRANCH   1   9
TORSDOF 5
ENDMDL
MODEL 9
REMARK VINA RESULT:      -4.4      4.169      5.646
REMARK  Name = 
REMARK  5 active torsions:
REMARK  status: ('A' for Active; 'I' for Inactive)
REMARK    1  A    between atoms: O_1  and  S_2
REMARK    2  A    between atoms: S_2  and  C_5
REMARK    3  A    between atoms: C_5  and  C_6
REMARK    4  A    between atoms: C_6  and  N_7
REMARK    5  A    between atoms: N_7  and  C_8
REMARK                            x       y       z     vdW  Elec       q    Type
REMARK                         _______ _______ _______ _____ _____    ______ ____
ROOT
ATOM      1  N   UNL     1       8.196  -1.072  23.744  0.00  0.00    -0.342 N 
ATOM      2  H   UNL     1       8.749  -1.245  24.580  0.00  0.00    +0.146 HD
ENDROOT
BRANCH   1   3
ATOM      3  C   UNL     1       7.500  -2.211  23.321  0.00  0.00    +0.027 A 
ATOM      4  C   UNL     1       8.115  -3.468  23.425  0.00  0.00    +0.023 A 
ATOM      5  C   UNL     1       7.466  -4.630  22.998  0.00  0.00    +0.002 A 
ATOM      6  C   UNL     1       6.198  -4.552  22.429  0.00  0.00    +0.000 A 
ATOM      7  C   UNL     1       5.592  -3.310  22.272  0.00  0.00    +0.002 A 
ATOM      8  C   UNL     1       6.244  -2.150  22.705  0.00  0.00    +0.023 A 
ENDBRANCH   1   3
BRANCH   1   9
ATOM      9  C   UNL     1       7.488   0.215  23.785  0.00  0.00    +0.126 C 
BRANCH   9  10
ATOM     10  C   UNL     1       7.950   1.129  22.665  0.00  0.00    +0.216 C 
BRANCH  10  11
ATOM     11  S   UNL     1       9.661   0.799  22.306  0.00  0.00    +0.081 S 
ATOM     12  O   UNL     1      10.439   0.848  23.521  0.00  0.00    -0.147 OA
ATOM     13  O   UNL     1       9.773  -0.292  21.367  0.00  0.00    -0.147 OA
BRANCH  11  14
ATOM     14  O   UNL     1       9.991   2.156  21.495  0.00  0.00    -0.254 OA
ATOM     15  H   UNL     1       9.866   2.917  22.101  0.00  0.00    +0.244 HD
ENDBRANCH  11  14
ENDBRANCH  10  11
ENDBRANCH   9  10
ENDBRANCH   1   9
TORSDOF 5
ENDMDL
