MODEL 1
REMARK VINA RESULT:      -5.4      0.000      0.000
REMARK  Name = 
REMARK  14 active torsions:
REMARK  status: ('A' for Active; 'I' for Inactive)
REMARK    1  A    between atoms: C_1  and  C_2
REMARK    2  A    between atoms: C_2  and  C_3
REMARK    3  A    between atoms: C_2  and  N_4
REMARK    4  A    between atoms: N_4  and  C_5
REMARK    5  A    between atoms: C_5  and  C_6
REMARK    6  A    between atoms: C_6  and  O_7
REMARK    7  A    between atoms: C_6  and  C_8
REMARK    8  A    between atoms: C_8  and  O_9
REMARK    9  A    between atoms: O_9  and  C_10
REMARK   10  A    between atoms: C_13  and  C_14
REMARK   11  A    between atoms: C_14  and  C_15
REMARK   12  A    between atoms: C_15  and  O_16
REMARK   13  A    between atoms: O_16  and  C_17
REMARK   14  A    between atoms: C_17  and  C_18
REMARK                            x       y       z     vdW  Elec       q    Type
REMARK                         _______ _______ _______ _____ _____    ______ ____
ROOT
ATOM      1  C   UNL     1      10.593   2.300  23.581  0.00  0.00    +0.121 A 
ATOM      2  C   UNL     1      10.074   2.254  22.286  0.00  0.00    +0.046 A 
ATOM      3  C   UNL     1       9.702   1.024  21.714  0.00  0.00    +0.007 A 
ATOM      4  C   UNL     1       9.852  -0.166  22.431  0.00  0.00    -0.045 A 
ATOM      5  C   UNL     1      10.390  -0.108  23.721  0.00  0.00    +0.007 A 
ATOM      6  C   UNL     1      10.739   1.111  24.294  0.00  0.00    +0.046 A 
ENDROOT
BRANCH   1   7
ATOM      7  O   UNL     1      10.938   3.542  24.061  0.00  0.00    -0.489 OA
BRANCH   7   8
ATOM      8  C   UNL     1      11.888   4.250  23.246  0.00  0.00    +0.261 C 
BRANCH   8   9
ATOM      9  C   UNL     1      11.840   5.752  23.526  0.00  0.00    +0.166 C 
BRANCH   9  10
ATOM     10  O   UNL     1      12.826   6.110  24.504  0.00  0.00    -0.387 OA
ATOM     11  H   UNL     1      13.407   5.332  24.600  0.00  0.00    +0.210 HD
ENDBRANCH   9  10
BRANCH   9  12
ATOM     12  C   UNL     1      10.443   6.186  23.997  0.00  0.00    +0.115 C 
BRANCH  12  13
ATOM     13  N   UNL     1       9.482   5.989  22.908  0.00  0.00    -0.311 NA
ATOM     14  H   UNL     1       9.531   6.804  22.293  0.00  0.00    +0.122 HD
BRANCH  13  16
ATOM     15  C   UNL     1       7.419   4.846  22.372  0.00  0.00    +0.023 C 
ATOM     16  C   UNL     1       8.110   5.775  23.371  0.00  0.00    +0.048 C 
ATOM     17  C   UNL     1       8.068   5.152  24.768  0.00  0.00    +0.023 C 
ENDBRANCH  13  16
ENDBRANCH  12  13
ENDBRANCH   9  12
ENDBRANCH   8   9
ENDBRANCH   7   8
ENDBRANCH   1   7
BRANCH   4  18
ATOM     18  C   UNL     1       9.457  -1.506  21.858  0.00  0.00    +0.063 C 
BRANCH  18  19
ATOM     19  C   UNL     1       8.371  -2.184  22.697  0.00  0.00    +0.164 C 
BRANCH  19  20
ATOM     20  O   UNL     1       7.214  -1.351  22.778  0.00  0.00    -0.379 OA
BRANCH  20  21
ATOM     21  C   UNL     1       6.813  -1.197  24.140  0.00  0.00    +0.163 C 
BRANCH  21  22
ATOM     22  C   UNL     1       6.210   0.157  24.322  0.00  0.00    +0.015 C 
ATOM     23  C   UNL     1       6.581   1.301  23.414  0.00  0.00    +0.006 C 
ATOM     24  C   UNL     1       7.070   1.284  24.836  0.00  0.00    +0.006 C 
ENDBRANCH  21  22
ENDBRANCH  20  21
ENDBRANCH  19  20
ENDBRANCH  18  19
ENDBRANCH   4  18
TORSDOF 12
ENDMDL
MODEL 2
REMARK VINA RESULT:      -5.3      1.681      2.901
REMARK  Name = 
REMARK  14 active torsions:
REMARK  status: ('A' for Active; 'I' for Inactive)
REMARK    1  A    between atoms: C_1  and  C_2
REMARK    2  A    between atoms: C_2  and  C_3
REMARK    3  A    between atoms: C_2  and  N_4
REMARK    4  A    between atoms: N_4  and  C_5
REMARK    5  A    between atoms: C_5  and  C_6
REMARK    6  A    between atoms: C_6  and  O_7
REMARK    7  A    between atoms: C_6  and  C_8
REMARK    8  A    between atoms: C_8  and  O_9
REMARK    9  A    between atoms: O_9  and  C_10
REMARK   10  A    between atoms: C_13  and  C_14
REMARK   11  A    between atoms: C_14  and  C_15
REMARK   12  A    between atoms: C_15  and  O_16
REMARK   13  A    between atoms: O_16  and  C_17
REMARK   14  A    between atoms: C_17  and  C_18
REMARK                            x       y       z     vdW  Elec       q    Type
REMARK                         _______ _______ _______ _____ _____    ______ ____
ROOT
ATOM      1  C   UNL     1      10.328   2.277  23.307  0.00  0.00    +0.121 A 
ATOM      2  C   UNL     1      10.592   1.334  24.302  0.00  0.00    +0.046 A 
ATOM      3  C   UNL     1      10.433  -0.038  24.038  0.00  0.00    +0.007 A 
ATOM      4  C   UNL     1      10.003  -0.475  22.782  0.00  0.00    -0.045 A 
ATOM      5  C   UNL     1       9.725   0.482  21.799  0.00  0.00    +0.007 A 
ATOM      6  C   UNL     1       9.902   1.838  22.055  0.00  0.00    +0.046 A 
ENDROOT
BRANCH   1   7
ATOM      7  O   UNL     1      10.503   3.598  23.651  0.00  0.00    -0.489 OA
BRANCH   7   8
ATOM      8  C   UNL     1      11.806   4.123  23.343  0.00  0.00    +0.261 C 
BRANCH   8   9
ATOM      9  C   UNL     1      11.834   5.644  23.489  0.00  0.00    +0.166 C 
BRANCH   9  10
ATOM     10  O   UNL     1      12.914   6.046  24.341  0.00  0.00    -0.387 OA
ATOM     11  H   UNL     1      12.703   5.697  25.228  0.00  0.00    +0.210 HD
ENDBRANCH   9  10
BRANCH   9  12
ATOM     12  C   UNL     1      10.500   6.175  24.036  0.00  0.00    +0.115 C 
BRANCH  12  13
ATOM     13  N   UNL     1       9.514   6.218  22.951  0.00  0.00    -0.311 NA
ATOM     14  H   UNL     1       9.653   7.089  22.434  0.00  0.00    +0.122 HD
BRANCH  13  16
ATOM     15  C   UNL     1       7.447   5.014  22.596  0.00  0.00    +0.023 C 
ATOM     16  C   UNL     1       8.130   6.111  23.415  0.00  0.00    +0.048 C 
ATOM     17  C   UNL     1       8.050   5.767  24.904  0.00  0.00    +0.023 C 
ENDBRANCH  13  16
ENDBRANCH  12  13
ENDBRANCH   9  12
ENDBRANCH   8   9
ENDBRANCH   7   8
ENDBRANCH   1   7
BRANCH   4  18
ATOM     18  C   UNL     1       9.828  -1.938  22.455  0.00  0.00    +0.063 C 
BRANCH  18  19
ATOM     19  C   UNL     1       8.675  -2.562  23.245  0.00  0.00    +0.164 C 
BRANCH  19  20
ATOM     20  O   UNL     1       9.096  -3.783  23.854  0.00  0.00    -0.379 OA
BRANCH  20  21
ATOM     21  C   UNL     1       7.999  -4.693  23.942  0.00  0.00    +0.163 C 
BRANCH  21  22
ATOM     22  C   UNL     1       7.244  -4.676  22.654  0.00  0.00    +0.015 C 
ATOM     23  C   UNL     1       5.962  -5.454  22.495  0.00  0.00    +0.006 C 
ATOM     24  C   UNL     1       7.213  -5.920  21.802  0.00  0.00    +0.006 C 
ENDBRANCH  21  22
ENDBRANCH  20  21
ENDBRANCH  19  20
ENDBRANCH  18  19
ENDBRANCH   4  18
TORSDOF 12
ENDMDL
MODEL 3
REMARK VINA RESULT:      -5.3      3.726      7.113
REMARK  Name = 
REMARK  14 active torsions:
REMARK  status: ('A' for Active; 'I' for Inactive)
REMARK    1  A    between atoms: C_1  and  C_2
REMARK    2  A    between atoms: C_2  and  C_3
REMARK    3  A    between atoms: C_2  and  N_4
REMARK    4  A    between atoms: N_4  and  C_5
REMARK    5  A    between atoms: C_5  and  C_6
REMARK    6  A    between atoms: C_6  and  O_7
REMARK    7  A    between atoms: C_6  and  C_8
REMARK    8  A    between atoms: C_8  and  O_9
REMARK    9  A    between atoms: O_9  and  C_10
REMARK   10  A    between atoms: C_13  and  C_14
REMARK   11  A    between atoms: C_14  and  C_15
REMARK   12  A    between atoms: C_15  and  O_16
REMARK   13  A    between atoms: O_16  and  C_17
REMARK   14  A    between atoms: C_17  and  C_18
REMARK                            x       y       z     vdW  Elec       q    Type
REMARK                         _______ _______ _______ _____ _____    ______ ____
ROOT
ATOM      1  C   UNL     1       9.828  -2.096  23.547  0.00  0.00    +0.121 A 
ATOM      2  C   UNL     1      10.077  -1.030  24.413  0.00  0.00    +0.046 A 
ATOM      3  C   UNL     1      10.099   0.289  23.926  0.00  0.00    +0.007 A 
ATOM      4  C   UNL     1       9.881   0.549  22.571  0.00  0.00    -0.045 A 
ATOM      5  C   UNL     1       9.650  -0.530  21.710  0.00  0.00    +0.007 A 
ATOM      6  C   UNL     1       9.607  -1.833  22.197  0.00  0.00    +0.046 A 
ENDROOT
BRANCH   1   7
ATOM      7  O   UNL     1       9.829  -3.354  24.105  0.00  0.00    -0.489 OA
BRANCH   7   8
ATOM      8  C   UNL     1       9.082  -3.461  25.329  0.00  0.00    +0.261 C 
BRANCH   8   9
ATOM      9  C   UNL     1       8.531  -4.874  25.514  0.00  0.00    +0.166 C 
BRANCH   9  10
ATOM     10  O   UNL     1       9.560  -5.846  25.283  0.00  0.00    -0.387 OA
ATOM     11  H   UNL     1      10.089  -5.880  26.103  0.00  0.00    +0.210 HD
ENDBRANCH   9  10
BRANCH   9  12
ATOM     12  C   UNL     1       7.338  -5.133  24.582  0.00  0.00    +0.115 C 
BRANCH  12  13
ATOM     13  N   UNL     1       7.831  -5.415  23.230  0.00  0.00    -0.311 NA
ATOM     14  H   UNL     1       8.835  -5.222  23.214  0.00  0.00    +0.122 HD
BRANCH  13  16
ATOM     15  C   UNL     1       6.354  -5.639  21.328  0.00  0.00    +0.023 C 
ATOM     16  C   UNL     1       7.144  -4.650  22.187  0.00  0.00    +0.048 C 
ATOM     17  C   UNL     1       6.195  -3.605  22.775  0.00  0.00    +0.023 C 
ENDBRANCH  13  16
ENDBRANCH  12  13
ENDBRANCH   9  12
ENDBRANCH   8   9
ENDBRANCH   7   8
ENDBRANCH   1   7
BRANCH   4  18
ATOM     18  C   UNL     1       9.888   1.950  22.008  0.00  0.00    +0.063 C 
BRANCH  18  19
ATOM     19  C   UNL     1       8.629   2.727  22.404  0.00  0.00    +0.164 C 
BRANCH  19  20
ATOM     20  O   UNL     1       7.496   2.228  21.692  0.00  0.00    -0.379 OA
BRANCH  20  21
ATOM     21  C   UNL     1       6.342   2.239  22.535  0.00  0.00    +0.163 C 
BRANCH  21  22
ATOM     22  C   UNL     1       6.678   1.581  23.832  0.00  0.00    +0.015 C 
ATOM     23  C   UNL     1       6.411   0.113  24.051  0.00  0.00    +0.006 C 
ATOM     24  C   UNL     1       5.560   1.141  24.745  0.00  0.00    +0.006 C 
ENDBRANCH  21  22
ENDBRANCH  20  21
ENDBRANCH  19  20
ENDBRANCH  18  19
ENDBRANCH   4  18
TORSDOF 12
ENDMDL
MODEL 4
REMARK VINA RESULT:      -5.1      3.746      7.453
REMARK  Name = 
REMARK  14 active torsions:
REMARK  status: ('A' for Active; 'I' for Inactive)
REMARK    1  A    between atoms: C_1  and  C_2
REMARK    2  A    between atoms: C_2  and  C_3
REMARK    3  A    between atoms: C_2  and  N_4
REMARK    4  A    between atoms: N_4  and  C_5
REMARK    5  A    between atoms: C_5  and  C_6
REMARK    6  A    between atoms: C_6  and  O_7
REMARK    7  A    between atoms: C_6  and  C_8
REMARK    8  A    between atoms: C_8  and  O_9
REMARK    9  A    between atoms: O_9  and  C_10
REMARK   10  A    between atoms: C_13  and  C_14
REMARK   11  A    between atoms: C_14  and  C_15
REMARK   12  A    between atoms: C_15  and  O_16
REMARK   13  A    between atoms: O_16  and  C_17
REMARK   14  A    between atoms: C_17  and  C_18
REMARK                            x       y       z     vdW  Elec       q    Type
REMARK                         _______ _______ _______ _____ _____    ______ ____
ROOT
ATOM      1  C   UNL     1       8.760  -2.221  25.204  0.00  0.00    +0.121 A 
ATOM      2  C   UNL     1       7.946  -1.117  24.943  0.00  0.00    +0.046 A 
ATOM      3  C   UNL     1       8.085  -0.402  23.740  0.00  0.00    +0.007 A 
ATOM      4  C   UNL     1       9.042  -0.780  22.796  0.00  0.00    -0.045 A 
ATOM      5  C   UNL     1       9.865  -1.877  23.078  0.00  0.00    +0.007 A 
ATOM      6  C   UNL     1       9.713  -2.597  24.259  0.00  0.00    +0.046 A 
ENDROOT
BRANCH   1   7
ATOM      7  O   UNL     1       8.562  -2.859  26.407  0.00  0.00    -0.489 OA
BRANCH   7   8
ATOM      8  C   UNL     1       8.670  -4.292  26.342  0.00  0.00    +0.261 C 
BRANCH   8   9
ATOM      9  C   UNL     1       7.387  -4.961  26.833  0.00  0.00    +0.166 C 
BRANCH   9  10
ATOM     10  O   UNL     1       7.696  -6.057  27.704  0.00  0.00    -0.387 OA
ATOM     11  H   UNL     1       7.417  -6.865  27.232  0.00  0.00    +0.210 HD
ENDBRANCH   9  10
BRANCH   9  12
ATOM     12  C   UNL     1       6.525  -5.444  25.656  0.00  0.00    +0.115 C 
BRANCH  12  13
ATOM     13  N   UNL     1       6.070  -4.285  24.881  0.00  0.00    -0.311 NA
ATOM     14  H   UNL     1       5.146  -4.019  25.226  0.00  0.00    +0.122 HD
BRANCH  13  16
ATOM     15  C   UNL     1       5.736  -3.193  22.750  0.00  0.00    +0.023 C 
ATOM     16  C   UNL     1       6.032  -4.527  23.438  0.00  0.00    +0.048 C 
ATOM     17  C   UNL     1       7.354  -5.093  22.917  0.00  0.00    +0.023 C 
ENDBRANCH  13  16
ENDBRANCH  12  13
ENDBRANCH   9  12
ENDBRANCH   8   9
ENDBRANCH   7   8
ENDBRANCH   1   7
BRANCH   4  18
ATOM     18  C   UNL     1       9.218  -0.046  21.489  0.00  0.00    +0.063 C 
BRANCH  18  19
ATOM     19  C   UNL     1       9.153   1.472  21.677  0.00  0.00    +0.164 C 
BRANCH  19  20
ATOM     20  O   UNL     1      10.451   1.991  21.969  0.00  0.00    -0.379 OA
BRANCH  20  21
ATOM     21  C   UNL     1      10.447   2.641  23.242  0.00  0.00    +0.163 C 
BRANCH  21  22
ATOM     22  C   UNL     1       9.076   3.163  23.520  0.00  0.00    +0.015 C 
ATOM     23  C   UNL     1       8.873   4.433  24.305  0.00  0.00    +0.006 C 
ATOM     24  C   UNL     1       8.538   3.106  24.928  0.00  0.00    +0.006 C 
ENDBRANCH  21  22
ENDBRANCH  20  21
ENDBRANCH  19  20
ENDBRANCH  18  19
ENDBRANCH   4  18
TORSDOF 12
ENDMDL
MODEL 5
REMARK VINA RESULT:      -5.0      3.477      7.603
REMARK  Name = 
REMARK  14 active torsions:
REMARK  status: ('A' for Active; 'I' for Inactive)
REMARK    1  A    between atoms: C_1  and  C_2
REMARK    2  A    between atoms: C_2  and  C_3
REMARK    3  A    between atoms: C_2  and  N_4
REMARK    4  A    between atoms: N_4  and  C_5
REMARK    5  A    between atoms: C_5  and  C_6
REMARK    6  A    between atoms: C_6  and  O_7
REMARK    7  A    between atoms: C_6  and  C_8
REMARK    8  A    between atoms: C_8  and  O_9
REMARK    9  A    between atoms: O_9  and  C_10
REMARK   10  A    between atoms: C_13  and  C_14
REMARK   11  A    between atoms: C_14  and  C_15
REMARK   12  A    between atoms: C_15  and  O_16
REMARK   13  A    between atoms: O_16  and  C_17
REMARK   14  A    between atoms: C_17  and  C_18
REMARK                            x       y       z     vdW  Elec       q    Type
REMARK                         _______ _______ _______ _____ _____    ______ ____
ROOT
ATOM      1  C   UNL     1       9.906  -2.020  23.648  0.00  0.00    +0.121 A 
ATOM      2  C   UNL     1       9.790  -1.792  22.276  0.00  0.00    +0.046 A 
ATOM      3  C   UNL     1       9.823  -0.481  21.770  0.00  0.00    +0.007 A 
ATOM      4  C   UNL     1       9.965   0.610  22.632  0.00  0.00    -0.045 A 
ATOM      5  C   UNL     1      10.063   0.368  24.007  0.00  0.00    +0.007 A 
ATOM      6  C   UNL     1      10.050  -0.931  24.505  0.00  0.00    +0.046 A 
ENDROOT
BRANCH   1   7
ATOM      7  O   UNL     1       9.858  -3.332  24.059  0.00  0.00    -0.489 OA
BRANCH   7   8
ATOM      8  C   UNL     1       9.126  -3.546  25.279  0.00  0.00    +0.261 C 
BRANCH   8   9
ATOM      9  C   UNL     1       8.644  -4.992  25.384  0.00  0.00    +0.166 C 
BRANCH   9  10
ATOM     10  O   UNL     1       9.721  -5.899  25.113  0.00  0.00    -0.387 OA
ATOM     11  H   UNL     1      10.543  -5.390  25.243  0.00  0.00    +0.210 HD
ENDBRANCH   9  10
BRANCH   9  12
ATOM     12  C   UNL     1       7.472  -5.259  24.428  0.00  0.00    +0.115 C 
BRANCH  12  13
ATOM     13  N   UNL     1       7.988  -5.440  23.068  0.00  0.00    -0.311 NA
ATOM     14  H   UNL     1       8.959  -5.124  23.054  0.00  0.00    +0.122 HD
BRANCH  13  16
ATOM     15  C   UNL     1       6.324  -5.771  21.343  0.00  0.00    +0.023 C 
ATOM     16  C   UNL     1       7.205  -4.738  22.048  0.00  0.00    +0.048 C 
ATOM     17  C   UNL     1       6.328  -3.641  22.655  0.00  0.00    +0.023 C 
ENDBRANCH  13  16
ENDBRANCH  12  13
ENDBRANCH   9  12
ENDBRANCH   8   9
ENDBRANCH   7   8
ENDBRANCH   1   7
BRANCH   4  18
ATOM     18  C   UNL     1      10.014   2.032  22.129  0.00  0.00    +0.063 C 
BRANCH  18  19
ATOM     19  C   UNL     1      10.116   3.038  23.279  0.00  0.00    +0.164 C 
BRANCH  19  20
ATOM     20  O   UNL     1       8.842   3.634  23.529  0.00  0.00    -0.379 OA
BRANCH  20  21
ATOM     21  C   UNL     1       8.945   4.587  24.589  0.00  0.00    +0.163 C 
BRANCH  21  22
ATOM     22  C   UNL     1       9.504   5.861  24.048  0.00  0.00    +0.015 C 
ATOM     23  C   UNL     1      10.891   6.320  24.418  0.00  0.00    +0.006 C 
ATOM     24  C   UNL     1       9.692   7.035  24.976  0.00  0.00    +0.006 C 
ENDBRANCH  21  22
ENDBRANCH  20  21
ENDBRANCH  19  20
ENDBRANCH  18  19
ENDBRANCH   4  18
TORSDOF 12
ENDMDL
MODEL 6
REMARK VINA RESULT:      -5.0      2.198      3.691
REMARK  Name = 
REMARK  14 active torsions:
REMARK  status: ('A' for Active; 'I' for Inactive)
REMARK    1  A    between atoms: C_1  and  C_2
REMARK    2  A    between atoms: C_2  and  C_3
REMARK    3  A    between atoms: C_2  and  N_4
REMARK    4  A    between atoms: N_4  and  C_5
REMARK    5  A    between atoms: C_5  and  C_6
REMARK    6  A    between atoms: C_6  and  O_7
REMARK    7  A    between atoms: C_6  and  C_8
REMARK    8  A    between atoms: C_8  and  O_9
REMARK    9  A    between atoms: O_9  and  C_10
REMARK   10  A    between atoms: C_13  and  C_14
REMARK   11  A    between atoms: C_14  and  C_15
REMARK   12  A    between atoms: C_15  and  O_16
REMARK   13  A    between atoms: O_16  and  C_17
REMARK   14  A    between atoms: C_17  and  C_18
REMARK                            x       y       z     vdW  Elec       q    Type
REMARK                         _______ _______ _______ _____ _____    ______ ____
ROOT
ATOM      1  C   UNL     1       9.769   2.035  23.145  0.00  0.00    +0.121 A 
ATOM      2  C   UNL     1       9.593   1.295  21.973  0.00  0.00    +0.046 A 
ATOM      3  C   UNL     1       9.755  -0.101  21.985  0.00  0.00    +0.007 A 
ATOM      4  C   UNL     1      10.101  -0.766  23.165  0.00  0.00    -0.045 A 
ATOM      5  C   UNL     1      10.291  -0.011  24.328  0.00  0.00    +0.007 A 
ATOM      6  C   UNL     1      10.111   1.368  24.320  0.00  0.00    +0.046 A 
ENDROOT
BRANCH   1   7
ATOM      7  O   UNL     1       9.597   3.396  23.044  0.00  0.00    -0.489 OA
BRANCH   7   8
ATOM      8  C   UNL     1       8.239   3.837  23.215  0.00  0.00    +0.261 C 
BRANCH   8   9
ATOM      9  C   UNL     1       8.157   5.362  23.250  0.00  0.00    +0.166 C 
BRANCH   9  10
ATOM     10  O   UNL     1       8.112   5.891  21.918  0.00  0.00    -0.387 OA
ATOM     11  H   UNL     1       8.247   6.853  22.003  0.00  0.00    +0.210 HD
ENDBRANCH   9  10
BRANCH   9  12
ATOM     12  C   UNL     1       9.340   5.966  24.021  0.00  0.00    +0.115 C 
BRANCH  12  13
ATOM     13  N   UNL     1      10.508   6.040  23.138  0.00  0.00    -0.311 NA
ATOM     14  H   UNL     1      10.315   5.469  22.312  0.00  0.00    +0.122 HD
BRANCH  13  16
ATOM     15  C   UNL     1      12.815   5.472  22.686  0.00  0.00    +0.023 C 
ATOM     16  C   UNL     1      11.753   5.613  23.778  0.00  0.00    +0.048 C 
ATOM     17  C   UNL     1      12.228   6.617  24.831  0.00  0.00    +0.023 C 
ENDBRANCH  13  16
ENDBRANCH  12  13
ENDBRANCH   9  12
ENDBRANCH   8   9
ENDBRANCH   7   8
ENDBRANCH   1   7
BRANCH   4  18
ATOM     18  C   UNL     1      10.276  -2.264  23.223  0.00  0.00    +0.063 C 
BRANCH  18  19
ATOM     19  C   UNL     1       9.329  -2.908  24.239  0.00  0.00    +0.164 C 
BRANCH  19  20
ATOM     20  O   UNL     1       9.717  -4.259  24.490  0.00  0.00    -0.379 OA
BRANCH  20  21
ATOM     21  C   UNL     1       8.563  -5.098  24.559  0.00  0.00    +0.163 C 
BRANCH  21  22
ATOM     22  C   UNL     1       7.629  -4.738  23.451  0.00  0.00    +0.015 C 
ATOM     23  C   UNL     1       6.283  -5.405  23.322  0.00  0.00    +0.006 C 
ATOM     24  C   UNL     1       7.380  -5.734  22.346  0.00  0.00    +0.006 C 
ENDBRANCH  21  22
ENDBRANCH  20  21
ENDBRANCH  19  20
ENDBRANCH  18  19
ENDBRANCH   4  18
TORSDOF 12
ENDMDL
MODEL 7
REMARK VINA RESULT:      -4.9      2.728      4.566
REMARK  Name = 
REMARK  14 active torsions:
REMARK  status: ('A' for Active; 'I' for Inactive)
REMARK    1  A    between atoms: C_1  and  C_2
REMARK    2  A    between atoms: C_2  and  C_3
REMARK    3  A    between atoms: C_2  and  N_4
REMARK    4  A    between atoms: N_4  and  C_5
REMARK    5  A    between atoms: C_5  and  C_6
REMARK    6  A    between atoms: C_6  and  O_7
REMARK    7  A    between atoms: C_6  and  C_8
REMARK    8  A    between atoms: C_8  and  O_9
REMARK    9  A    between atoms: O_9  and  C_10
REMARK   10  A    between atoms: C_13  and  C_14
REMARK   11  A    between atoms: C_14  and  C_15
REMARK   12  A    between atoms: C_15  and  O_16
REMARK   13  A    between atoms: O_16  and  C_17
REMARK   14  A    between atoms: C_17  and  C_18
REMARK                            x       y       z     vdW  Elec       q    Type
REMARK                         _______ _______ _______ _____ _____    ______ ____
ROOT
ATOM      1  C   UNL     1      10.019  -0.823  23.895  0.00  0.00    +0.121 A 
ATOM      2  C   UNL     1       9.275  -0.589  25.053  0.00  0.00    +0.046 A 
ATOM      3  C   UNL     1       8.608  -1.647  25.694  0.00  0.00    +0.007 A 
ATOM      4  C   UNL     1       8.674  -2.944  25.178  0.00  0.00    -0.045 A 
ATOM      5  C   UNL     1       9.408  -3.163  24.007  0.00  0.00    +0.007 A 
ATOM      6  C   UNL     1      10.085  -2.118  23.385  0.00  0.00    +0.046 A 
ENDROOT
BRANCH   1   7
ATOM      7  O   UNL     1      10.635   0.269  23.329  0.00  0.00    -0.489 OA
BRANCH   7   8
ATOM      8  C   UNL     1      10.504   1.483  24.088  0.00  0.00    +0.261 C 
BRANCH   8   9
ATOM      9  C   UNL     1       9.917   2.605  23.232  0.00  0.00    +0.166 C 
BRANCH   9  10
ATOM     10  O   UNL     1      10.440   2.543  21.899  0.00  0.00    -0.387 OA
ATOM     11  H   UNL     1      10.760   1.629  21.776  0.00  0.00    +0.210 HD
ENDBRANCH   9  10
BRANCH   9  12
ATOM     12  C   UNL     1      10.200   3.983  23.850  0.00  0.00    +0.115 C 
BRANCH  12  13
ATOM     13  N   UNL     1      11.040   4.761  22.935  0.00  0.00    -0.311 NA
ATOM     14  H   UNL     1      11.165   4.215  22.080  0.00  0.00    +0.122 HD
BRANCH  13  16
ATOM     15  C   UNL     1      13.266   5.500  22.346  0.00  0.00    +0.023 C 
ATOM     16  C   UNL     1      12.338   5.130  23.504  0.00  0.00    +0.048 C 
ATOM     17  C   UNL     1      12.224   6.311  24.470  0.00  0.00    +0.023 C 
ENDBRANCH  13  16
ENDBRANCH  12  13
ENDBRANCH   9  12
ENDBRANCH   8   9
ENDBRANCH   7   8
ENDBRANCH   1   7
BRANCH   4  18
ATOM     18  C   UNL     1       7.980  -4.110  25.839  0.00  0.00    +0.063 C 
BRANCH  18  19
ATOM     19  C   UNL     1       6.457  -3.958  25.806  0.00  0.00    +0.164 C 
BRANCH  19  20
ATOM     20  O   UNL     1       5.867  -5.040  25.083  0.00  0.00    -0.379 OA
BRANCH  20  21
ATOM     21  C   UNL     1       5.676  -4.672  23.716  0.00  0.00    +0.163 C 
BRANCH  21  22
ATOM     22  C   UNL     1       6.043  -5.826  22.843  0.00  0.00    +0.015 C 
ATOM     23  C   UNL     1       7.402  -5.908  22.195  0.00  0.00    +0.006 C 
ATOM     24  C   UNL     1       6.189  -5.609  21.357  0.00  0.00    +0.006 C 
ENDBRANCH  21  22
ENDBRANCH  20  21
ENDBRANCH  19  20
ENDBRANCH  18  19
ENDBRANCH   4  18
TORSDOF 12
ENDMDL
MODEL 8
REMARK VINA RESULT:      -4.8      3.289      7.582
REMARK  Name = 
REMARK  14 active torsions:
REMARK  status: ('A' for Active; 'I' for Inactive)
REMARK    1  A    between atoms: C_1  and  C_2
REMARK    2  A    between atoms: C_2  and  C_3
REMARK    3  A    between atoms: C_2  and  N_4
REMARK    4  A    between atoms: N_4  and  C_5
REMARK    5  A    between atoms: C_5  and  C_6
REMARK    6  A    between atoms: C_6  and  O_7
REMARK    7  A    between atoms: C_6  and  C_8
REMARK    8  A    between atoms: C_8  and  O_9
REMARK    9  A    between atoms: O_9  and  C_10
REMARK   10  A    between atoms: C_13  and  C_14
REMARK   11  A    between atoms: C_14  and  C_15
REMARK   12  A    between atoms: C_15  and  O_16
REMARK   13  A    between atoms: O_16  and  C_17
REMARK   14  A    between atoms: C_17  and  C_18
REMARK                            x       y       z     vdW  Elec       q    Type
REMARK                         _______ _______ _______ _____ _____    ______ ____
ROOT
ATOM      1  C   UNL     1       7.349  -1.570  25.147  0.00  0.00    +0.121 A 
ATOM      2  C   UNL     1       8.206  -0.739  25.872  0.00  0.00    +0.046 A 
ATOM      3  C   UNL     1       8.136   0.657  25.720  0.00  0.00    +0.007 A 
ATOM      4  C   UNL     1       7.215   1.230  24.838  0.00  0.00    -0.045 A 
ATOM      5  C   UNL     1       6.374   0.385  24.105  0.00  0.00    +0.007 A 
ATOM      6  C   UNL     1       6.430  -0.996  24.271  0.00  0.00    +0.046 A 
ENDROOT
BRANCH   1   7
ATOM      7  O   UNL     1       7.489  -2.924  25.351  0.00  0.00    -0.489 OA
BRANCH   7   8
ATOM      8  C   UNL     1       8.655  -3.499  24.736  0.00  0.00    +0.261 C 
BRANCH   8   9
ATOM      9  C   UNL     1       8.517  -5.016  24.611  0.00  0.00    +0.166 C 
BRANCH   9  10
ATOM     10  O   UNL     1       9.804  -5.643  24.691  0.00  0.00    -0.387 OA
ATOM     11  H   UNL     1      10.343  -5.247  23.980  0.00  0.00    +0.210 HD
ENDBRANCH   9  10
BRANCH   9  12
ATOM     12  C   UNL     1       7.817  -5.405  23.300  0.00  0.00    +0.115 C 
BRANCH  12  13
ATOM     13  N   UNL     1       7.469  -4.190  22.558  0.00  0.00    -0.311 NA
ATOM     14  H   UNL     1       7.447  -3.411  23.219  0.00  0.00    +0.122 HD
BRANCH  13  16
ATOM     15  C   UNL     1       6.136  -5.674  21.191  0.00  0.00    +0.023 C 
ATOM     16  C   UNL     1       6.199  -4.289  21.837  0.00  0.00    +0.048 C 
ATOM     17  C   UNL     1       4.998  -4.099  22.765  0.00  0.00    +0.023 C 
ENDBRANCH  13  16
ENDBRANCH  12  13
ENDBRANCH   9  12
ENDBRANCH   8   9
ENDBRANCH   7   8
ENDBRANCH   1   7
BRANCH   4  18
ATOM     18  C   UNL     1       7.101   2.724  24.652  0.00  0.00    +0.063 C 
BRANCH  18  19
ATOM     19  C   UNL     1       8.473   3.401  24.640  0.00  0.00    +0.164 C 
BRANCH  19  20
ATOM     20  O   UNL     1       9.021   3.386  23.321  0.00  0.00    -0.379 OA
BRANCH  20  21
ATOM     21  C   UNL     1      10.182   2.554  23.279  0.00  0.00    +0.163 C 
BRANCH  21  22
ATOM     22  C   UNL     1      10.136   1.711  22.048  0.00  0.00    +0.015 C 
ATOM     23  C   UNL     1       8.826   1.189  21.512  0.00  0.00    +0.006 C 
ATOM     24  C   UNL     1       9.796   0.247  22.170  0.00  0.00    +0.006 C 
ENDBRANCH  21  22
ENDBRANCH  20  21
ENDBRANCH  19  20
ENDBRANCH  18  19
ENDBRANCH   4  18
TORSDOF 12
ENDMDL
MODEL 9
REMARK VINA RESULT:      -4.7      3.277      7.407
REMARK  Name = 
REMARK  14 active torsions:
REMARK  status: ('A' for Active; 'I' for Inactive)
REMARK    1  A    between atoms: C_1  and  C_2
REMARK    2  A    between atoms: C_2  and  C_3
REMARK    3  A    between atoms: C_2  and  N_4
REMARK    4  A    between atoms: N_4  and  C_5
REMARK    5  A    between atoms: C_5  and  C_6
REMARK    6  A    between atoms: C_6  and  O_7
REMARK    7  A    between atoms: C_6  and  C_8
REMARK    8  A    between atoms: C_8  and  O_9
REMARK    9  A    between atoms: O_9  and  C_10
REMARK   10  A    between atoms: C_13  and  C_14
REMARK   11  A    between atoms: C_14  and  C_15
REMARK   12  A    between atoms: C_15  and  O_16
REMARK   13  A    between atoms: O_16  and  C_17
REMARK   14  A    between atoms: C_17  and  C_18
REMARK                            x       y       z     vdW  Elec       q    Type
REMARK                         _______ _______ _______ _____ _____    ______ ____
ROOT
ATOM      1  C   UNL     1       9.155  -1.630  22.917  0.00  0.00    +0.121 A 
ATOM      2  C   UNL     1       9.419  -1.258  24.237  0.00  0.00    +0.046 A 
ATOM      3  C   UNL     1       9.954   0.010  24.523  0.00  0.00    +0.007 A 
ATOM      4  C   UNL     1      10.234   0.911  23.492  0.00  0.00    -0.045 A 
ATOM      5  C   UNL     1       9.980   0.520  22.172  0.00  0.00    +0.007 A 
ATOM      6  C   UNL     1       9.432  -0.728  21.892  0.00  0.00    +0.046 A 
ENDROOT
BRANCH   1   7
ATOM      7  O   UNL     1       8.638  -2.891  22.726  0.00  0.00    -0.489 OA
BRANCH   7   8
ATOM      8  C   UNL     1       7.287  -2.909  22.232  0.00  0.00    +0.261 C 
BRANCH   8   9
ATOM      9  C   UNL     1       6.800  -4.342  22.020  0.00  0.00    +0.166 C 
BRANCH   9  10
ATOM     10  O   UNL     1       5.372  -4.371  21.892  0.00  0.00    -0.387 OA
ATOM     11  H   UNL     1       5.118  -5.313  21.917  0.00  0.00    +0.210 HD
ENDBRANCH   9  10
BRANCH   9  12
ATOM     12  C   UNL     1       7.250  -5.258  23.168  0.00  0.00    +0.115 C 
BRANCH  12  13
ATOM     13  N   UNL     1       6.892  -4.641  24.449  0.00  0.00    -0.311 NA
ATOM     14  H   UNL     1       7.014  -3.631  24.357  0.00  0.00    +0.122 HD
BRANCH  13  16
ATOM     15  C   UNL     1       9.105  -5.366  25.103  0.00  0.00    +0.023 C 
ATOM     16  C   UNL     1       7.667  -5.152  25.581  0.00  0.00    +0.048 C 
ATOM     17  C   UNL     1       7.657  -4.184  26.765  0.00  0.00    +0.023 C 
ENDBRANCH  13  16
ENDBRANCH  12  13
ENDBRANCH   9  12
ENDBRANCH   8   9
ENDBRANCH   7   8
ENDBRANCH   1   7
BRANCH   4  18
ATOM     18  C   UNL     1      10.800   2.286  23.756  0.00  0.00    +0.063 C 
BRANCH  18  19
ATOM     19  C   UNL     1       9.752   3.382  23.547  0.00  0.00    +0.164 C 
BRANCH  19  20
ATOM     20  O   UNL     1       8.973   3.555  24.732  0.00  0.00    -0.379 OA
BRANCH  20  21
ATOM     21  C   UNL     1       7.606   3.229  24.475  0.00  0.00    +0.163 C 
BRANCH  21  22
ATOM     22  C   UNL     1       7.389   3.159  22.999  0.00  0.00    +0.015 C 
ATOM     23  C   UNL     1       6.024   3.393  22.403  0.00  0.00    +0.006 C 
ATOM     24  C   UNL     1       6.605   2.006  22.424  0.00  0.00    +0.006 C 
ENDBRANCH  21  22
ENDBRANCH  20  21
ENDBRANCH  19  20
ENDBRANCH  18  19
ENDBRANCH   4  18
TORSDOF 12
ENDMDL
