MODEL 1
REMARK VINA RESULT:      -6.5      0.000      0.000
REMARK  Name = 
REMARK  11 active torsions:
REMARK  status: ('A' for Active; 'I' for Inactive)
REMARK    1  A    between atoms: C_1  and  C_2
REMARK    2  A    between atoms: C_2  and  C_3
REMARK    3  A    between atoms: C_2  and  N_4
REMARK    4  A    between atoms: N_4  and  C_5
REMARK    5  A    between atoms: C_5  and  C_6
REMARK    6  A    between atoms: C_6  and  O_7
REMARK    7  A    between atoms: C_6  and  C_8
REMARK    8  A    between atoms: C_8  and  O_9
REMARK    9  A    between atoms: O_9  and  C_10
REMARK   10  A    between atoms: C_17  and  C_19
REMARK   11  A    between atoms: C_19  and  C_20
REMARK                            x       y       z     vdW  Elec       q    Type
REMARK                         _______ _______ _______ _____ _____    ______ ____
ROOT
ATOM      1  C   UNL     1       8.800  -1.116  24.035  0.00  0.00    +0.162 A 
ATOM      2  C   UNL     1       8.256  -2.352  23.691  0.00  0.00    +0.166 A 
ATOM      3  O   UNL     1       7.988  -2.777  22.412  0.00  0.00    -0.477 OA
ATOM      4  C   UNL     1       7.558  -4.148  22.545  0.00  0.00    +0.243 C 
ATOM      5  C   UNL     1       7.366  -4.508  24.021  0.00  0.00    +0.091 C 
ATOM      6  C   UNL     1       7.904  -3.288  24.655  0.00  0.00    +0.002 A 
ATOM      7  C   UNL     1       8.059  -3.027  26.005  0.00  0.00    +0.007 A 
ATOM      8  C   UNL     1       8.584  -1.795  26.378  0.00  0.00    +0.004 A 
ATOM      9  C   UNL     1       8.951  -0.851  25.404  0.00  0.00    +0.049 A 
ENDROOT
BRANCH   4  10
ATOM     10  C   UNL     1       6.278  -4.471  21.775  0.00  0.00    +0.171 C 
ATOM     11  O   UNL     1       5.462  -3.581  21.512  0.00  0.00    -0.294 OA
ATOM     12  C   UNL     1       6.103  -5.850  21.198  0.00  0.00    +0.090 C 
ENDBRANCH   4  10
BRANCH   1  13
ATOM     13  O   UNL     1       9.152  -0.259  23.023  0.00  0.00    -0.486 OA
BRANCH  13  14
ATOM     14  C   UNL     1      10.206   0.669  23.331  0.00  0.00    +0.261 C 
BRANCH  14  15
ATOM     15  C   UNL     1       9.843   2.085  22.867  0.00  0.00    +0.166 C 
BRANCH  15  16
ATOM     16  O   UNL     1      10.072   2.212  21.457  0.00  0.00    -0.387 OA
ATOM     17  H   UNL     1      10.330   1.328  21.144  0.00  0.00    +0.210 HD
ENDBRANCH  15  16
BRANCH  15  18
ATOM     18  C   UNL     1      10.645   3.160  23.627  0.00  0.00    +0.115 C 
BRANCH  18  19
ATOM     19  N   UNL     1      11.484   3.919  22.687  0.00  0.00    -0.311 NA
ATOM     20  H   UNL     1      12.078   3.251  22.190  0.00  0.00    +0.122 HD
BRANCH  19  22
ATOM     21  C   UNL     1      13.190   5.601  22.270  0.00  0.00    +0.023 C 
ATOM     22  C   UNL     1      12.304   4.948  23.335  0.00  0.00    +0.048 C 
ATOM     23  C   UNL     1      11.447   6.022  24.010  0.00  0.00    +0.023 C 
ENDBRANCH  19  22
ENDBRANCH  18  19
ENDBRANCH  15  18
ENDBRANCH  14  15
ENDBRANCH  13  14
ENDBRANCH   1  13
TORSDOF 8
ENDMDL
MODEL 2
REMARK VINA RESULT:      -6.4      2.719      4.645
REMARK  Name = 
REMARK  11 active torsions:
REMARK  status: ('A' for Active; 'I' for Inactive)
REMARK    1  A    between atoms: C_1  and  C_2
REMARK    2  A    between atoms: C_2  and  C_3
REMARK    3  A    between atoms: C_2  and  N_4
REMARK    4  A    between atoms: N_4  and  C_5
REMARK    5  A    between atoms: C_5  and  C_6
REMARK    6  A    between atoms: C_6  and  O_7
REMARK    7  A    between atoms: C_6  and  C_8
REMARK    8  A    between atoms: C_8  and  O_9
REMARK    9  A    between atoms: O_9  and  C_10
REMARK   10  A    between atoms: C_17  and  C_19
REMARK   11  A    between atoms: C_19  and  C_20
REMARK                            x       y       z     vdW  Elec       q    Type
REMARK                         _______ _______ _______ _____ _____    ______ ____
ROOT
ATOM      1  C   UNL     1       6.886  -3.377  22.567  0.00  0.00    +0.162 A 
ATOM      2  C   UNL     1       6.718  -4.061  23.770  0.00  0.00    +0.166 A 
ATOM      3  O   UNL     1       7.135  -3.620  25.003  0.00  0.00    -0.477 OA
ATOM      4  C   UNL     1       6.636  -4.591  25.946  0.00  0.00    +0.243 C 
ATOM      5  C   UNL     1       6.049  -5.800  25.212  0.00  0.00    +0.091 C 
ATOM      6  C   UNL     1       6.109  -5.308  23.820  0.00  0.00    +0.002 A 
ATOM      7  C   UNL     1       5.658  -5.939  22.675  0.00  0.00    +0.007 A 
ATOM      8  C   UNL     1       5.828  -5.288  21.458  0.00  0.00    +0.004 A 
ATOM      9  C   UNL     1       6.433  -4.020  21.405  0.00  0.00    +0.049 A 
ENDROOT
BRANCH   4  10
ATOM     10  C   UNL     1       7.683  -5.069  26.951  0.00  0.00    +0.171 C 
ATOM     11  O   UNL     1       7.370  -5.834  27.869  0.00  0.00    -0.294 OA
ATOM     12  C   UNL     1       9.130  -4.728  26.713  0.00  0.00    +0.090 C 
ENDBRANCH   4  10
BRANCH   1  13
ATOM     13  O   UNL     1       7.467  -2.135  22.604  0.00  0.00    -0.486 OA
BRANCH  13  14
ATOM     14  C   UNL     1       8.801  -2.054  22.074  0.00  0.00    +0.261 C 
BRANCH  14  15
ATOM     15  C   UNL     1       9.829  -1.889  23.199  0.00  0.00    +0.166 C 
BRANCH  15  16
ATOM     16  O   UNL     1      10.044  -3.147  23.854  0.00  0.00    -0.387 OA
ATOM     17  H   UNL     1       9.785  -3.833  23.214  0.00  0.00    +0.210 HD
ENDBRANCH  15  16
BRANCH  15  18
ATOM     18  C   UNL     1       9.387  -0.832  24.229  0.00  0.00    +0.115 C 
BRANCH  18  19
ATOM     19  N   UNL     1       8.644   0.245  23.557  0.00  0.00    -0.311 NA
ATOM     20  H   UNL     1       8.331  -0.110  22.649  0.00  0.00    +0.122 HD
BRANCH  19  22
ATOM     21  C   UNL     1      10.636   1.414  24.317  0.00  0.00    +0.023 C 
ATOM     22  C   UNL     1       9.426   1.474  23.381  0.00  0.00    +0.048 C 
ATOM     23  C   UNL     1       9.910   1.642  21.938  0.00  0.00    +0.023 C 
ENDBRANCH  19  22
ENDBRANCH  18  19
ENDBRANCH  15  18
ENDBRANCH  14  15
ENDBRANCH  13  14
ENDBRANCH   1  13
TORSDOF 8
ENDMDL
MODEL 3
REMARK VINA RESULT:      -6.2      3.414      7.390
REMARK  Name = 
REMARK  11 active torsions:
REMARK  status: ('A' for Active; 'I' for Inactive)
REMARK    1  A    between atoms: C_1  and  C_2
REMARK    2  A    between atoms: C_2  and  C_3
REMARK    3  A    between atoms: C_2  and  N_4
REMARK    4  A    between atoms: N_4  and  C_5
REMARK    5  A    between atoms: C_5  and  C_6
REMARK    6  A    between atoms: C_6  and  O_7
REMARK    7  A    between atoms: C_6  and  C_8
REMARK    8  A    between atoms: C_8  and  O_9
REMARK    9  A    between atoms: O_9  and  C_10
REMARK   10  A    between atoms: C_17  and  C_19
REMARK   11  A    between atoms: C_19  and  C_20
REMARK                            x       y       z     vdW  Elec       q    Type
REMARK                         _______ _______ _______ _____ _____    ______ ____
ROOT
ATOM      1  C   UNL     1       8.021  -4.032  23.755  0.00  0.00    +0.162 A 
ATOM      2  C   UNL     1       8.365  -2.707  24.015  0.00  0.00    +0.166 A 
ATOM      3  O   UNL     1       8.477  -1.712  23.073  0.00  0.00    -0.477 OA
ATOM      4  C   UNL     1       8.726  -0.503  23.819  0.00  0.00    +0.243 C 
ATOM      5  C   UNL     1       8.977  -0.826  25.295  0.00  0.00    +0.091 C 
ATOM      6  C   UNL     1       8.658  -2.268  25.300  0.00  0.00    +0.002 A 
ATOM      7  C   UNL     1       8.641  -3.132  26.380  0.00  0.00    +0.007 A 
ATOM      8  C   UNL     1       8.317  -4.464  26.148  0.00  0.00    +0.004 A 
ATOM      9  C   UNL     1       8.009  -4.908  24.851  0.00  0.00    +0.049 A 
ENDROOT
BRANCH   4  10
ATOM     10  C   UNL     1       9.890   0.327  23.278  0.00  0.00    +0.171 C 
ATOM     11  O   UNL     1      10.946   0.417  23.912  0.00  0.00    -0.294 OA
ATOM     12  C   UNL     1       9.793   0.897  21.888  0.00  0.00    +0.090 C 
ENDBRANCH   4  10
BRANCH   1  13
ATOM     13  O   UNL     1       7.712  -4.380  22.465  0.00  0.00    -0.486 OA
BRANCH  13  14
ATOM     14  C   UNL     1       7.367  -5.760  22.256  0.00  0.00    +0.261 C 
BRANCH  14  15
ATOM     15  C   UNL     1       6.002  -5.886  21.570  0.00  0.00    +0.166 C 
BRANCH  15  16
ATOM     16  O   UNL     1       5.880  -4.897  20.538  0.00  0.00    -0.387 OA
ATOM     17  H   UNL     1       5.157  -4.307  20.814  0.00  0.00    +0.210 HD
ENDBRANCH  15  16
BRANCH  15  18
ATOM     18  C   UNL     1       4.841  -5.742  22.573  0.00  0.00    +0.115 C 
BRANCH  18  19
ATOM     19  N   UNL     1       4.554  -4.319  22.808  0.00  0.00    -0.311 NA
ATOM     20  H   UNL     1       5.409  -3.791  22.615  0.00  0.00    +0.122 HD
BRANCH  19  22
ATOM     21  C   UNL     1       4.369  -5.255  25.045  0.00  0.00    +0.023 C 
ATOM     22  C   UNL     1       4.077  -4.035  24.167  0.00  0.00    +0.048 C 
ATOM     23  C   UNL     1       4.759  -2.803  24.767  0.00  0.00    +0.023 C 
ENDBRANCH  19  22
ENDBRANCH  18  19
ENDBRANCH  15  18
ENDBRANCH  14  15
ENDBRANCH  13  14
ENDBRANCH   1  13
TORSDOF 8
ENDMDL
MODEL 4
REMARK VINA RESULT:      -6.2      2.464      2.977
REMARK  Name = 
REMARK  11 active torsions:
REMARK  status: ('A' for Active; 'I' for Inactive)
REMARK    1  A    between atoms: C_1  and  C_2
REMARK    2  A    between atoms: C_2  and  C_3
REMARK    3  A    between atoms: C_2  and  N_4
REMARK    4  A    between atoms: N_4  and  C_5
REMARK    5  A    between atoms: C_5  and  C_6
REMARK    6  A    between atoms: C_6  and  O_7
REMARK    7  A    between atoms: C_6  and  C_8
REMARK    8  A    between atoms: C_8  and  O_9
REMARK    9  A    between atoms: O_9  and  C_10
REMARK   10  A    between atoms: C_17  and  C_19
REMARK   11  A    between atoms: C_19  and  C_20
REMARK                            x       y       z     vdW  Elec       q    Type
REMARK                         _______ _______ _______ _____ _____    ______ ____
ROOT
ATOM      1  C   UNL     1       7.121  -0.510  24.403  0.00  0.00    +0.162 A 
ATOM      2  C   UNL     1       7.232  -1.762  23.802  0.00  0.00    +0.166 A 
ATOM      3  O   UNL     1       6.637  -2.134  22.620  0.00  0.00    -0.477 OA
ATOM      4  C   UNL     1       7.135  -3.460  22.341  0.00  0.00    +0.243 C 
ATOM      5  C   UNL     1       7.928  -3.997  23.536  0.00  0.00    +0.091 C 
ATOM      6  C   UNL     1       7.966  -2.788  24.383  0.00  0.00    +0.002 A 
ATOM      7  C   UNL     1       8.605  -2.620  25.598  0.00  0.00    +0.007 A 
ATOM      8  C   UNL     1       8.498  -1.386  26.230  0.00  0.00    +0.004 A 
ATOM      9  C   UNL     1       7.766  -0.342  25.638  0.00  0.00    +0.049 A 
ENDROOT
BRANCH   4  10
ATOM     10  C   UNL     1       6.044  -4.461  21.966  0.00  0.00    +0.171 C 
ATOM     11  O   UNL     1       4.858  -4.219  22.209  0.00  0.00    -0.294 OA
ATOM     12  C   UNL     1       6.415  -5.671  21.149  0.00  0.00    +0.090 C 
ENDBRANCH   4  10
BRANCH   1  13
ATOM     13  O   UNL     1       6.407   0.462  23.750  0.00  0.00    -0.486 OA
BRANCH  13  14
ATOM     14  C   UNL     1       6.755   1.818  24.076  0.00  0.00    +0.261 C 
BRANCH  14  15
ATOM     15  C   UNL     1       6.837   2.682  22.812  0.00  0.00    +0.166 C 
BRANCH  15  16
ATOM     16  O   UNL     1       5.517   2.979  22.335  0.00  0.00    -0.387 OA
ATOM     17  H   UNL     1       4.941   2.979  23.119  0.00  0.00    +0.210 HD
ENDBRANCH  15  16
BRANCH  15  18
ATOM     18  C   UNL     1       7.653   1.995  21.700  0.00  0.00    +0.115 C 
BRANCH  18  19
ATOM     19  N   UNL     1       9.059   2.421  21.771  0.00  0.00    -0.311 NA
ATOM     20  H   UNL     1       9.275   2.931  20.911  0.00  0.00    +0.122 HD
BRANCH  19  22
ATOM     21  C   UNL     1      10.341   1.206  23.443  0.00  0.00    +0.023 C 
ATOM     22  C   UNL     1       9.999   1.309  21.954  0.00  0.00    +0.048 C 
ATOM     23  C   UNL     1       9.411  -0.021  21.475  0.00  0.00    +0.023 C 
ENDBRANCH  19  22
ENDBRANCH  18  19
ENDBRANCH  15  18
ENDBRANCH  14  15
ENDBRANCH  13  14
ENDBRANCH   1  13
TORSDOF 8
ENDMDL
MODEL 5
REMARK VINA RESULT:      -6.2      2.028      2.464
REMARK  Name = 
REMARK  11 active torsions:
REMARK  status: ('A' for Active; 'I' for Inactive)
REMARK    1  A    between atoms: C_1  and  C_2
REMARK    2  A    between atoms: C_2  and  C_3
REMARK    3  A    between atoms: C_2  and  N_4
REMARK    4  A    between atoms: N_4  and  C_5
REMARK    5  A    between atoms: C_5  and  C_6
REMARK    6  A    between atoms: C_6  and  O_7
REMARK    7  A    between atoms: C_6  and  C_8
REMARK    8  A    between atoms: C_8  and  O_9
REMARK    9  A    between atoms: O_9  and  C_10
REMARK   10  A    between atoms: C_17  and  C_19
REMARK   11  A    between atoms: C_19  and  C_20
REMARK                            x       y       z     vdW  Elec       q    Type
REMARK                         _______ _______ _______ _____ _____    ______ ____
ROOT
ATOM      1  C   UNL     1       9.019  -1.407  23.889  0.00  0.00    +0.162 A 
ATOM      2  C   UNL     1       8.278  -2.579  23.755  0.00  0.00    +0.166 A 
ATOM      3  O   UNL     1       8.037  -3.240  22.574  0.00  0.00    -0.477 OA
ATOM      4  C   UNL     1       7.343  -4.449  22.946  0.00  0.00    +0.243 C 
ATOM      5  C   UNL     1       6.968  -4.417  24.430  0.00  0.00    +0.091 C 
ATOM      6  C   UNL     1       7.678  -3.191  24.848  0.00  0.00    +0.002 A 
ATOM      7  C   UNL     1       7.771  -2.653  26.119  0.00  0.00    +0.007 A 
ATOM      8  C   UNL     1       8.490  -1.474  26.280  0.00  0.00    +0.004 A 
ATOM      9  C   UNL     1       9.109  -0.859  25.178  0.00  0.00    +0.049 A 
ENDROOT
BRANCH   4  10
ATOM     10  C   UNL     1       6.092  -4.722  22.114  0.00  0.00    +0.171 C 
ATOM     11  O   UNL     1       5.112  -3.972  22.186  0.00  0.00    -0.294 OA
ATOM     12  C   UNL     1       6.127  -5.819  21.083  0.00  0.00    +0.090 C 
ENDBRANCH   4  10
BRANCH   1  13
ATOM     13  O   UNL     1       9.610  -0.882  22.768  0.00  0.00    -0.486 OA
BRANCH  13  14
ATOM     14  C   UNL     1      10.150   0.443  22.909  0.00  0.00    +0.261 C 
BRANCH  14  15
ATOM     15  C   UNL     1       9.745   1.330  21.726  0.00  0.00    +0.166 C 
BRANCH  15  16
ATOM     16  O   UNL     1      10.557   2.512  21.700  0.00  0.00    -0.387 OA
ATOM     17  H   UNL     1      10.298   3.036  22.478  0.00  0.00    +0.210 HD
ENDBRANCH  15  16
BRANCH  15  18
ATOM     18  C   UNL     1       8.255   1.721  21.787  0.00  0.00    +0.115 C 
BRANCH  18  19
ATOM     19  N   UNL     1       8.117   3.101  22.276  0.00  0.00    -0.311 NA
ATOM     20  H   UNL     1       9.041   3.539  22.242  0.00  0.00    +0.122 HD
BRANCH  19  22
ATOM     21  C   UNL     1       6.787   1.899  23.919  0.00  0.00    +0.023 C 
ATOM     22  C   UNL     1       7.561   3.188  23.631  0.00  0.00    +0.048 C 
ATOM     23  C   UNL     1       8.655   3.369  24.687  0.00  0.00    +0.023 C 
ENDBRANCH  19  22
ENDBRANCH  18  19
ENDBRANCH  15  18
ENDBRANCH  14  15
ENDBRANCH  13  14
ENDBRANCH   1  13
TORSDOF 8
ENDMDL
MODEL 6
REMARK VINA RESULT:      -6.2      2.292      3.407
REMARK  Name = 
REMARK  11 active torsions:
REMARK  status: ('A' for Active; 'I' for Inactive)
REMARK    1  A    between atoms: C_1  and  C_2
REMARK    2  A    between atoms: C_2  and  C_3
REMARK    3  A    between atoms: C_2  and  N_4
REMARK    4  A    between atoms: N_4  and  C_5
REMARK    5  A    between atoms: C_5  and  C_6
REMARK    6  A    between atoms: C_6  and  O_7
REMARK    7  A    between atoms: C_6  and  C_8
REMARK    8  A    between atoms: C_8  and  O_9
REMARK    9  A    between atoms: O_9  and  C_10
REMARK   10  A    between atoms: C_17  and  C_19
REMARK   11  A    between atoms: C_19  and  C_20
REMARK                            x       y       z     vdW  Elec       q    Type
REMARK                         _______ _______ _______ _____ _____    ______ ____
ROOT
ATOM      1  C   UNL     1       8.054  -3.572  23.486  0.00  0.00    +0.162 A 
ATOM      2  C   UNL     1       6.900  -4.318  23.713  0.00  0.00    +0.166 A 
ATOM      3  O   UNL     1       5.791  -4.339  22.901  0.00  0.00    -0.477 OA
ATOM      4  C   UNL     1       4.917  -5.337  23.469  0.00  0.00    +0.243 C 
ATOM      5  C   UNL     1       5.451  -5.806  24.826  0.00  0.00    +0.091 C 
ATOM      6  C   UNL     1       6.759  -5.120  24.839  0.00  0.00    +0.002 A 
ATOM      7  C   UNL     1       7.752  -5.198  25.798  0.00  0.00    +0.007 A 
ATOM      8  C   UNL     1       8.909  -4.451  25.607  0.00  0.00    +0.004 A 
ATOM      9  C   UNL     1       9.059  -3.649  24.463  0.00  0.00    +0.049 A 
ENDROOT
BRANCH   4  10
ATOM     10  C   UNL     1       3.471  -4.871  23.627  0.00  0.00    +0.171 C 
ATOM     11  O   UNL     1       2.583  -5.316  22.891  0.00  0.00    -0.294 OA
ATOM     12  C   UNL     1       3.112  -3.991  24.795  0.00  0.00    +0.090 C 
ENDBRANCH   4  10
BRANCH   1  13
ATOM     13  O   UNL     1       8.131  -2.831  22.334  0.00  0.00    -0.486 OA
BRANCH  13  14
ATOM     14  C   UNL     1       8.277  -1.412  22.514  0.00  0.00    +0.261 C 
BRANCH  14  15
ATOM     15  C   UNL     1       9.373  -0.854  21.597  0.00  0.00    +0.166 C 
BRANCH  15  16
ATOM     16  O   UNL     1      10.572  -1.627  21.741  0.00  0.00    -0.387 OA
ATOM     17  H   UNL     1      11.296  -1.066  21.412  0.00  0.00    +0.210 HD
ENDBRANCH  15  16
BRANCH  15  18
ATOM     18  C   UNL     1       9.667   0.630  21.896  0.00  0.00    +0.115 C 
BRANCH  18  19
ATOM     19  N   UNL     1       8.975   1.043  23.126  0.00  0.00    -0.311 NA
ATOM     20  H   UNL     1       8.224   1.685  22.861  0.00  0.00    +0.122 HD
BRANCH  19  22
ATOM     21  C   UNL     1      10.808   0.603  24.662  0.00  0.00    +0.023 C 
ATOM     22  C   UNL     1       9.860   1.672  24.112  0.00  0.00    +0.048 C 
ATOM     23  C   UNL     1      10.680   2.811  23.499  0.00  0.00    +0.023 C 
ENDBRANCH  19  22
ENDBRANCH  18  19
ENDBRANCH  15  18
ENDBRANCH  14  15
ENDBRANCH  13  14
ENDBRANCH   1  13
TORSDOF 8
ENDMDL
MODEL 7
REMARK VINA RESULT:      -6.2      2.122      2.459
REMARK  Name = 
REMARK  11 active torsions:
REMARK  status: ('A' for Active; 'I' for Inactive)
REMARK    1  A    between atoms: C_1  and  C_2
REMARK    2  A    between atoms: C_2  and  C_3
REMARK    3  A    between atoms: C_2  and  N_4
REMARK    4  A    between atoms: N_4  and  C_5
REMARK    5  A    between atoms: C_5  and  C_6
REMARK    6  A    between atoms: C_6  and  O_7
REMARK    7  A    between atoms: C_6  and  C_8
REMARK    8  A    between atoms: C_8  and  O_9
REMARK    9  A    between atoms: O_9  and  C_10
REMARK   10  A    between atoms: C_17  and  C_19
REMARK   11  A    between atoms: C_19  and  C_20
REMARK                            x       y       z     vdW  Elec       q    Type
REMARK                         _______ _______ _______ _____ _____    ______ ____
ROOT
ATOM      1  C   UNL     1       9.119  -2.097  24.601  0.00  0.00    +0.162 A 
ATOM      2  C   UNL     1       8.366  -3.247  24.374  0.00  0.00    +0.166 A 
ATOM      3  O   UNL     1       8.513  -4.100  23.306  0.00  0.00    -0.477 OA
ATOM      4  C   UNL     1       7.613  -5.197  23.564  0.00  0.00    +0.243 C 
ATOM      5  C   UNL     1       6.721  -4.887  24.770  0.00  0.00    +0.091 C 
ATOM      6  C   UNL     1       7.345  -3.632  25.235  0.00  0.00    +0.002 A 
ATOM      7  C   UNL     1       7.016  -2.878  26.347  0.00  0.00    +0.007 A 
ATOM      8  C   UNL     1       7.740  -1.716  26.588  0.00  0.00    +0.004 A 
ATOM      9  C   UNL     1       8.780  -1.331  25.726  0.00  0.00    +0.049 A 
ENDROOT
BRANCH   4  10
ATOM     10  C   UNL     1       6.737  -5.570  22.369  0.00  0.00    +0.171 C 
ATOM     11  O   UNL     1       7.248  -5.893  21.292  0.00  0.00    -0.294 OA
ATOM     12  C   UNL     1       5.250  -5.699  22.567  0.00  0.00    +0.090 C 
ENDBRANCH   4  10
BRANCH   1  13
ATOM     13  O   UNL     1      10.132  -1.803  23.724  0.00  0.00    -0.486 OA
BRANCH  13  14
ATOM     14  C   UNL     1      10.405  -0.404  23.532  0.00  0.00    +0.261 C 
BRANCH  14  15
ATOM     15  C   UNL     1       9.600   0.154  22.352  0.00  0.00    +0.166 C 
BRANCH  15  16
ATOM     16  O   UNL     1       9.737  -0.708  21.214  0.00  0.00    -0.387 OA
ATOM     17  H   UNL     1      10.656  -1.025  21.224  0.00  0.00    +0.210 HD
ENDBRANCH  15  16
BRANCH  15  18
ATOM     18  C   UNL     1      10.043   1.583  21.982  0.00  0.00    +0.115 C 
BRANCH  18  19
ATOM     19  N   UNL     1       8.877   2.380  21.569  0.00  0.00    -0.311 NA
ATOM     20  H   UNL     1       9.205   3.097  20.917  0.00  0.00    +0.122 HD
BRANCH  19  22
ATOM     21  C   UNL     1       9.195   3.653  23.617  0.00  0.00    +0.023 C 
ATOM     22  C   UNL     1       8.164   2.999  22.692  0.00  0.00    +0.048 C 
ATOM     23  C   UNL     1       7.163   4.057  22.220  0.00  0.00    +0.023 C 
ENDBRANCH  19  22
ENDBRANCH  18  19
ENDBRANCH  15  18
ENDBRANCH  14  15
ENDBRANCH  13  14
ENDBRANCH   1  13
TORSDOF 8
ENDMDL
MODEL 8
REMARK VINA RESULT:      -5.9      2.715      4.195
REMARK  Name = 
REMARK  11 active torsions:
REMARK  status: ('A' for Active; 'I' for Inactive)
REMARK    1  A    between atoms: C_1  and  C_2
REMARK    2  A    between atoms: C_2  and  C_3
REMARK    3  A    between atoms: C_2  and  N_4
REMARK    4  A    between atoms: N_4  and  C_5
REMARK    5  A    between atoms: C_5  and  C_6
REMARK    6  A    between atoms: C_6  and  O_7
REMARK    7  A    between atoms: C_6  and  C_8
REMARK    8  A    between atoms: C_8  and  O_9
REMARK    9  A    between atoms: O_9  and  C_10
REMARK   10  A    between atoms: C_17  and  C_19
REMARK   11  A    between atoms: C_19  and  C_20
REMARK                            x       y       z     vdW  Elec       q    Type
REMARK                         _______ _______ _______ _____ _____    ______ ____
ROOT
ATOM      1  C   UNL     1       7.405  -4.783  26.241  0.00  0.00    +0.162 A 
ATOM      2  C   UNL     1       6.879  -5.180  25.014  0.00  0.00    +0.166 A 
ATOM      3  O   UNL     1       7.421  -4.895  23.784  0.00  0.00    -0.477 OA
ATOM      4  C   UNL     1       6.609  -5.612  22.831  0.00  0.00    +0.243 C 
ATOM      5  C   UNL     1       5.378  -6.210  23.518  0.00  0.00    +0.091 C 
ATOM      6  C   UNL     1       5.701  -5.912  24.928  0.00  0.00    +0.002 A 
ATOM      7  C   UNL     1       4.984  -6.261  26.058  0.00  0.00    +0.007 A 
ATOM      8  C   UNL     1       5.476  -5.863  27.296  0.00  0.00    +0.004 A 
ATOM      9  C   UNL     1       6.674  -5.133  27.386  0.00  0.00    +0.049 A 
ENDROOT
BRANCH   4  10
ATOM     10  C   UNL     1       6.163  -4.765  21.640  0.00  0.00    +0.171 C 
ATOM     11  O   UNL     1       5.950  -5.288  20.541  0.00  0.00    -0.294 OA
ATOM     12  C   UNL     1       5.826  -3.315  21.863  0.00  0.00    +0.090 C 
ENDBRANCH   4  10
BRANCH   1  13
ATOM     13  O   UNL     1       8.591  -4.092  26.245  0.00  0.00    -0.486 OA
BRANCH  13  14
ATOM     14  C   UNL     1       8.478  -2.661  26.329  0.00  0.00    +0.261 C 
BRANCH  14  15
ATOM     15  C   UNL     1       8.830  -2.004  24.989  0.00  0.00    +0.166 C 
BRANCH  15  16
ATOM     16  O   UNL     1       9.731  -2.844  24.253  0.00  0.00    -0.387 OA
ATOM     17  H   UNL     1       9.255  -3.107  23.446  0.00  0.00    +0.210 HD
ENDBRANCH  15  16
BRANCH  15  18
ATOM     18  C   UNL     1       9.456  -0.609  25.182  0.00  0.00    +0.115 C 
BRANCH  18  19
ATOM     19  N   UNL     1      10.036  -0.138  23.915  0.00  0.00    -0.311 NA
ATOM     20  H   UNL     1      11.022   0.077  24.084  0.00  0.00    +0.122 HD
BRANCH  19  22
ATOM     21  C   UNL     1       9.500   2.196  24.336  0.00  0.00    +0.023 C 
ATOM     22  C   UNL     1       9.348   1.031  23.355  0.00  0.00    +0.048 C 
ATOM     23  C   UNL     1       9.923   1.435  21.995  0.00  0.00    +0.023 C 
ENDBRANCH  19  22
ENDBRANCH  18  19
ENDBRANCH  15  18
ENDBRANCH  14  15
ENDBRANCH  13  14
ENDBRANCH   1  13
TORSDOF 8
ENDMDL
MODEL 9
REMARK VINA RESULT:      -5.9      3.807      7.814
REMARK  Name = 
REMARK  11 active torsions:
REMARK  status: ('A' for Active; 'I' for Inactive)
REMARK    1  A    between atoms: C_1  and  C_2
REMARK    2  A    between atoms: C_2  and  C_3
REMARK    3  A    between atoms: C_2  and  N_4
REMARK    4  A    between atoms: N_4  and  C_5
REMARK    5  A    between atoms: C_5  and  C_6
REMARK    6  A    between atoms: C_6  and  O_7
REMARK    7  A    between atoms: C_6  and  C_8
REMARK    8  A    between atoms: C_8  and  O_9
REMARK    9  A    between atoms: O_9  and  C_10
REMARK   10  A    between atoms: C_17  and  C_19
REMARK   11  A    between atoms: C_19  and  C_20
REMARK                            x       y       z     vdW  Elec       q    Type
REMARK                         _______ _______ _______ _____ _____    ______ ____
ROOT
ATOM      1  C   UNL     1       9.032  -1.275  23.592  0.00  0.00    +0.162 A 
ATOM      2  C   UNL     1       8.875   0.077  23.890  0.00  0.00    +0.166 A 
ATOM      3  O   UNL     1       8.491   0.585  25.108  0.00  0.00    -0.477 OA
ATOM      4  C   UNL     1       8.590   2.019  24.973  0.00  0.00    +0.243 C 
ATOM      5  C   UNL     1       8.862   2.403  23.516  0.00  0.00    +0.091 C 
ATOM      6  C   UNL     1       9.083   1.063  22.934  0.00  0.00    +0.002 A 
ATOM      7  C   UNL     1       9.435   0.747  21.635  0.00  0.00    +0.007 A 
ATOM      8  C   UNL     1       9.581  -0.595  21.304  0.00  0.00    +0.004 A 
ATOM      9  C   UNL     1       9.384  -1.595  22.272  0.00  0.00    +0.049 A 
ENDROOT
BRANCH   4  10
ATOM     10  C   UNL     1       7.358   2.771  25.473  0.00  0.00    +0.171 C 
ATOM     11  O   UNL     1       6.229   2.288  25.339  0.00  0.00    -0.294 OA
ATOM     12  C   UNL     1       7.549   4.029  26.279  0.00  0.00    +0.090 C 
ENDBRANCH   4  10
BRANCH   1  13
ATOM     13  O   UNL     1       8.842  -2.187  24.599  0.00  0.00    -0.486 OA
BRANCH  13  14
ATOM     14  C   UNL     1       8.767  -3.563  24.188  0.00  0.00    +0.261 C 
BRANCH  14  15
ATOM     15  C   UNL     1       9.564  -4.464  25.140  0.00  0.00    +0.166 C 
BRANCH  15  16
ATOM     16  O   UNL     1       9.645  -5.792  24.605  0.00  0.00    -0.387 OA
ATOM     17  H   UNL     1       9.577  -6.394  25.366  0.00  0.00    +0.210 HD
ENDBRANCH  15  16
BRANCH  15  18
ATOM     18  C   UNL     1       8.938  -4.504  26.548  0.00  0.00    +0.115 C 
BRANCH  18  19
ATOM     19  N   UNL     1       8.116  -5.715  26.698  0.00  0.00    -0.311 NA
ATOM     20  H   UNL     1       8.303  -6.321  25.895  0.00  0.00    +0.122 HD
BRANCH  19  22
ATOM     21  C   UNL     1       6.499  -3.965  27.187  0.00  0.00    +0.023 C 
ATOM     22  C   UNL     1       6.679  -5.436  26.802  0.00  0.00    +0.048 C 
ATOM     23  C   UNL     1       5.946  -5.710  25.486  0.00  0.00    +0.023 C 
ENDBRANCH  19  22
ENDBRANCH  18  19
ENDBRANCH  15  18
ENDBRANCH  14  15
ENDBRANCH  13  14
ENDBRANCH   1  13
TORSDOF 8
ENDMDL
