MODEL 1
REMARK VINA RESULT:      -6.6      0.000      0.000
REMARK  Name = 
REMARK  13 active torsions:
REMARK  status: ('A' for Active; 'I' for Inactive)
REMARK    1  A    between atoms: C_1  and  C_2
REMARK    2  A    between atoms: C_10  and  O_11
REMARK    3  A    between atoms: O_11  and  C_12
REMARK    4  A    between atoms: C_12  and  C_13
REMARK    5  A    between atoms: C_13  and  C_14
REMARK    6  A    between atoms: C_13  and  O_20
REMARK    7  A    between atoms: C_14  and  N_15
REMARK    8  A    between atoms: N_15  and  C_16
REMARK    9  A    between atoms: C_16  and  C_17
REMARK   10  A    between atoms: C_16  and  C_18
REMARK   11  A    between atoms: C_16  and  C_19
REMARK   12  A    between atoms: O_20  and  C_21
REMARK   13  A    between atoms: C_21  and  C_23
REMARK                            x       y       z     vdW  Elec       q    Type
REMARK                         _______ _______ _______ _____ _____    ______ ____
ROOT
ATOM      1  C   UNL     1       9.759  -0.863  24.877  0.00  0.00    +0.228 C 
ENDROOT
BRANCH   1   2
ATOM      2  C   UNL     1       9.593  -1.864  23.713  0.00  0.00    +0.275 C 
BRANCH   2   3
ATOM      3  O   UNL     1       9.984  -3.167  24.150  0.00  0.00    -0.488 OA
BRANCH   3  12
ATOM      4  C   UNL     1       6.026  -5.816  21.179  0.00  0.00    +0.063 C 
ATOM      5  C   UNL     1       6.654  -5.337  22.433  0.00  0.00    +0.014 A 
ATOM      6  N   UNL     1       6.197  -5.725  23.668  0.00  0.00    -0.358 N 
ATOM      7  H   UNL     1       5.396  -6.319  23.831  0.00  0.00    +0.166 HD
ATOM      8  C   UNL     1       7.040  -5.270  24.657  0.00  0.00    +0.050 A 
ATOM      9  C   UNL     1       7.014  -5.499  26.035  0.00  0.00    +0.026 A 
ATOM     10  C   UNL     1       8.042  -4.939  26.795  0.00  0.00    +0.006 A 
ATOM     11  C   UNL     1       9.038  -4.159  26.202  0.00  0.00    +0.046 A 
ATOM     12  C   UNL     1       9.047  -3.912  24.819  0.00  0.00    +0.130 A 
ATOM     13  C   UNL     1       8.023  -4.496  24.039  0.00  0.00    +0.042 A 
ATOM     14  C   UNL     1       7.741  -4.515  22.642  0.00  0.00    +0.034 A 
ENDBRANCH   3  12
ENDBRANCH   2   3
ENDBRANCH   1   2
BRANCH   1  15
ATOM     15  O   UNL     1       8.488  -0.433  25.430  0.00  0.00    -0.453 OA
BRANCH  15  16
ATOM     16  C   UNL     1       7.397  -0.495  24.629  0.00  0.00    +0.340 C 
ATOM     17  O   UNL     1       7.251   0.085  23.565  0.00  0.00    -0.245 OA
BRANCH  16  18
ATOM     18  C   UNL     1       6.341  -1.369  25.201  0.00  0.00    +0.059 A 
ATOM     19  C   UNL     1       5.380  -2.027  24.424  0.00  0.00    +0.015 A 
ATOM     20  C   UNL     1       4.436  -2.853  25.042  0.00  0.00    +0.001 A 
ATOM     21  C   UNL     1       4.449  -3.021  26.428  0.00  0.00    +0.000 A 
ATOM     22  C   UNL     1       5.395  -2.358  27.206  0.00  0.00    +0.001 A 
ATOM     23  C   UNL     1       6.337  -1.534  26.594  0.00  0.00    +0.015 A 
ENDBRANCH  16  18
ENDBRANCH  15  16
ENDBRANCH   1  15
BRANCH   1  24
ATOM     24  C   UNL     1      10.643   0.331  24.437  0.00  0.00    +0.129 C 
BRANCH  24  25
ATOM     25  N   UNL     1       9.999   1.644  24.614  0.00  0.00    -0.308 NA
ATOM     26  H   UNL     1      10.450   2.138  25.385  0.00  0.00    +0.123 HD
BRANCH  25  27
ATOM     27  C   UNL     1       9.990   2.501  23.408  0.00  0.00    +0.011 C 
ATOM     28  C   UNL     1      11.161   3.499  23.396  0.00  0.00    +0.027 C 
ATOM     29  C   UNL     1       8.675   3.307  23.425  0.00  0.00    +0.027 C 
ATOM     30  C   UNL     1      10.007   1.655  22.122  0.00  0.00    +0.027 C 
ENDBRANCH  25  27
ENDBRANCH  24  25
ENDBRANCH   1  24
TORSDOF 9
ENDMDL
MODEL 2
REMARK VINA RESULT:      -6.4      1.923      4.133
REMARK  Name = 
REMARK  13 active torsions:
REMARK  status: ('A' for Active; 'I' for Inactive)
REMARK    1  A    between atoms: C_1  and  C_2
REMARK    2  A    between atoms: C_10  and  O_11
REMARK    3  A    between atoms: O_11  and  C_12
REMARK    4  A    between atoms: C_12  and  C_13
REMARK    5  A    between atoms: C_13  and  C_14
REMARK    6  A    between atoms: C_13  and  O_20
REMARK    7  A    between atoms: C_14  and  N_15
REMARK    8  A    between atoms: N_15  and  C_16
REMARK    9  A    between atoms: C_16  and  C_17
REMARK   10  A    between atoms: C_16  and  C_18
REMARK   11  A    between atoms: C_16  and  C_19
REMARK   12  A    between atoms: O_20  and  C_21
REMARK   13  A    between atoms: C_21  and  C_23
REMARK                            x       y       z     vdW  Elec       q    Type
REMARK                         _______ _______ _______ _____ _____    ______ ____
ROOT
ATOM      1  C   UNL     1       7.591  -2.257  25.479  0.00  0.00    +0.228 C 
ENDROOT
BRANCH   1   2
ATOM      2  C   UNL     1       7.400  -3.297  26.605  0.00  0.00    +0.275 C 
BRANCH   2   3
ATOM      3  O   UNL     1       7.615  -4.608  26.079  0.00  0.00    -0.488 OA
BRANCH   3  12
ATOM      4  C   UNL     1       6.178  -5.730  20.771  0.00  0.00    +0.063 C 
ATOM      5  C   UNL     1       5.961  -5.722  22.237  0.00  0.00    +0.014 A 
ATOM      6  N   UNL     1       4.908  -6.384  22.818  0.00  0.00    -0.358 N 
ATOM      7  H   UNL     1       4.189  -6.886  22.317  0.00  0.00    +0.166 HD
ATOM      8  C   UNL     1       5.018  -6.350  24.190  0.00  0.00    +0.050 A 
ATOM      9  C   UNL     1       4.231  -6.961  25.170  0.00  0.00    +0.026 A 
ATOM     10  C   UNL     1       4.617  -6.787  26.499  0.00  0.00    +0.006 A 
ATOM     11  C   UNL     1       5.730  -6.011  26.834  0.00  0.00    +0.046 A 
ATOM     12  C   UNL     1       6.506  -5.381  25.847  0.00  0.00    +0.130 A 
ATOM     13  C   UNL     1       6.135  -5.572  24.497  0.00  0.00    +0.042 A 
ATOM     14  C   UNL     1       6.693  -5.150  23.255  0.00  0.00    +0.034 A 
ENDBRANCH   3  12
ENDBRANCH   2   3
ENDBRANCH   1   2
BRANCH   1  15
ATOM     15  O   UNL     1       8.953  -1.763  25.399  0.00  0.00    -0.453 OA
BRANCH  15  16
ATOM     16  C   UNL     1       9.640  -1.985  24.253  0.00  0.00    +0.340 C 
ATOM     17  O   UNL     1      10.130  -3.046  23.901  0.00  0.00    -0.245 OA
BRANCH  16  18
ATOM     18  C   UNL     1       9.753  -0.754  23.429  0.00  0.00    +0.059 A 
ATOM     19  C   UNL     1       9.267  -0.654  22.120  0.00  0.00    +0.015 A 
ATOM     20  C   UNL     1       9.393   0.553  21.425  0.00  0.00    +0.001 A 
ATOM     21  C   UNL     1      10.002   1.653  22.031  0.00  0.00    +0.000 A 
ATOM     22  C   UNL     1      10.498   1.554  23.328  0.00  0.00    +0.001 A 
ATOM     23  C   UNL     1      10.375   0.354  24.024  0.00  0.00    +0.015 A 
ENDBRANCH  16  18
ENDBRANCH  15  16
ENDBRANCH   1  15
BRANCH   1  24
ATOM     24  C   UNL     1       6.557  -1.112  25.626  0.00  0.00    +0.129 C 
BRANCH  24  25
ATOM     25  N   UNL     1       6.373  -0.317  24.399  0.00  0.00    -0.308 NA
ATOM     26  H   UNL     1       5.511  -0.609  23.937  0.00  0.00    +0.123 HD
BRANCH  25  27
ATOM     27  C   UNL     1       6.362   1.148  24.602  0.00  0.00    +0.011 C 
ATOM     28  C   UNL     1       7.479   1.609  25.555  0.00  0.00    +0.027 C 
ATOM     29  C   UNL     1       5.007   1.515  25.242  0.00  0.00    +0.027 C 
ATOM     30  C   UNL     1       6.468   1.900  23.264  0.00  0.00    +0.027 C 
ENDBRANCH  25  27
ENDBRANCH  24  25
ENDBRANCH   1  24
TORSDOF 9
ENDMDL
MODEL 3
REMARK VINA RESULT:      -6.4      1.512      3.167
REMARK  Name = 
REMARK  13 active torsions:
REMARK  status: ('A' for Active; 'I' for Inactive)
REMARK    1  A    between atoms: C_1  and  C_2
REMARK    2  A    between atoms: C_10  and  O_11
REMARK    3  A    between atoms: O_11  and  C_12
REMARK    4  A    between atoms: C_12  and  C_13
REMARK    5  A    between atoms: C_13  and  C_14
REMARK    6  A    between atoms: C_13  and  O_20
REMARK    7  A    between atoms: C_14  and  N_15
REMARK    8  A    between atoms: N_15  and  C_16
REMARK    9  A    between atoms: C_16  and  C_17
REMARK   10  A    between atoms: C_16  and  C_18
REMARK   11  A    between atoms: C_16  and  C_19
REMARK   12  A    between atoms: O_20  and  C_21
REMARK   13  A    between atoms: C_21  and  C_23
REMARK                            x       y       z     vdW  Elec       q    Type
REMARK                         _______ _______ _______ _____ _____    ______ ____
ROOT
ATOM      1  C   UNL     1       9.182  -0.813  24.624  0.00  0.00    +0.228 C 
ENDROOT
BRANCH   1   2
ATOM      2  C   UNL     1       8.951  -1.138  26.117  0.00  0.00    +0.275 C 
BRANCH   2   3
ATOM      3  O   UNL     1       7.584  -1.504  26.315  0.00  0.00    -0.488 OA
BRANCH   3  12
ATOM      4  C   UNL     1       2.259  -3.187  25.760  0.00  0.00    +0.063 C 
ATOM      5  C   UNL     1       3.691  -3.383  26.086  0.00  0.00    +0.014 A 
ATOM      6  N   UNL     1       4.214  -4.627  26.344  0.00  0.00    -0.358 N 
ATOM      7  H   UNL     1       3.683  -5.486  26.373  0.00  0.00    +0.166 HD
ATOM      8  C   UNL     1       5.584  -4.557  26.465  0.00  0.00    +0.050 A 
ATOM      9  C   UNL     1       6.523  -5.576  26.637  0.00  0.00    +0.026 A 
ATOM     10  C   UNL     1       7.868  -5.205  26.678  0.00  0.00    +0.006 A 
ATOM     11  C   UNL     1       8.252  -3.865  26.578  0.00  0.00    +0.046 A 
ATOM     12  C   UNL     1       7.302  -2.841  26.428  0.00  0.00    +0.130 A 
ATOM     13  C   UNL     1       5.940  -3.212  26.361  0.00  0.00    +0.042 A 
ATOM     14  C   UNL     1       4.731  -2.482  26.164  0.00  0.00    +0.034 A 
ENDBRANCH   3  12
ENDBRANCH   2   3
ENDBRANCH   1   2
BRANCH   1  15
ATOM     15  O   UNL     1       9.459  -1.995  23.831  0.00  0.00    -0.453 OA
BRANCH  15  16
ATOM     16  C   UNL     1       8.837  -2.113  22.633  0.00  0.00    +0.340 C 
ATOM     17  O   UNL     1       9.182  -1.585  21.587  0.00  0.00    -0.245 OA
BRANCH  16  18
ATOM     18  C   UNL     1       7.632  -2.977  22.718  0.00  0.00    +0.059 A 
ATOM     19  C   UNL     1       6.324  -2.490  22.609  0.00  0.00    +0.015 A 
ATOM     20  C   UNL     1       5.246  -3.378  22.675  0.00  0.00    +0.001 A 
ATOM     21  C   UNL     1       5.470  -4.745  22.851  0.00  0.00    +0.000 A 
ATOM     22  C   UNL     1       6.769  -5.231  22.973  0.00  0.00    +0.001 A 
ATOM     23  C   UNL     1       7.846  -4.351  22.908  0.00  0.00    +0.015 A 
ENDBRANCH  16  18
ENDBRANCH  15  16
ENDBRANCH   1  15
BRANCH   1  24
ATOM     24  C   UNL     1      10.282   0.268  24.475  0.00  0.00    +0.129 C 
BRANCH  24  25
ATOM     25  N   UNL     1       9.803   1.641  24.712  0.00  0.00    -0.308 NA
ATOM     26  H   UNL     1      10.499   2.150  25.256  0.00  0.00    +0.123 HD
BRANCH  25  27
ATOM     27  C   UNL     1       9.468   2.402  23.489  0.00  0.00    +0.011 C 
ATOM     28  C   UNL     1      10.148   1.820  22.238  0.00  0.00    +0.027 C 
ATOM     29  C   UNL     1       9.984   3.842  23.686  0.00  0.00    +0.027 C 
ATOM     30  C   UNL     1       7.945   2.474  23.274  0.00  0.00    +0.027 C 
ENDBRANCH  25  27
ENDBRANCH  24  25
ENDBRANCH   1  24
TORSDOF 9
ENDMDL
MODEL 4
REMARK VINA RESULT:      -6.3      1.732      3.436
REMARK  Name = 
REMARK  13 active torsions:
REMARK  status: ('A' for Active; 'I' for Inactive)
REMARK    1  A    between atoms: C_1  and  C_2
REMARK    2  A    between atoms: C_10  and  O_11
REMARK    3  A    between atoms: O_11  and  C_12
REMARK    4  A    between atoms: C_12  and  C_13
REMARK    5  A    between atoms: C_13  and  C_14
REMARK    6  A    between atoms: C_13  and  O_20
REMARK    7  A    between atoms: C_14  and  N_15
REMARK    8  A    between atoms: N_15  and  C_16
REMARK    9  A    between atoms: C_16  and  C_17
REMARK   10  A    between atoms: C_16  and  C_18
REMARK   11  A    between atoms: C_16  and  C_19
REMARK   12  A    between atoms: O_20  and  C_21
REMARK   13  A    between atoms: C_21  and  C_23
REMARK                            x       y       z     vdW  Elec       q    Type
REMARK                         _______ _______ _______ _____ _____    ______ ____
ROOT
ATOM      1  C   UNL     1       7.498  -0.631  23.837  0.00  0.00    +0.228 C 
ENDROOT
BRANCH   1   2
ATOM      2  C   UNL     1       6.438  -1.308  22.940  0.00  0.00    +0.275 C 
BRANCH   2   3
ATOM      3  O   UNL     1       5.860  -2.411  23.641  0.00  0.00    -0.488 OA
BRANCH   3  12
ATOM      4  C   UNL     1       2.570  -6.644  25.303  0.00  0.00    +0.063 C 
ATOM      5  C   UNL     1       3.748  -6.061  24.617  0.00  0.00    +0.014 A 
ATOM      6  N   UNL     1       4.573  -6.818  23.822  0.00  0.00    -0.358 N 
ATOM      7  H   UNL     1       4.480  -7.812  23.669  0.00  0.00    +0.166 HD
ATOM      8  C   UNL     1       5.493  -6.017  23.185  0.00  0.00    +0.050 A 
ATOM      9  C   UNL     1       6.457  -6.342  22.227  0.00  0.00    +0.026 A 
ATOM     10  C   UNL     1       7.227  -5.297  21.715  0.00  0.00    +0.006 A 
ATOM     11  C   UNL     1       7.057  -3.985  22.165  0.00  0.00    +0.046 A 
ATOM     12  C   UNL     1       6.101  -3.666  23.145  0.00  0.00    +0.130 A 
ATOM     13  C   UNL     1       5.301  -4.715  23.650  0.00  0.00    +0.042 A 
ATOM     14  C   UNL     1       4.225  -4.769  24.583  0.00  0.00    +0.034 A 
ENDBRANCH   3  12
ENDBRANCH   2   3
ENDBRANCH   1   2
BRANCH   1  15
ATOM     15  O   UNL     1       7.236  -0.820  25.252  0.00  0.00    -0.453 OA
BRANCH  15  16
ATOM     16  C   UNL     1       8.228  -1.337  26.015  0.00  0.00    +0.340 C 
ATOM     17  O   UNL     1       9.011  -0.703  26.705  0.00  0.00    -0.245 OA
BRANCH  16  18
ATOM     18  C   UNL     1       8.283  -2.818  25.921  0.00  0.00    +0.059 A 
ATOM     19  C   UNL     1       9.208  -3.507  25.127  0.00  0.00    +0.015 A 
ATOM     20  C   UNL     1       9.207  -4.906  25.117  0.00  0.00    +0.001 A 
ATOM     21  C   UNL     1       8.286  -5.614  25.892  0.00  0.00    +0.000 A 
ATOM     22  C   UNL     1       7.357  -4.932  26.673  0.00  0.00    +0.001 A 
ATOM     23  C   UNL     1       7.354  -3.540  26.686  0.00  0.00    +0.015 A 
ENDBRANCH  16  18
ENDBRANCH  15  16
ENDBRANCH   1  15
BRANCH   1  24
ATOM     24  C   UNL     1       7.645   0.865  23.460  0.00  0.00    +0.129 C 
BRANCH  24  25
ATOM     25  N   UNL     1       8.710   1.563  24.201  0.00  0.00    -0.308 NA
ATOM     26  H   UNL     1       8.838   1.112  25.107  0.00  0.00    +0.123 HD
BRANCH  25  27
ATOM     27  C   UNL     1      10.006   1.648  23.495  0.00  0.00    +0.011 C 
ATOM     28  C   UNL     1       9.903   1.172  22.035  0.00  0.00    +0.027 C 
ATOM     29  C   UNL     1      10.995   0.721  24.231  0.00  0.00    +0.027 C 
ATOM     30  C   UNL     1      10.576   3.077  23.543  0.00  0.00    +0.027 C 
ENDBRANCH  25  27
ENDBRANCH  24  25
ENDBRANCH   1  24
TORSDOF 9
ENDMDL
MODEL 5
REMARK VINA RESULT:      -6.3      1.848      6.479
REMARK  Name = 
REMARK  13 active torsions:
REMARK  status: ('A' for Active; 'I' for Inactive)
REMARK    1  A    between atoms: C_1  and  C_2
REMARK    2  A    between atoms: C_10  and  O_11
REMARK    3  A    between atoms: O_11  and  C_12
REMARK    4  A    between atoms: C_12  and  C_13
REMARK    5  A    between atoms: C_13  and  C_14
REMARK    6  A    between atoms: C_13  and  O_20
REMARK    7  A    between atoms: C_14  and  N_15
REMARK    8  A    between atoms: N_15  and  C_16
REMARK    9  A    between atoms: C_16  and  C_17
REMARK   10  A    between atoms: C_16  and  C_18
REMARK   11  A    between atoms: C_16  and  C_19
REMARK   12  A    between atoms: O_20  and  C_21
REMARK   13  A    between atoms: C_21  and  C_23
REMARK                            x       y       z     vdW  Elec       q    Type
REMARK                         _______ _______ _______ _____ _____    ______ ____
ROOT
ATOM      1  C   UNL     1       8.503  -3.272  24.460  0.00  0.00    +0.228 C 
ENDROOT
BRANCH   1   2
ATOM      2  C   UNL     1       7.568  -2.824  25.606  0.00  0.00    +0.275 C 
BRANCH   2   3
ATOM      3  O   UNL     1       6.736  -1.756  25.148  0.00  0.00    -0.488 OA
BRANCH   3  12
ATOM      4  C   UNL     1       6.175   2.985  22.197  0.00  0.00    +0.063 C 
ATOM      5  C   UNL     1       6.496   2.203  23.415  0.00  0.00    +0.014 A 
ATOM      6  N   UNL     1       6.740   2.808  24.623  0.00  0.00    -0.358 N 
ATOM      7  H   UNL     1       6.763   3.806  24.779  0.00  0.00    +0.166 HD
ATOM      8  C   UNL     1       6.859   1.864  25.618  0.00  0.00    +0.050 A 
ATOM      9  C   UNL     1       7.020   2.027  26.997  0.00  0.00    +0.026 A 
ATOM     10  C   UNL     1       7.062   0.870  27.775  0.00  0.00    +0.006 A 
ATOM     11  C   UNL     1       6.975  -0.397  27.194  0.00  0.00    +0.046 A 
ATOM     12  C   UNL     1       6.836  -0.557  25.805  0.00  0.00    +0.130 A 
ATOM     13  C   UNL     1       6.768   0.611  25.012  0.00  0.00    +0.042 A 
ATOM     14  C   UNL     1       6.581   0.843  23.618  0.00  0.00    +0.034 A 
ENDBRANCH   3  12
ENDBRANCH   2   3
ENDBRANCH   1   2
BRANCH   1  15
ATOM     15  O   UNL     1       8.675  -2.247  23.447  0.00  0.00    -0.453 OA
BRANCH  15  16
ATOM     16  C   UNL     1       9.935  -1.825  23.183  0.00  0.00    +0.340 C 
ATOM     17  O   UNL     1      10.916  -2.536  23.030  0.00  0.00    -0.245 OA
BRANCH  16  18
ATOM     18  C   UNL     1      10.017  -0.344  23.105  0.00  0.00    +0.059 A 
ATOM     19  C   UNL     1       9.826   0.378  21.921  0.00  0.00    +0.015 A 
ATOM     20  C   UNL     1       9.895   1.775  21.942  0.00  0.00    +0.001 A 
ATOM     21  C   UNL     1      10.155   2.448  23.137  0.00  0.00    +0.000 A 
ATOM     22  C   UNL     1      10.357   1.734  24.314  0.00  0.00    +0.001 A 
ATOM     23  C   UNL     1      10.290   0.343  24.298  0.00  0.00    +0.015 A 
ENDBRANCH  16  18
ENDBRANCH  15  16
ENDBRANCH   1  15
BRANCH   1  24
ATOM     24  C   UNL     1       8.014  -4.614  23.861  0.00  0.00    +0.129 C 
BRANCH  24  25
ATOM     25  N   UNL     1       6.559  -4.821  23.976  0.00  0.00    -0.308 NA
ATOM     26  H   UNL     1       6.171  -4.126  24.614  0.00  0.00    +0.123 HD
BRANCH  25  27
ATOM     27  C   UNL     1       5.824  -4.791  22.693  0.00  0.00    +0.011 C 
ATOM     28  C   UNL     1       5.483  -3.357  22.254  0.00  0.00    +0.027 C 
ATOM     29  C   UNL     1       4.500  -5.554  22.903  0.00  0.00    +0.027 C 
ATOM     30  C   UNL     1       6.609  -5.510  21.581  0.00  0.00    +0.027 C 
ENDBRANCH  25  27
ENDBRANCH  24  25
ENDBRANCH   1  24
TORSDOF 9
ENDMDL
MODEL 6
REMARK VINA RESULT:      -6.3      1.787      3.576
REMARK  Name = 
REMARK  13 active torsions:
REMARK  status: ('A' for Active; 'I' for Inactive)
REMARK    1  A    between atoms: C_1  and  C_2
REMARK    2  A    between atoms: C_10  and  O_11
REMARK    3  A    between atoms: O_11  and  C_12
REMARK    4  A    between atoms: C_12  and  C_13
REMARK    5  A    between atoms: C_13  and  C_14
REMARK    6  A    between atoms: C_13  and  O_20
REMARK    7  A    between atoms: C_14  and  N_15
REMARK    8  A    between atoms: N_15  and  C_16
REMARK    9  A    between atoms: C_16  and  C_17
REMARK   10  A    between atoms: C_16  and  C_18
REMARK   11  A    between atoms: C_16  and  C_19
REMARK   12  A    between atoms: O_20  and  C_21
REMARK   13  A    between atoms: C_21  and  C_23
REMARK                            x       y       z     vdW  Elec       q    Type
REMARK                         _______ _______ _______ _____ _____    ______ ____
ROOT
ATOM      1  C   UNL     1       8.152   1.817  23.461  0.00  0.00    +0.228 C 
ENDROOT
BRANCH   1   2
ATOM      2  C   UNL     1       6.801   1.200  23.034  0.00  0.00    +0.275 C 
BRANCH   2   3
ATOM      3  O   UNL     1       6.971  -0.201  22.808  0.00  0.00    -0.488 OA
BRANCH   3  12
ATOM      4  C   UNL     1       6.721  -5.630  21.405  0.00  0.00    +0.063 C 
ATOM      5  C   UNL     1       6.338  -4.440  22.202  0.00  0.00    +0.014 A 
ATOM      6  N   UNL     1       5.546  -4.539  23.319  0.00  0.00    -0.358 N 
ATOM      7  H   UNL     1       5.133  -5.394  23.665  0.00  0.00    +0.166 HD
ATOM      8  C   UNL     1       5.465  -3.323  23.960  0.00  0.00    +0.050 A 
ATOM      9  C   UNL     1       4.849  -2.983  25.167  0.00  0.00    +0.026 A 
ATOM     10  C   UNL     1       4.976  -1.663  25.599  0.00  0.00    +0.006 A 
ATOM     11  C   UNL     1       5.669  -0.716  24.839  0.00  0.00    +0.046 A 
ATOM     12  C   UNL     1       6.268  -1.057  23.616  0.00  0.00    +0.130 A 
ATOM     13  C   UNL     1       6.164  -2.399  23.183  0.00  0.00    +0.042 A 
ATOM     14  C   UNL     1       6.673  -3.111  22.058  0.00  0.00    +0.034 A 
ENDBRANCH   3  12
ENDBRANCH   2   3
ENDBRANCH   1   2
BRANCH   1  15
ATOM     15  O   UNL     1       8.613   1.318  24.743  0.00  0.00    -0.453 OA
BRANCH  15  16
ATOM     16  C   UNL     1       9.737   0.562  24.759  0.00  0.00    +0.340 C 
ATOM     17  O   UNL     1      10.875   0.958  24.562  0.00  0.00    -0.245 OA
BRANCH  16  18
ATOM     18  C   UNL     1       9.439  -0.865  25.043  0.00  0.00    +0.059 A 
ATOM     19  C   UNL     1       8.774  -1.300  26.196  0.00  0.00    +0.015 A 
ATOM     20  C   UNL     1       8.511  -2.663  26.372  0.00  0.00    +0.001 A 
ATOM     21  C   UNL     1       8.911  -3.587  25.404  0.00  0.00    +0.000 A 
ATOM     22  C   UNL     1       9.584  -3.160  24.263  0.00  0.00    +0.001 A 
ATOM     23  C   UNL     1       9.848  -1.804  24.084  0.00  0.00    +0.015 A 
ENDBRANCH  16  18
ENDBRANCH  15  16
ENDBRANCH   1  15
BRANCH   1  24
ATOM     24  C   UNL     1       8.070   3.364  23.426  0.00  0.00    +0.129 C 
BRANCH  24  25
ATOM     25  N   UNL     1       9.366   4.022  23.184  0.00  0.00    -0.308 NA
ATOM     26  H   UNL     1       9.510   4.119  22.179  0.00  0.00    +0.123 HD
BRANCH  25  27
ATOM     27  C   UNL     1       9.529   5.335  23.844  0.00  0.00    +0.011 C 
ATOM     28  C   UNL     1       8.969   5.337  25.277  0.00  0.00    +0.027 C 
ATOM     29  C   UNL     1       8.734   6.368  23.019  0.00  0.00    +0.027 C 
ATOM     30  C   UNL     1      11.003   5.777  23.855  0.00  0.00    +0.027 C 
ENDBRANCH  25  27
ENDBRANCH  24  25
ENDBRANCH   1  24
TORSDOF 9
ENDMDL
MODEL 7
REMARK VINA RESULT:      -6.2      0.856      2.290
REMARK  Name = 
REMARK  13 active torsions:
REMARK  status: ('A' for Active; 'I' for Inactive)
REMARK    1  A    between atoms: C_1  and  C_2
REMARK    2  A    between atoms: C_10  and  O_11
REMARK    3  A    between atoms: O_11  and  C_12
REMARK    4  A    between atoms: C_12  and  C_13
REMARK    5  A    between atoms: C_13  and  C_14
REMARK    6  A    between atoms: C_13  and  O_20
REMARK    7  A    between atoms: C_14  and  N_15
REMARK    8  A    between atoms: N_15  and  C_16
REMARK    9  A    between atoms: C_16  and  C_17
REMARK   10  A    between atoms: C_16  and  C_18
REMARK   11  A    between atoms: C_16  and  C_19
REMARK   12  A    between atoms: O_20  and  C_21
REMARK   13  A    between atoms: C_21  and  C_23
REMARK                            x       y       z     vdW  Elec       q    Type
REMARK                         _______ _______ _______ _____ _____    ______ ____
ROOT
ATOM      1  C   UNL     1       9.807  -1.207  24.422  0.00  0.00    +0.228 C 
ENDROOT
BRANCH   1   2
ATOM      2  C   UNL     1       9.487  -2.345  23.428  0.00  0.00    +0.275 C 
BRANCH   2   3
ATOM      3  O   UNL     1       9.321  -3.569  24.147  0.00  0.00    -0.488 OA
BRANCH   3  12
ATOM      4  C   UNL     1       6.563  -5.804  28.494  0.00  0.00    +0.063 C 
ATOM      5  C   UNL     1       6.839  -5.603  27.052  0.00  0.00    +0.014 A 
ATOM      6  N   UNL     1       6.010  -6.102  26.078  0.00  0.00    -0.358 N 
ATOM      7  H   UNL     1       5.188  -6.665  26.246  0.00  0.00    +0.166 HD
ATOM      8  C   UNL     1       6.400  -5.650  24.837  0.00  0.00    +0.050 A 
ATOM      9  C   UNL     1       5.802  -5.831  23.586  0.00  0.00    +0.026 A 
ATOM     10  C   UNL     1       6.405  -5.204  22.495  0.00  0.00    +0.006 A 
ATOM     11  C   UNL     1       7.573  -4.452  22.646  0.00  0.00    +0.046 A 
ATOM     12  C   UNL     1       8.182  -4.291  23.902  0.00  0.00    +0.130 A 
ATOM     13  C   UNL     1       7.564  -4.903  25.016  0.00  0.00    +0.042 A 
ATOM     14  C   UNL     1       7.850  -4.918  26.413  0.00  0.00    +0.034 A 
ENDBRANCH   3  12
ENDBRANCH   2   3
ENDBRANCH   1   2
BRANCH   1  15
ATOM     15  O   UNL     1       8.617  -0.666  25.053  0.00  0.00    -0.453 OA
BRANCH  15  16
ATOM     16  C   UNL     1       7.463  -0.681  24.344  0.00  0.00    +0.340 C 
ATOM     17  O   UNL     1       7.281  -0.163  23.253  0.00  0.00    -0.245 OA
BRANCH  16  18
ATOM     18  C   UNL     1       6.386  -1.414  25.057  0.00  0.00    +0.059 A 
ATOM     19  C   UNL     1       5.330  -2.060  24.404  0.00  0.00    +0.015 A 
ATOM     20  C   UNL     1       4.371  -2.751  25.152  0.00  0.00    +0.001 A 
ATOM     21  C   UNL     1       4.464  -2.795  26.545  0.00  0.00    +0.000 A 
ATOM     22  C   UNL     1       5.506  -2.142  27.199  0.00  0.00    +0.001 A 
ATOM     23  C   UNL     1       6.462  -1.454  26.458  0.00  0.00    +0.015 A 
ENDBRANCH  16  18
ENDBRANCH  15  16
ENDBRANCH   1  15
BRANCH   1  24
ATOM     24  C   UNL     1      10.655  -0.111  23.729  0.00  0.00    +0.129 C 
BRANCH  24  25
ATOM     25  N   UNL     1      10.554   1.212  24.368  0.00  0.00    -0.308 NA
ATOM     26  H   UNL     1      11.441   1.436  24.820  0.00  0.00    +0.123 HD
BRANCH  25  27
ATOM     27  C   UNL     1      10.162   2.313  23.461  0.00  0.00    +0.011 C 
ATOM     28  C   UNL     1      11.210   3.439  23.429  0.00  0.00    +0.027 C 
ATOM     29  C   UNL     1       8.841   2.904  23.996  0.00  0.00    +0.027 C 
ATOM     30  C   UNL     1       9.901   1.796  22.035  0.00  0.00    +0.027 C 
ENDBRANCH  25  27
ENDBRANCH  24  25
ENDBRANCH   1  24
TORSDOF 9
ENDMDL
MODEL 8
REMARK VINA RESULT:      -6.1      1.888      3.487
REMARK  Name = 
REMARK  13 active torsions:
REMARK  status: ('A' for Active; 'I' for Inactive)
REMARK    1  A    between atoms: C_1  and  C_2
REMARK    2  A    between atoms: C_10  and  O_11
REMARK    3  A    between atoms: O_11  and  C_12
REMARK    4  A    between atoms: C_12  and  C_13
REMARK    5  A    between atoms: C_13  and  C_14
REMARK    6  A    between atoms: C_13  and  O_20
REMARK    7  A    between atoms: C_14  and  N_15
REMARK    8  A    between atoms: N_15  and  C_16
REMARK    9  A    between atoms: C_16  and  C_17
REMARK   10  A    between atoms: C_16  and  C_18
REMARK   11  A    between atoms: C_16  and  C_19
REMARK   12  A    between atoms: O_20  and  C_21
REMARK   13  A    between atoms: C_21  and  C_23
REMARK                            x       y       z     vdW  Elec       q    Type
REMARK                         _______ _______ _______ _____ _____    ______ ____
ROOT
ATOM      1  C   UNL     1       6.706  -0.496  24.192  0.00  0.00    +0.228 C 
ENDROOT
BRANCH   1   2
ATOM      2  C   UNL     1       5.711  -0.841  25.322  0.00  0.00    +0.275 C 
BRANCH   2   3
ATOM      3  O   UNL     1       4.904  -1.950  24.919  0.00  0.00    -0.488 OA
BRANCH   3  12
ATOM      4  C   UNL     1       2.304  -6.498  22.906  0.00  0.00    +0.063 C 
ATOM      5  C   UNL     1       3.167  -5.773  23.868  0.00  0.00    +0.014 A 
ATOM      6  N   UNL     1       3.887  -6.430  24.836  0.00  0.00    -0.358 N 
ATOM      7  H   UNL     1       3.864  -7.426  25.002  0.00  0.00    +0.166 HD
ATOM      8  C   UNL     1       4.720  -5.553  25.494  0.00  0.00    +0.050 A 
ATOM      9  C   UNL     1       5.682  -5.794  26.478  0.00  0.00    +0.026 A 
ATOM     10  C   UNL     1       6.420  -4.700  26.931  0.00  0.00    +0.006 A 
ATOM     11  C   UNL     1       6.184  -3.414  26.438  0.00  0.00    +0.046 A 
ATOM     12  C   UNL     1       5.201  -3.172  25.465  0.00  0.00    +0.130 A 
ATOM     13  C   UNL     1       4.466  -4.279  24.983  0.00  0.00    +0.042 A 
ATOM     14  C   UNL     1       3.455  -4.431  23.989  0.00  0.00    +0.034 A 
ENDBRANCH   3  12
ENDBRANCH   2   3
ENDBRANCH   1   2
BRANCH   1  15
ATOM     15  O   UNL     1       7.746  -1.496  24.039  0.00  0.00    -0.453 OA
BRANCH  15  16
ATOM     16  C   UNL     1       8.000  -1.958  22.791  0.00  0.00    +0.340 C 
ATOM     17  O   UNL     1       8.583  -1.354  21.904  0.00  0.00    -0.245 OA
BRANCH  16  18
ATOM     18  C   UNL     1       7.467  -3.330  22.590  0.00  0.00    +0.059 A 
ATOM     19  C   UNL     1       6.451  -3.637  21.679  0.00  0.00    +0.015 A 
ATOM     20  C   UNL     1       6.026  -4.962  21.534  0.00  0.00    +0.001 A 
ATOM     21  C   UNL     1       6.611  -5.975  22.297  0.00  0.00    +0.000 A 
ATOM     22  C   UNL     1       7.614  -5.671  23.214  0.00  0.00    +0.001 A 
ATOM     23  C   UNL     1       8.039  -4.353  23.361  0.00  0.00    +0.015 A 
ENDBRANCH  16  18
ENDBRANCH  15  16
ENDBRANCH   1  15
BRANCH   1  24
ATOM     24  C   UNL     1       7.284   0.927  24.402  0.00  0.00    +0.129 C 
BRANCH  24  25
ATOM     25  N   UNL     1       7.969   1.471  23.216  0.00  0.00    -0.308 NA
ATOM     26  H   UNL     1       7.404   2.221  22.818  0.00  0.00    +0.123 HD
BRANCH  25  27
ATOM     27  C   UNL     1       9.345   1.954  23.460  0.00  0.00    +0.011 C 
ATOM     28  C   UNL     1       9.371   3.419  23.930  0.00  0.00    +0.027 C 
ATOM     29  C   UNL     1      10.108   1.868  22.122  0.00  0.00    +0.027 C 
ATOM     30  C   UNL     1      10.079   1.063  24.478  0.00  0.00    +0.027 C 
ENDBRANCH  25  27
ENDBRANCH  24  25
ENDBRANCH   1  24
TORSDOF 9
ENDMDL
MODEL 9
REMARK VINA RESULT:      -6.1      2.082      3.782
REMARK  Name = 
REMARK  13 active torsions:
REMARK  status: ('A' for Active; 'I' for Inactive)
REMARK    1  A    between atoms: C_1  and  C_2
REMARK    2  A    between atoms: C_10  and  O_11
REMARK    3  A    between atoms: O_11  and  C_12
REMARK    4  A    between atoms: C_12  and  C_13
REMARK    5  A    between atoms: C_13  and  C_14
REMARK    6  A    between atoms: C_13  and  O_20
REMARK    7  A    between atoms: C_14  and  N_15
REMARK    8  A    between atoms: N_15  and  C_16
REMARK    9  A    between atoms: C_16  and  C_17
REMARK   10  A    between atoms: C_16  and  C_18
REMARK   11  A    between atoms: C_16  and  C_19
REMARK   12  A    between atoms: O_20  and  C_21
REMARK   13  A    between atoms: C_21  and  C_23
REMARK                            x       y       z     vdW  Elec       q    Type
REMARK                         _______ _______ _______ _____ _____    ______ ____
ROOT
ATOM      1  C   UNL     1       7.990  -2.737  23.137  0.00  0.00    +0.228 C 
ENDROOT
BRANCH   1   2
ATOM      2  C   UNL     1       9.019  -3.449  24.043  0.00  0.00    +0.275 C 
BRANCH   2   3
ATOM      3  O   UNL     1       8.874  -2.979  25.384  0.00  0.00    -0.488 OA
BRANCH   3  12
ATOM      4  C   UNL     1       4.124  -0.405  26.906  0.00  0.00    +0.063 C 
ATOM      5  C   UNL     1       5.125  -1.496  26.962  0.00  0.00    +0.014 A 
ATOM      6  N   UNL     1       4.902  -2.651  27.671  0.00  0.00    -0.358 N 
ATOM      7  H   UNL     1       4.083  -2.840  28.232  0.00  0.00    +0.166 HD
ATOM      8  C   UNL     1       5.909  -3.560  27.438  0.00  0.00    +0.050 A 
ATOM      9  C   UNL     1       6.046  -4.881  27.874  0.00  0.00    +0.026 A 
ATOM     10  C   UNL     1       7.166  -5.586  27.432  0.00  0.00    +0.006 A 
ATOM     11  C   UNL     1       8.123  -4.984  26.610  0.00  0.00    +0.046 A 
ATOM     12  C   UNL     1       7.992  -3.649  26.193  0.00  0.00    +0.130 A 
ATOM     13  C   UNL     1       6.848  -2.936  26.616  0.00  0.00    +0.042 A 
ATOM     14  C   UNL     1       6.359  -1.621  26.360  0.00  0.00    +0.034 A 
ENDBRANCH   3  12
ENDBRANCH   2   3
ENDBRANCH   1   2
BRANCH   1  15
ATOM     15  O   UNL     1       7.342  -3.644  22.208  0.00  0.00    -0.453 OA
BRANCH  15  16
ATOM     16  C   UNL     1       6.996  -4.873  22.661  0.00  0.00    +0.340 C 
ATOM     17  O   UNL     1       7.590  -5.916  22.440  0.00  0.00    -0.245 OA
BRANCH  16  18
ATOM     18  C   UNL     1       5.761  -4.830  23.485  0.00  0.00    +0.059 A 
ATOM     19  C   UNL     1       4.924  -3.711  23.563  0.00  0.00    +0.015 A 
ATOM     20  C   UNL     1       3.764  -3.765  24.344  0.00  0.00    +0.001 A 
ATOM     21  C   UNL     1       3.442  -4.929  25.045  0.00  0.00    +0.000 A 
ATOM     22  C   UNL     1       4.279  -6.040  24.980  0.00  0.00    +0.001 A 
ATOM     23  C   UNL     1       5.434  -5.991  24.204  0.00  0.00    +0.015 A 
ENDBRANCH  16  18
ENDBRANCH  15  16
ENDBRANCH   1  15
BRANCH   1  24
ATOM     24  C   UNL     1       8.649  -1.532  22.420  0.00  0.00    +0.129 C 
BRANCH  24  25
ATOM     25  N   UNL     1       9.865  -1.036  23.088  0.00  0.00    -0.308 NA
ATOM     26  H   UNL     1      10.678  -1.264  22.516  0.00  0.00    +0.123 HD
BRANCH  25  27
ATOM     27  C   UNL     1       9.858   0.410  23.398  0.00  0.00    +0.011 C 
ATOM     28  C   UNL     1      10.986   0.800  24.370  0.00  0.00    +0.027 C 
ATOM     29  C   UNL     1       8.511   0.730  24.077  0.00  0.00    +0.027 C 
ATOM     30  C   UNL     1       9.952   1.258  22.117  0.00  0.00    +0.027 C 
ENDBRANCH  25  27
ENDBRANCH  24  25
ENDBRANCH   1  24
TORSDOF 9
ENDMDL
