MODEL 1
REMARK VINA RESULT:      -6.4      0.000      0.000
REMARK  Name = 
REMARK  5 active torsions:
REMARK  status: ('A' for Active; 'I' for Inactive)
REMARK    1  A    between atoms: N_10  and  C1*_11
REMARK    2  A    between atoms: C4*_14  and  C5*_16
REMARK    3  A    between atoms: C5*_16  and  O5*_17
REMARK    4  A    between atoms: C3*_18  and  O3*_20
REMARK    5  A    between atoms: C2*_21  and  O2*_23
REMARK                            x       y       z     vdW  Elec       q    Type
REMARK                         _______ _______ _______ _____ _____    ______ ____
ROOT
ATOM      1  N   UNL     1      10.146   2.160  21.821  0.00  0.00    -0.343 N 
ATOM      2  H   UNL     1      11.043   1.849  22.166  0.00  0.00    +0.144 HD
ATOM      3  H   UNL     1       9.917   3.136  21.970  0.00  0.00    +0.144 HD
ATOM      4  C   UNL     1       9.074   1.349  22.167  0.00  0.00    +0.129 A 
ATOM      5  C   UNL     1       9.189  -0.028  22.410  0.00  0.00    +0.058 A 
ATOM      6  C   UNL     1      10.244  -0.978  22.413  0.00  0.00    +0.033 A 
ATOM      7  C   UNL     1       9.700  -2.197  22.748  0.00  0.00    +0.091 A 
ATOM      8  N   UNL     1       8.334  -2.040  22.897  0.00  0.00    -0.303 N 
ATOM      9  C   UNL     1       8.023  -0.707  22.751  0.00  0.00    +0.148 A 
ATOM     10  N   UNL     1       6.808  -0.155  22.900  0.00  0.00    -0.218 NA
ATOM     11  C   UNL     1       6.820   1.163  22.631  0.00  0.00    +0.225 A 
ATOM     12  N   UNL     1       7.868   1.933  22.284  0.00  0.00    -0.220 NA
ENDROOT
BRANCH   8  13
ATOM     13  C1* UNL     1       7.422  -3.124  23.248  0.00  0.00    +0.252 C 
ATOM     14  C2* UNL     1       7.902  -4.584  23.166  0.00  0.00    +0.195 C 
ATOM     15  C3* UNL     1       8.422  -4.909  24.571  0.00  0.00    +0.178 C 
ATOM     16  C4* UNL     1       8.115  -3.653  25.378  0.00  0.00    +0.177 C 
ATOM     17  O4* UNL     1       7.058  -2.982  24.657  0.00  0.00    -0.346 OA
BRANCH  14  18
ATOM     18  O2* UNL     1       6.772  -5.447  22.889  0.00  0.00    -0.385 OA
ATOM     19  H2* UNL     1       6.080  -5.263  23.549  0.00  0.00    +0.210 HD
ENDBRANCH  14  18
BRANCH  15  20
ATOM     20  O3* UNL     1       9.819  -5.185  24.559  0.00  0.00    -0.386 OA
ATOM     21  H3* UNL     1      10.168  -4.962  23.680  0.00  0.00    +0.210 HD
ENDBRANCH  15  20
BRANCH  16  22
ATOM     22  C5* UNL     1       7.675  -3.954  26.805  0.00  0.00    +0.190 C 
BRANCH  22  23
ATOM     23  O5* UNL     1       8.214  -5.202  27.233  0.00  0.00    -0.392 OA
ATOM     24  H5* UNL     1       7.496  -5.856  27.145  0.00  0.00    +0.210 HD
ENDBRANCH  22  23
ENDBRANCH  16  22
ENDBRANCH   8  13
TORSDOF 5
ENDMDL
MODEL 2
REMARK VINA RESULT:      -6.2      1.498      2.729
REMARK  Name = 
REMARK  5 active torsions:
REMARK  status: ('A' for Active; 'I' for Inactive)
REMARK    1  A    between atoms: N_10  and  C1*_11
REMARK    2  A    between atoms: C4*_14  and  C5*_16
REMARK    3  A    between atoms: C5*_16  and  O5*_17
REMARK    4  A    between atoms: C3*_18  and  O3*_20
REMARK    5  A    between atoms: C2*_21  and  O2*_23
REMARK                            x       y       z     vdW  Elec       q    Type
REMARK                         _______ _______ _______ _____ _____    ______ ____
ROOT
ATOM      1  N   UNL     1      10.025   1.912  21.518  0.00  0.00    -0.343 N 
ATOM      2  H   UNL     1      10.951   1.702  21.861  0.00  0.00    +0.144 HD
ATOM      3  H   UNL     1       9.768   2.893  21.480  0.00  0.00    +0.144 HD
ATOM      4  C   UNL     1       9.005   1.163  22.089  0.00  0.00    +0.129 A 
ATOM      5  C   UNL     1       9.186  -0.131  22.598  0.00  0.00    +0.058 A 
ATOM      6  C   UNL     1      10.274  -1.033  22.727  0.00  0.00    +0.033 A 
ATOM      7  C   UNL     1       9.796  -2.172  23.336  0.00  0.00    +0.091 A 
ATOM      8  N   UNL     1       8.436  -2.022  23.536  0.00  0.00    -0.303 N 
ATOM      9  C   UNL     1       8.068  -0.755  23.143  0.00  0.00    +0.148 A 
ATOM     10  N   UNL     1       6.843  -0.215  23.254  0.00  0.00    -0.218 NA
ATOM     11  C   UNL     1       6.791   1.020  22.723  0.00  0.00    +0.225 A 
ATOM     12  N   UNL     1       7.788   1.729  22.162  0.00  0.00    -0.220 NA
ENDROOT
BRANCH   8  13
ATOM     13  C1* UNL     1       7.586  -3.032  24.158  0.00  0.00    +0.252 C 
ATOM     14  C2* UNL     1       6.069  -3.020  23.899  0.00  0.00    +0.195 C 
ATOM     15  C3* UNL     1       5.865  -3.954  22.700  0.00  0.00    +0.178 C 
ATOM     16  C4* UNL     1       7.258  -4.507  22.422  0.00  0.00    +0.177 C 
ATOM     17  O4* UNL     1       7.989  -4.345  23.657  0.00  0.00    -0.346 OA
BRANCH  14  18
ATOM     18  O2* UNL     1       5.381  -3.589  25.040  0.00  0.00    -0.385 OA
ATOM     19  H2* UNL     1       5.428  -2.950  25.773  0.00  0.00    +0.210 HD
ENDBRANCH  14  18
BRANCH  15  20
ATOM     20  O3* UNL     1       5.355  -3.251  21.572  0.00  0.00    -0.386 OA
ATOM     21  H3* UNL     1       5.471  -3.809  20.784  0.00  0.00    +0.210 HD
ENDBRANCH  15  20
BRANCH  16  22
ATOM     22  C5* UNL     1       7.245  -5.971  22.001  0.00  0.00    +0.190 C 
BRANCH  22  23
ATOM     23  O5* UNL     1       5.925  -6.366  21.635  0.00  0.00    -0.392 OA
ATOM     24  H5* UNL     1       5.318  -5.844  22.192  0.00  0.00    +0.210 HD
ENDBRANCH  22  23
ENDBRANCH  16  22
ENDBRANCH   8  13
TORSDOF 5
ENDMDL
MODEL 3
REMARK VINA RESULT:      -6.2      2.012      2.918
REMARK  Name = 
REMARK  5 active torsions:
REMARK  status: ('A' for Active; 'I' for Inactive)
REMARK    1  A    between atoms: N_10  and  C1*_11
REMARK    2  A    between atoms: C4*_14  and  C5*_16
REMARK    3  A    between atoms: C5*_16  and  O5*_17
REMARK    4  A    between atoms: C3*_18  and  O3*_20
REMARK    5  A    between atoms: C2*_21  and  O2*_23
REMARK                            x       y       z     vdW  Elec       q    Type
REMARK                         _______ _______ _______ _____ _____    ______ ____
ROOT
ATOM      1  N   UNL     1       9.181   2.299  24.859  0.00  0.00    -0.343 N 
ATOM      2  H   UNL     1       8.513   2.328  25.615  0.00  0.00    +0.144 HD
ATOM      3  H   UNL     1       9.100   3.023  24.154  0.00  0.00    +0.144 HD
ATOM      4  C   UNL     1       9.336   1.055  24.262  0.00  0.00    +0.129 A 
ATOM      5  C   UNL     1       9.122  -0.159  24.933  0.00  0.00    +0.058 A 
ATOM      6  C   UNL     1       8.727  -0.545  26.240  0.00  0.00    +0.033 A 
ATOM      7  C   UNL     1       8.692  -1.921  26.270  0.00  0.00    +0.091 A 
ATOM      8  N   UNL     1       9.108  -2.396  25.040  0.00  0.00    -0.303 N 
ATOM      9  C   UNL     1       9.314  -1.326  24.199  0.00  0.00    +0.148 A 
ATOM     10  N   UNL     1       9.652  -1.391  22.901  0.00  0.00    -0.218 NA
ATOM     11  C   UNL     1       9.839  -0.169  22.370  0.00  0.00    +0.225 A 
ATOM     12  N   UNL     1       9.697   1.029  22.967  0.00  0.00    -0.220 NA
ENDROOT
BRANCH   8  13
ATOM     13  C1* UNL     1       9.202  -3.813  24.701  0.00  0.00    +0.252 C 
ATOM     14  C2* UNL     1       9.318  -4.860  25.824  0.00  0.00    +0.195 C 
ATOM     15  C3* UNL     1       7.875  -5.288  26.115  0.00  0.00    +0.178 C 
ATOM     16  C4* UNL     1       7.050  -4.533  25.079  0.00  0.00    +0.177 C 
ATOM     17  O4* UNL     1       7.972  -4.207  24.017  0.00  0.00    -0.346 OA
BRANCH  14  18
ATOM     18  O2* UNL     1      10.044  -6.014  25.332  0.00  0.00    -0.385 OA
ATOM     19  H2* UNL     1       9.395  -6.685  25.052  0.00  0.00    +0.210 HD
ENDBRANCH  14  18
BRANCH  15  20
ATOM     20  O3* UNL     1       7.485  -4.940  27.439  0.00  0.00    -0.386 OA
ATOM     21  H3* UNL     1       6.808  -5.572  27.735  0.00  0.00    +0.210 HD
ENDBRANCH  15  20
BRANCH  16  22
ATOM     22  C5* UNL     1       5.883  -5.350  24.536  0.00  0.00    +0.190 C 
BRANCH  22  23
ATOM     23  O5* UNL     1       5.428  -6.274  25.522  0.00  0.00    -0.392 OA
ATOM     24  H5* UNL     1       5.533  -5.829  26.384  0.00  0.00    +0.210 HD
ENDBRANCH  22  23
ENDBRANCH  16  22
ENDBRANCH   8  13
TORSDOF 5
ENDMDL
MODEL 4
REMARK VINA RESULT:      -6.1      3.054      5.821
REMARK  Name = 
REMARK  5 active torsions:
REMARK  status: ('A' for Active; 'I' for Inactive)
REMARK    1  A    between atoms: N_10  and  C1*_11
REMARK    2  A    between atoms: C4*_14  and  C5*_16
REMARK    3  A    between atoms: C5*_16  and  O5*_17
REMARK    4  A    between atoms: C3*_18  and  O3*_20
REMARK    5  A    between atoms: C2*_21  and  O2*_23
REMARK                            x       y       z     vdW  Elec       q    Type
REMARK                         _______ _______ _______ _____ _____    ______ ____
ROOT
ATOM      1  N   UNL     1       5.635  -6.388  26.224  0.00  0.00    -0.343 N 
ATOM      2  H   UNL     1       4.759  -6.026  25.876  0.00  0.00    +0.144 HD
ATOM      3  H   UNL     1       5.640  -6.719  27.183  0.00  0.00    +0.144 HD
ATOM      4  C   UNL     1       6.739  -5.582  25.982  0.00  0.00    +0.129 A 
ATOM      5  C   UNL     1       6.833  -4.703  24.893  0.00  0.00    +0.058 A 
ATOM      6  C   UNL     1       6.000  -4.336  23.804  0.00  0.00    +0.033 A 
ATOM      7  C   UNL     1       6.676  -3.389  23.068  0.00  0.00    +0.091 A 
ATOM      8  N   UNL     1       7.923  -3.203  23.636  0.00  0.00    -0.303 N 
ATOM      9  C   UNL     1       8.003  -3.956  24.785  0.00  0.00    +0.148 A 
ATOM     10  N   UNL     1       9.031  -3.979  25.649  0.00  0.00    -0.218 NA
ATOM     11  C   UNL     1       8.831  -4.864  26.642  0.00  0.00    +0.225 A 
ATOM     12  N   UNL     1       7.759  -5.649  26.856  0.00  0.00    -0.220 NA
ENDROOT
BRANCH   8  13
ATOM     13  C1* UNL     1       8.923  -2.272  23.122  0.00  0.00    +0.252 C 
ATOM     14  C2* UNL     1       8.536  -1.265  22.024  0.00  0.00    +0.195 C 
ATOM     15  C3* UNL     1       8.118   0.001  22.779  0.00  0.00    +0.178 C 
ATOM     16  C4* UNL     1       8.386  -0.335  24.242  0.00  0.00    +0.177 C 
ATOM     17  O4* UNL     1       9.354  -1.407  24.218  0.00  0.00    -0.346 OA
BRANCH  14  18
ATOM     18  O2* UNL     1       9.704  -0.953  21.225  0.00  0.00    -0.385 OA
ATOM     19  H2* UNL     1       9.762  -1.604  20.502  0.00  0.00    +0.210 HD
ENDBRANCH  14  18
BRANCH  15  20
ATOM     20  O3* UNL     1       6.744   0.307  22.564  0.00  0.00    -0.386 OA
ATOM     21  H3* UNL     1       6.648   1.274  22.527  0.00  0.00    +0.210 HD
ENDBRANCH  15  20
BRANCH  16  22
ATOM     22  C5* UNL     1       8.924   0.848  25.037  0.00  0.00    +0.190 C 
BRANCH  22  23
ATOM     23  O5* UNL     1      10.311   0.666  25.312  0.00  0.00    -0.392 OA
ATOM     24  H5* UNL     1      10.514  -0.264  25.098  0.00  0.00    +0.210 HD
ENDBRANCH  22  23
ENDBRANCH  16  22
ENDBRANCH   8  13
TORSDOF 5
ENDMDL
MODEL 5
REMARK VINA RESULT:      -5.9      3.807      6.561
REMARK  Name = 
REMARK  5 active torsions:
REMARK  status: ('A' for Active; 'I' for Inactive)
REMARK    1  A    between atoms: N_10  and  C1*_11
REMARK    2  A    between atoms: C4*_14  and  C5*_16
REMARK    3  A    between atoms: C5*_16  and  O5*_17
REMARK    4  A    between atoms: C3*_18  and  O3*_20
REMARK    5  A    between atoms: C2*_21  and  O2*_23
REMARK                            x       y       z     vdW  Elec       q    Type
REMARK                         _______ _______ _______ _____ _____    ______ ____
ROOT
ATOM      1  N   UNL     1       3.648  -7.347  26.664  0.00  0.00    -0.343 N 
ATOM      2  H   UNL     1       3.079  -6.867  25.983  0.00  0.00    +0.144 HD
ATOM      3  H   UNL     1       3.195  -7.603  27.534  0.00  0.00    +0.144 HD
ATOM      4  C   UNL     1       4.883  -6.763  26.913  0.00  0.00    +0.129 A 
ATOM      5  C   UNL     1       5.581  -5.996  25.968  0.00  0.00    +0.058 A 
ATOM      6  C   UNL     1       5.358  -5.572  24.633  0.00  0.00    +0.033 A 
ATOM      7  C   UNL     1       6.442  -4.813  24.254  0.00  0.00    +0.091 A 
ATOM      8  N   UNL     1       7.353  -4.802  25.294  0.00  0.00    -0.303 N 
ATOM      9  C   UNL     1       6.808  -5.472  26.366  0.00  0.00    +0.148 A 
ATOM     10  N   UNL     1       7.364  -5.609  27.581  0.00  0.00    -0.218 NA
ATOM     11  C   UNL     1       6.609  -6.370  28.394  0.00  0.00    +0.225 A 
ATOM     12  N   UNL     1       5.418  -6.941  28.133  0.00  0.00    -0.220 NA
ENDROOT
BRANCH   8  13
ATOM     13  C1* UNL     1       8.631  -4.099  25.252  0.00  0.00    +0.252 C 
ATOM     14  C2* UNL     1       8.944  -3.153  24.079  0.00  0.00    +0.195 C 
ATOM     15  C3* UNL     1       8.488  -1.769  24.554  0.00  0.00    +0.178 C 
ATOM     16  C4* UNL     1       8.039  -2.001  25.992  0.00  0.00    +0.177 C 
ATOM     17  O4* UNL     1       8.707  -3.211  26.412  0.00  0.00    -0.346 OA
BRANCH  14  18
ATOM     18  O2* UNL     1      10.377  -3.111  23.865  0.00  0.00    -0.385 OA
ATOM     19  H2* UNL     1      10.804  -3.643  24.560  0.00  0.00    +0.210 HD
ENDBRANCH  14  18
BRANCH  15  20
ATOM     20  O3* UNL     1       7.421  -1.269  23.755  0.00  0.00    -0.386 OA
ATOM     21  H3* UNL     1       7.645  -0.365  23.475  0.00  0.00    +0.210 HD
ENDBRANCH  15  20
BRANCH  16  22
ATOM     22  C5* UNL     1       8.397  -0.848  26.922  0.00  0.00    +0.190 C 
BRANCH  22  23
ATOM     23  O5* UNL     1       8.684   0.324  26.163  0.00  0.00    -0.392 OA
ATOM     24  H5* UNL     1       8.290   1.071  26.652  0.00  0.00    +0.210 HD
ENDBRANCH  22  23
ENDBRANCH  16  22
ENDBRANCH   8  13
TORSDOF 5
ENDMDL
MODEL 6
REMARK VINA RESULT:      -5.9      1.728      2.810
REMARK  Name = 
REMARK  5 active torsions:
REMARK  status: ('A' for Active; 'I' for Inactive)
REMARK    1  A    between atoms: N_10  and  C1*_11
REMARK    2  A    between atoms: C4*_14  and  C5*_16
REMARK    3  A    between atoms: C5*_16  and  O5*_17
REMARK    4  A    between atoms: C3*_18  and  O3*_20
REMARK    5  A    between atoms: C2*_21  and  O2*_23
REMARK                            x       y       z     vdW  Elec       q    Type
REMARK                         _______ _______ _______ _____ _____    ______ ____
ROOT
ATOM      1  N   UNL     1      10.120   2.228  21.602  0.00  0.00    -0.343 N 
ATOM      2  H   UNL     1      10.206   1.815  20.684  0.00  0.00    +0.144 HD
ATOM      3  H   UNL     1      10.729   3.012  21.806  0.00  0.00    +0.144 HD
ATOM      4  C   UNL     1      10.125   1.321  22.654  0.00  0.00    +0.129 A 
ATOM      5  C   UNL     1       9.680  -0.004  22.538  0.00  0.00    +0.058 A 
ATOM      6  C   UNL     1       9.153  -0.815  21.499  0.00  0.00    +0.033 A 
ATOM      7  C   UNL     1       8.914  -2.062  22.031  0.00  0.00    +0.091 A 
ATOM      8  N   UNL     1       9.225  -2.030  23.378  0.00  0.00    -0.303 N 
ATOM      9  C   UNL     1       9.750  -0.794  23.681  0.00  0.00    +0.148 A 
ATOM     10  N   UNL     1      10.236  -0.410  24.873  0.00  0.00    -0.218 NA
ATOM     11  C   UNL     1      10.621   0.879  24.864  0.00  0.00    +0.225 A 
ATOM     12  N   UNL     1      10.597   1.749  23.838  0.00  0.00    -0.220 NA
ENDROOT
BRANCH   8  13
ATOM     13  C1* UNL     1       9.094  -3.175  24.273  0.00  0.00    +0.252 C 
ATOM     14  C2* UNL     1       8.415  -3.000  25.643  0.00  0.00    +0.195 C 
ATOM     15  C3* UNL     1       6.941  -3.346  25.400  0.00  0.00    +0.178 C 
ATOM     16  C4* UNL     1       6.901  -3.786  23.941  0.00  0.00    +0.177 C 
ATOM     17  O4* UNL     1       8.254  -4.177  23.620  0.00  0.00    -0.346 OA
BRANCH  14  18
ATOM     18  O2* UNL     1       8.960  -3.964  26.577  0.00  0.00    -0.385 OA
ATOM     19  H2* UNL     1       9.344  -3.477  27.328  0.00  0.00    +0.210 HD
ENDBRANCH  14  18
BRANCH  15  20
ATOM     20  O3* UNL     1       6.098  -2.221  25.623  0.00  0.00    -0.386 OA
ATOM     21  H3* UNL     1       5.847  -2.207  26.562  0.00  0.00    +0.210 HD
ENDBRANCH  15  20
BRANCH  16  22
ATOM     22  C5* UNL     1       5.941  -4.943  23.694  0.00  0.00    +0.190 C 
BRANCH  22  23
ATOM     23  O5* UNL     1       5.855  -5.767  24.854  0.00  0.00    -0.392 OA
ATOM     24  H5* UNL     1       5.257  -6.503  24.625  0.00  0.00    +0.210 HD
ENDBRANCH  22  23
ENDBRANCH  16  22
ENDBRANCH   8  13
TORSDOF 5
ENDMDL
MODEL 7
REMARK VINA RESULT:      -5.8      3.153      5.978
REMARK  Name = 
REMARK  5 active torsions:
REMARK  status: ('A' for Active; 'I' for Inactive)
REMARK    1  A    between atoms: N_10  and  C1*_11
REMARK    2  A    between atoms: C4*_14  and  C5*_16
REMARK    3  A    between atoms: C5*_16  and  O5*_17
REMARK    4  A    between atoms: C3*_18  and  O3*_20
REMARK    5  A    between atoms: C2*_21  and  O2*_23
REMARK                            x       y       z     vdW  Elec       q    Type
REMARK                         _______ _______ _______ _____ _____    ______ ____
ROOT
ATOM      1  N   UNL     1       5.390  -5.856  24.881  0.00  0.00    -0.343 N 
ATOM      2  H   UNL     1       4.533  -5.435  24.554  0.00  0.00    +0.144 HD
ATOM      3  H   UNL     1       5.300  -6.569  25.596  0.00  0.00    +0.144 HD
ATOM      4  C   UNL     1       6.394  -4.957  25.215  0.00  0.00    +0.129 A 
ATOM      5  C   UNL     1       6.523  -3.688  24.631  0.00  0.00    +0.058 A 
ATOM      6  C   UNL     1       5.816  -2.937  23.656  0.00  0.00    +0.033 A 
ATOM      7  C   UNL     1       6.455  -1.724  23.526  0.00  0.00    +0.091 A 
ATOM      8  N   UNL     1       7.566  -1.725  24.349  0.00  0.00    -0.303 N 
ATOM      9  C   UNL     1       7.580  -2.897  25.072  0.00  0.00    +0.148 A 
ATOM     10  N   UNL     1       8.464  -3.228  26.027  0.00  0.00    -0.218 NA
ATOM     11  C   UNL     1       8.246  -4.467  26.503  0.00  0.00    +0.225 A 
ATOM     12  N   UNL     1       7.274  -5.333  26.160  0.00  0.00    -0.220 NA
ENDROOT
BRANCH   8  13
ATOM     13  C1* UNL     1       8.491  -0.603  24.472  0.00  0.00    +0.252 C 
ATOM     14  C2* UNL     1       9.975  -0.793  24.111  0.00  0.00    +0.195 C 
ATOM     15  C3* UNL     1      10.078  -0.385  22.636  0.00  0.00    +0.178 C 
ATOM     16  C4* UNL     1       8.675   0.099  22.289  0.00  0.00    +0.177 C 
ATOM     17  O4* UNL     1       8.065   0.449  23.551  0.00  0.00    -0.346 OA
BRANCH  14  18
ATOM     18  O2* UNL     1      10.782   0.122  24.892  0.00  0.00    -0.385 OA
ATOM     19  H2* UNL     1      11.467  -0.394  25.353  0.00  0.00    +0.210 HD
ENDBRANCH  14  18
BRANCH  15  20
ATOM     20  O3* UNL     1      10.462  -1.483  21.816  0.00  0.00    -0.386 OA
ATOM     21  H3* UNL     1       9.939  -2.260  22.079  0.00  0.00    +0.210 HD
ENDBRANCH  15  20
BRANCH  16  22
ATOM     22  C5* UNL     1       8.674   1.299  21.349  0.00  0.00    +0.190 C 
BRANCH  22  23
ATOM     23  O5* UNL     1       9.881   2.042  21.499  0.00  0.00    -0.392 OA
ATOM     24  H5* UNL     1       9.985   2.209  22.455  0.00  0.00    +0.210 HD
ENDBRANCH  22  23
ENDBRANCH  16  22
ENDBRANCH   8  13
TORSDOF 5
ENDMDL
MODEL 8
REMARK VINA RESULT:      -5.8      3.171      5.983
REMARK  Name = 
REMARK  5 active torsions:
REMARK  status: ('A' for Active; 'I' for Inactive)
REMARK    1  A    between atoms: N_10  and  C1*_11
REMARK    2  A    between atoms: C4*_14  and  C5*_16
REMARK    3  A    between atoms: C5*_16  and  O5*_17
REMARK    4  A    between atoms: C3*_18  and  O3*_20
REMARK    5  A    between atoms: C2*_21  and  O2*_23
REMARK                            x       y       z     vdW  Elec       q    Type
REMARK                         _______ _______ _______ _____ _____    ______ ____
ROOT
ATOM      1  N   UNL     1       8.339  -5.663  26.444  0.00  0.00    -0.343 N 
ATOM      2  H   UNL     1       8.843  -5.187  27.177  0.00  0.00    +0.144 HD
ATOM      3  H   UNL     1       8.712  -6.557  26.144  0.00  0.00    +0.144 HD
ATOM      4  C   UNL     1       8.022  -4.876  25.345  0.00  0.00    +0.129 A 
ATOM      5  C   UNL     1       7.827  -3.489  25.415  0.00  0.00    +0.058 A 
ATOM      6  C   UNL     1       7.873  -2.503  26.436  0.00  0.00    +0.033 A 
ATOM      7  C   UNL     1       7.590  -1.290  25.850  0.00  0.00    +0.091 A 
ATOM      8  N   UNL     1       7.315  -1.504  24.512  0.00  0.00    -0.303 N 
ATOM      9  C   UNL     1       7.517  -2.835  24.226  0.00  0.00    +0.148 A 
ATOM     10  N   UNL     1       7.421  -3.410  23.016  0.00  0.00    -0.218 NA
ATOM     11  C   UNL     1       7.617  -4.739  23.076  0.00  0.00    +0.225 A 
ATOM     12  N   UNL     1       7.912  -5.490  24.153  0.00  0.00    -0.220 NA
ENDROOT
BRANCH   8  13
ATOM     13  C1* UNL     1       6.968  -0.444  23.571  0.00  0.00    +0.252 C 
ATOM     14  C2* UNL     1       6.816   1.004  24.073  0.00  0.00    +0.195 C 
ATOM     15  C3* UNL     1       8.199   1.636  23.879  0.00  0.00    +0.178 C 
ATOM     16  C4* UNL     1       9.013   0.543  23.195  0.00  0.00    +0.177 C 
ATOM     17  O4* UNL     1       8.040  -0.334  22.584  0.00  0.00    -0.346 OA
BRANCH  14  18
ATOM     18  O2* UNL     1       5.873   1.709  23.229  0.00  0.00    -0.385 OA
ATOM     19  H2* UNL     1       6.267   1.802  22.343  0.00  0.00    +0.210 HD
ENDBRANCH  14  18
BRANCH  15  20
ATOM     20  O3* UNL     1       8.782   2.008  25.123  0.00  0.00    -0.386 OA
ATOM     21  H3* UNL     1       8.504   1.365  25.797  0.00  0.00    +0.210 HD
ENDBRANCH  15  20
BRANCH  16  22
ATOM     22  C5* UNL     1       9.973   1.084  22.143  0.00  0.00    +0.190 C 
BRANCH  22  23
ATOM     23  O5* UNL     1       9.361   2.148  21.419  0.00  0.00    -0.392 OA
ATOM     24  H5* UNL     1       8.958   1.746  20.627  0.00  0.00    +0.210 HD
ENDBRANCH  22  23
ENDBRANCH  16  22
ENDBRANCH   8  13
TORSDOF 5
ENDMDL
MODEL 9
REMARK VINA RESULT:      -5.8      2.249      3.474
REMARK  Name = 
REMARK  5 active torsions:
REMARK  status: ('A' for Active; 'I' for Inactive)
REMARK    1  A    between atoms: N_10  and  C1*_11
REMARK    2  A    between atoms: C4*_14  and  C5*_16
REMARK    3  A    between atoms: C5*_16  and  O5*_17
REMARK    4  A    between atoms: C3*_18  and  O3*_20
REMARK    5  A    between atoms: C2*_21  and  O2*_23
REMARK                            x       y       z     vdW  Elec       q    Type
REMARK                         _______ _______ _______ _____ _____    ______ ____
ROOT
ATOM      1  N   UNL     1       9.342   1.626  24.843  0.00  0.00    -0.343 N 
ATOM      2  H   UNL     1      10.271   1.532  24.460  0.00  0.00    +0.144 HD
ATOM      3  H   UNL     1       9.195   2.388  25.495  0.00  0.00    +0.144 HD
ATOM      4  C   UNL     1       8.791   0.451  25.336  0.00  0.00    +0.129 A 
ATOM      5  C   UNL     1       9.126  -0.824  24.856  0.00  0.00    +0.058 A 
ATOM      6  C   UNL     1      10.002  -1.343  23.867  0.00  0.00    +0.033 A 
ATOM      7  C   UNL     1       9.878  -2.714  23.885  0.00  0.00    +0.091 A 
ATOM      8  N   UNL     1       8.911  -3.053  24.814  0.00  0.00    -0.303 N 
ATOM      9  C   UNL     1       8.491  -1.909  25.453  0.00  0.00    +0.148 A 
ATOM     10  N   UNL     1       7.614  -1.844  26.469  0.00  0.00    -0.218 NA
ATOM     11  C   UNL     1       7.366  -0.574  26.835  0.00  0.00    +0.225 A 
ATOM     12  N   UNL     1       7.900   0.557  26.337  0.00  0.00    -0.220 NA
ENDROOT
BRANCH   8  13
ATOM     13  C1* UNL     1       8.505  -4.424  25.106  0.00  0.00    +0.252 C 
ATOM     14  C2* UNL     1       7.055  -4.717  25.532  0.00  0.00    +0.195 C 
ATOM     15  C3* UNL     1       6.320  -5.048  24.228  0.00  0.00    +0.178 C 
ATOM     16  C4* UNL     1       7.414  -5.016  23.168  0.00  0.00    +0.177 C 
ATOM     17  O4* UNL     1       8.651  -5.218  23.887  0.00  0.00    -0.346 OA
BRANCH  14  18
ATOM     18  O2* UNL     1       7.031  -5.894  26.378  0.00  0.00    -0.385 OA
ATOM     19  H2* UNL     1       6.522  -6.587  25.921  0.00  0.00    +0.210 HD
ENDBRANCH  14  18
BRANCH  15  20
ATOM     20  O3* UNL     1       5.302  -4.093  23.947  0.00  0.00    -0.386 OA
ATOM     21  H3* UNL     1       5.466  -3.721  23.064  0.00  0.00    +0.210 HD
ENDBRANCH  15  20
BRANCH  16  22
ATOM     22  C5* UNL     1       7.242  -6.089  22.100  0.00  0.00    +0.190 C 
BRANCH  22  23
ATOM     23  O5* UNL     1       5.873  -6.480  22.012  0.00  0.00    -0.392 OA
ATOM     24  H5* UNL     1       5.760  -7.225  22.631  0.00  0.00    +0.210 HD
ENDBRANCH  22  23
ENDBRANCH  16  22
ENDBRANCH   8  13
TORSDOF 5
ENDMDL
