MODEL 1
REMARK VINA RESULT:      -3.5      0.000      0.000
REMARK  Name = 
REMARK  1 active torsions:
REMARK  status: ('A' for Active; 'I' for Inactive)
REMARK    1  A    between atoms: N_4  and  O_5
REMARK                            x       y       z     vdW  Elec       q    Type
REMARK                         _______ _______ _______ _____ _____    ______ ____
ROOT
ATOM      1  N   UNL     1      10.862   5.856  23.303  0.00  0.00    -0.312 N 
ATOM      2  H   UNL     1      10.875   6.857  23.200  0.00  0.00    +0.147 HD
ATOM      3  H   UNL     1       9.972   5.379  23.374  0.00  0.00    +0.147 HD
ATOM      4  C   UNL     1      11.979   5.095  23.284  0.00  0.00    +0.320 C 
ATOM      5  N   UNL     1      13.137   5.790  23.134  0.00  0.00    -0.181 N 
ATOM      6  H   UNL     1      13.212   6.795  23.189  0.00  0.00    +0.184 HD
ATOM      7  O   UNL     1      11.934   3.869  23.382  0.00  0.00    -0.251 OA
ENDROOT
BRANCH   5   8
ATOM      8  O   UNL     1      14.336   5.048  23.185  0.00  0.00    -0.294 OA
ATOM      9  H   UNL     1      14.016   4.130  23.057  0.00  0.00    +0.241 HD
ENDBRANCH   5   8
TORSDOF 1
ENDMDL
MODEL 2
REMARK VINA RESULT:      -3.4     11.173     11.318
REMARK  Name = 
REMARK  1 active torsions:
REMARK  status: ('A' for Active; 'I' for Inactive)
REMARK    1  A    between atoms: N_4  and  O_5
REMARK                            x       y       z     vdW  Elec       q    Type
REMARK                         _______ _______ _______ _____ _____    ______ ____
ROOT
ATOM      1  N   UNL     1       7.805  -5.797  27.200  0.00  0.00    -0.312 N 
ATOM      2  H   UNL     1       7.772  -6.803  27.193  0.00  0.00    +0.147 HD
ATOM      3  H   UNL     1       7.168  -5.288  27.800  0.00  0.00    +0.147 HD
ATOM      4  C   UNL     1       8.708  -5.080  26.494  0.00  0.00    +0.320 C 
ATOM      5  N   UNL     1       9.567  -5.825  25.750  0.00  0.00    -0.181 N 
ATOM      6  H   UNL     1       9.471  -6.816  25.586  0.00  0.00    +0.184 HD
ATOM      7  O   UNL     1       8.746  -3.852  26.543  0.00  0.00    -0.251 OA
ENDROOT
BRANCH   5   8
ATOM      8  O   UNL     1      10.479  -5.121  24.936  0.00  0.00    -0.294 OA
ATOM      9  H   UNL     1      11.331  -5.553  25.160  0.00  0.00    +0.241 HD
ENDBRANCH   5   8
TORSDOF 1
ENDMDL
MODEL 3
REMARK VINA RESULT:      -3.3      5.333      6.003
REMARK  Name = 
REMARK  1 active torsions:
REMARK  status: ('A' for Active; 'I' for Inactive)
REMARK    1  A    between atoms: N_4  and  O_5
REMARK                            x       y       z     vdW  Elec       q    Type
REMARK                         _______ _______ _______ _____ _____    ______ ____
ROOT
ATOM      1  N   UNL     1       9.472   1.886  21.446  0.00  0.00    -0.312 N 
ATOM      2  H   UNL     1       8.997   1.989  20.564  0.00  0.00    +0.147 HD
ATOM      3  H   UNL     1       9.622   2.704  22.023  0.00  0.00    +0.147 HD
ATOM      4  C   UNL     1       9.865   0.691  21.940  0.00  0.00    +0.320 C 
ATOM      5  N   UNL     1       9.588  -0.372  21.141  0.00  0.00    -0.181 N 
ATOM      6  H   UNL     1       9.264  -0.303  20.187  0.00  0.00    +0.184 HD
ATOM      7  O   UNL     1      10.417   0.588  23.034  0.00  0.00    -0.251 OA
ENDROOT
BRANCH   5   8
ATOM      8  O   UNL     1      10.047  -1.633  21.577  0.00  0.00    -0.294 OA
ATOM      9  H   UNL     1      10.972  -1.640  21.250  0.00  0.00    +0.241 HD
ENDBRANCH   5   8
TORSDOF 1
ENDMDL
MODEL 4
REMARK VINA RESULT:      -3.2      5.537      5.952
REMARK  Name = 
REMARK  1 active torsions:
REMARK  status: ('A' for Active; 'I' for Inactive)
REMARK    1  A    between atoms: N_4  and  O_5
REMARK                            x       y       z     vdW  Elec       q    Type
REMARK                         _______ _______ _______ _____ _____    ______ ____
ROOT
ATOM      1  N   UNL     1       9.614  -0.972  21.212  0.00  0.00    -0.312 N 
ATOM      2  H   UNL     1       9.110  -1.177  20.364  0.00  0.00    +0.147 HD
ATOM      3  H   UNL     1      10.133  -1.712  21.667  0.00  0.00    +0.147 HD
ATOM      4  C   UNL     1       9.692   0.268  21.745  0.00  0.00    +0.320 C 
ATOM      5  N   UNL     1       9.017   1.225  21.058  0.00  0.00    -0.181 N 
ATOM      6  H   UNL     1       8.373   1.041  20.303  0.00  0.00    +0.184 HD
ATOM      7  O   UNL     1      10.339   0.498  22.766  0.00  0.00    -0.251 OA
ENDROOT
BRANCH   5   8
ATOM      8  O   UNL     1       9.005   2.521  21.616  0.00  0.00    -0.294 OA
ATOM      9  H   UNL     1       9.032   3.090  20.817  0.00  0.00    +0.241 HD
ENDBRANCH   5   8
TORSDOF 1
ENDMDL
MODEL 5
REMARK VINA RESULT:      -3.1     11.120     11.743
REMARK  Name = 
REMARK  1 active torsions:
REMARK  status: ('A' for Active; 'I' for Inactive)
REMARK    1  A    between atoms: N_4  and  O_5
REMARK                            x       y       z     vdW  Elec       q    Type
REMARK                         _______ _______ _______ _____ _____    ______ ____
ROOT
ATOM      1  N   UNL     1       9.882  -5.529  25.647  0.00  0.00    -0.312 N 
ATOM      2  H   UNL     1       9.955  -6.524  25.514  0.00  0.00    +0.147 HD
ATOM      3  H   UNL     1      10.516  -4.918  25.145  0.00  0.00    +0.147 HD
ATOM      4  C   UNL     1       8.931  -4.951  26.414  0.00  0.00    +0.320 C 
ATOM      5  N   UNL     1       8.082  -5.822  27.017  0.00  0.00    -0.181 N 
ATOM      6  H   UNL     1       8.213  -6.823  27.044  0.00  0.00    +0.184 HD
ATOM      7  O   UNL     1       8.846  -3.729  26.536  0.00  0.00    -0.251 OA
ENDROOT
BRANCH   5   8
ATOM      8  O   UNL     1       7.119  -5.273  27.889  0.00  0.00    -0.294 OA
ATOM      9  H   UNL     1       7.664  -5.020  28.664  0.00  0.00    +0.241 HD
ENDBRANCH   5   8
TORSDOF 1
ENDMDL
MODEL 6
REMARK VINA RESULT:      -3.0      3.749      4.539
REMARK  Name = 
REMARK  1 active torsions:
REMARK  status: ('A' for Active; 'I' for Inactive)
REMARK    1  A    between atoms: N_4  and  O_5
REMARK                            x       y       z     vdW  Elec       q    Type
REMARK                         _______ _______ _______ _____ _____    ______ ____
ROOT
ATOM      1  N   UNL     1      10.868   3.382  23.069  0.00  0.00    -0.312 N 
ATOM      2  H   UNL     1      10.939   4.162  22.437  0.00  0.00    +0.147 HD
ATOM      3  H   UNL     1      11.240   3.474  24.007  0.00  0.00    +0.147 HD
ATOM      4  C   UNL     1      10.238   2.228  22.755  0.00  0.00    +0.320 C 
ATOM      5  N   UNL     1       9.717   2.190  21.501  0.00  0.00    -0.181 N 
ATOM      6  H   UNL     1       9.901   2.876  20.784  0.00  0.00    +0.184 HD
ATOM      7  O   UNL     1      10.139   1.301  23.557  0.00  0.00    -0.251 OA
ENDROOT
BRANCH   5   8
ATOM      8  O   UNL     1       9.116   0.979  21.098  0.00  0.00    -0.294 OA
ATOM      9  H   UNL     1       9.795   0.600  20.500  0.00  0.00    +0.241 HD
ENDBRANCH   5   8
TORSDOF 1
ENDMDL
MODEL 7
REMARK VINA RESULT:      -2.8      1.911      1.911
REMARK  Name = 
REMARK  1 active torsions:
REMARK  status: ('A' for Active; 'I' for Inactive)
REMARK    1  A    between atoms: N_4  and  O_5
REMARK                            x       y       z     vdW  Elec       q    Type
REMARK                         _______ _______ _______ _____ _____    ______ ____
ROOT
ATOM      1  N   UNL     1      12.380   5.160  22.064  0.00  0.00    -0.312 N 
ATOM      2  H   UNL     1      13.268   5.394  21.650  0.00  0.00    +0.147 HD
ATOM      3  H   UNL     1      11.726   4.595  21.538  0.00  0.00    +0.147 HD
ATOM      4  C   UNL     1      12.037   5.507  23.325  0.00  0.00    +0.320 C 
ATOM      5  N   UNL     1      12.980   6.220  23.994  0.00  0.00    -0.181 N 
ATOM      6  H   UNL     1      13.808   6.613  23.571  0.00  0.00    +0.184 HD
ATOM      7  O   UNL     1      10.957   5.183  23.818  0.00  0.00    -0.251 OA
ENDROOT
BRANCH   5   8
ATOM      8  O   UNL     1      12.638   6.671  25.286  0.00  0.00    -0.294 OA
ATOM      9  H   UNL     1      13.216   6.120  25.856  0.00  0.00    +0.241 HD
ENDBRANCH   5   8
TORSDOF 1
ENDMDL
MODEL 8
REMARK VINA RESULT:      -2.8     14.609     14.865
REMARK  Name = 
REMARK  1 active torsions:
REMARK  status: ('A' for Active; 'I' for Inactive)
REMARK    1  A    between atoms: N_4  and  O_5
REMARK                            x       y       z     vdW  Elec       q    Type
REMARK                         _______ _______ _______ _____ _____    ______ ____
ROOT
ATOM      1  N   UNL     1       3.836  -7.057  26.931  0.00  0.00    -0.312 N 
ATOM      2  H   UNL     1       3.105  -7.506  27.457  0.00  0.00    +0.147 HD
ATOM      3  H   UNL     1       3.612  -6.638  26.037  0.00  0.00    +0.147 HD
ATOM      4  C   UNL     1       5.102  -6.922  27.386  0.00  0.00    +0.320 C 
ATOM      5  N   UNL     1       5.324  -7.460  28.613  0.00  0.00    -0.181 N 
ATOM      6  H   UNL     1       4.673  -8.055  29.103  0.00  0.00    +0.184 HD
ATOM      7  O   UNL     1       5.970  -6.342  26.734  0.00  0.00    -0.251 OA
ENDROOT
BRANCH   5   8
ATOM      8  O   UNL     1       6.648  -7.412  29.099  0.00  0.00    -0.294 OA
ATOM      9  H   UNL     1       6.897  -8.361  29.111  0.00  0.00    +0.241 HD
ENDBRANCH   5   8
TORSDOF 1
ENDMDL
MODEL 9
REMARK VINA RESULT:      -2.7      4.697      4.875
REMARK  Name = 
REMARK  1 active torsions:
REMARK  status: ('A' for Active; 'I' for Inactive)
REMARK    1  A    between atoms: N_4  and  O_5
REMARK                            x       y       z     vdW  Elec       q    Type
REMARK                         _______ _______ _______ _____ _____    ______ ____
ROOT
ATOM      1  N   UNL     1       6.820   2.916  21.998  0.00  0.00    -0.312 N 
ATOM      2  H   UNL     1       6.416   2.369  21.255  0.00  0.00    +0.147 HD
ATOM      3  H   UNL     1       6.208   3.440  22.611  0.00  0.00    +0.147 HD
ATOM      4  C   UNL     1       8.144   2.936  22.268  0.00  0.00    +0.320 C 
ATOM      5  N   UNL     1       8.903   2.171  21.441  0.00  0.00    -0.181 N 
ATOM      6  H   UNL     1       8.568   1.739  20.593  0.00  0.00    +0.184 HD
ATOM      7  O   UNL     1       8.609   3.590  23.201  0.00  0.00    -0.251 OA
ENDROOT
BRANCH   5   8
ATOM      8  O   UNL     1      10.300   2.219  21.633  0.00  0.00    -0.294 OA
ATOM      9  H   UNL     1      10.638   2.107  20.719  0.00  0.00    +0.241 HD
ENDBRANCH   5   8
TORSDOF 1
ENDMDL
