MODEL 1
REMARK VINA RESULT:      -7.7      0.000      0.000
REMARK  Name = 
REMARK  6 active torsions:
REMARK  status: ('A' for Active; 'I' for Inactive)
REMARK    1  A    between atoms: C_1  and  C_2
REMARK    2  A    between atoms: C_2  and  O_3
REMARK    3  A    between atoms: C_4  and  C_5
REMARK    4  A    between atoms: C_4  and  C_7
REMARK    5  A    between atoms: N_9  and  C_10
REMARK    6  A    between atoms: C_13  and  C_16
REMARK                            x       y       z     vdW  Elec       q    Type
REMARK                         _______ _______ _______ _____ _____    ______ ____
ROOT
ATOM      1  C   UNL     1       9.540  -0.710  22.798  0.00  0.00    +0.034 A 
ATOM      2  C   UNL     1       9.471   0.206  21.753  0.00  0.00    +0.024 A 
ATOM      3  C   UNL     1       9.876   1.529  21.950  0.00  0.00    +0.010 A 
ATOM      4  C   UNL     1      10.308   1.989  23.207  0.00  0.00    -0.018 A 
ATOM      5  C   UNL     1      10.437   1.023  24.223  0.00  0.00    +0.010 A 
ATOM      6  C   UNL     1      10.093  -0.320  24.013  0.00  0.00    +0.024 A 
ENDROOT
BRANCH   4   7
ATOM      7  C   UNL     1      10.546   3.432  23.467  0.00  0.00    -0.018 A 
ATOM      8  C   UNL     1       9.519   4.260  23.963  0.00  0.00    +0.008 A 
ATOM      9  C   UNL     1       9.736   5.606  24.272  0.00  0.00    +0.001 A 
ATOM     10  C   UNL     1      10.998   6.163  24.095  0.00  0.00    +0.000 A 
ATOM     11  C   UNL     1      12.032   5.372  23.604  0.00  0.00    +0.001 A 
ATOM     12  C   UNL     1      11.805   4.027  23.283  0.00  0.00    +0.008 A 
ENDBRANCH   4   7
BRANCH   1  14
ATOM     13  C   UNL     1       7.715  -2.368  22.749  0.00  0.00    +0.262 C 
ATOM     14  N   UNL     1       9.050  -2.022  22.680  0.00  0.00    -0.281 N 
ATOM     15  H   UNL     1       9.716  -2.785  22.777  0.00  0.00    +0.155 HD
ATOM     16  O   UNL     1       6.793  -1.568  22.909  0.00  0.00    -0.269 OA
BRANCH  13  19
ATOM     17  C   UNL     1       6.167  -5.897  21.976  0.00  0.00    +0.087 C 
ATOM     18  C   UNL     1       6.474  -4.420  21.915  0.00  0.00    +0.113 C 
ATOM     19  C   UNL     1       7.418  -3.832  22.690  0.00  0.00    +0.150 C 
BRANCH  19  20
ATOM     20  C   UNL     1       8.228  -4.707  23.632  0.00  0.00    +0.108 C 
ATOM     21  N   UNL     1       8.900  -5.433  24.413  0.00  0.00    -0.191 NA
ENDBRANCH  19  20
BRANCH  18  22
ATOM     22  O   UNL     1       5.709  -3.690  21.014  0.00  0.00    -0.510 OA
ATOM     23  H   UNL     1       6.281  -3.048  20.550  0.00  0.00    +0.292 HD
ENDBRANCH  18  22
ENDBRANCH  13  19
ENDBRANCH   1  14
TORSDOF 5
ENDMDL
MODEL 2
REMARK VINA RESULT:      -7.3      0.534      1.111
REMARK  Name = 
REMARK  6 active torsions:
REMARK  status: ('A' for Active; 'I' for Inactive)
REMARK    1  A    between atoms: C_1  and  C_2
REMARK    2  A    between atoms: C_2  and  O_3
REMARK    3  A    between atoms: C_4  and  C_5
REMARK    4  A    between atoms: C_4  and  C_7
REMARK    5  A    between atoms: N_9  and  C_10
REMARK    6  A    between atoms: C_13  and  C_16
REMARK                            x       y       z     vdW  Elec       q    Type
REMARK                         _______ _______ _______ _____ _____    ______ ____
ROOT
ATOM      1  C   UNL     1       9.009  -0.479  23.067  0.00  0.00    +0.034 A 
ATOM      2  C   UNL     1       8.893   0.171  24.291  0.00  0.00    +0.024 A 
ATOM      3  C   UNL     1       9.277   1.510  24.414  0.00  0.00    +0.010 A 
ATOM      4  C   UNL     1       9.835   2.220  23.337  0.00  0.00    -0.018 A 
ATOM      5  C   UNL     1       9.870   1.559  22.094  0.00  0.00    +0.010 A 
ATOM      6  C   UNL     1       9.427   0.236  21.950  0.00  0.00    +0.024 A 
ENDROOT
BRANCH   4   7
ATOM      7  C   UNL     1      10.424   3.571  23.519  0.00  0.00    -0.018 A 
ATOM      8  C   UNL     1       9.655   4.639  24.022  0.00  0.00    +0.008 A 
ATOM      9  C   UNL     1      10.204   5.902  24.258  0.00  0.00    +0.001 A 
ATOM     10  C   UNL     1      11.551   6.132  23.999  0.00  0.00    +0.000 A 
ATOM     11  C   UNL     1      12.337   5.099  23.499  0.00  0.00    +0.001 A 
ATOM     12  C   UNL     1      11.778   3.838  23.252  0.00  0.00    +0.008 A 
ENDBRANCH   4   7
BRANCH   1  14
ATOM     13  C   UNL     1       7.469  -2.383  22.773  0.00  0.00    +0.262 C 
ATOM     14  N   UNL     1       8.735  -1.849  22.916  0.00  0.00    -0.281 N 
ATOM     15  H   UNL     1       9.475  -2.508  23.151  0.00  0.00    +0.155 HD
ATOM     16  O   UNL     1       6.430  -1.722  22.748  0.00  0.00    -0.269 OA
BRANCH  13  19
ATOM     17  C   UNL     1       6.496  -6.106  21.971  0.00  0.00    +0.087 C 
ATOM     18  C   UNL     1       6.584  -4.600  21.908  0.00  0.00    +0.113 C 
ATOM     19  C   UNL     1       7.394  -3.875  22.718  0.00  0.00    +0.150 C 
BRANCH  19  20
ATOM     20  C   UNL     1       8.278  -4.616  23.707  0.00  0.00    +0.108 C 
ATOM     21  N   UNL     1       9.012  -5.232  24.527  0.00  0.00    -0.191 NA
ENDBRANCH  19  20
BRANCH  18  22
ATOM     22  O   UNL     1       5.764  -3.995  20.963  0.00  0.00    -0.510 OA
ATOM     23  H   UNL     1       4.833  -4.067  21.249  0.00  0.00    +0.292 HD
ENDBRANCH  18  22
ENDBRANCH  13  19
ENDBRANCH   1  14
TORSDOF 5
ENDMDL
MODEL 3
REMARK VINA RESULT:      -6.8      1.726      2.227
REMARK  Name = 
REMARK  6 active torsions:
REMARK  status: ('A' for Active; 'I' for Inactive)
REMARK    1  A    between atoms: C_1  and  C_2
REMARK    2  A    between atoms: C_2  and  O_3
REMARK    3  A    between atoms: C_4  and  C_5
REMARK    4  A    between atoms: C_4  and  C_7
REMARK    5  A    between atoms: N_9  and  C_10
REMARK    6  A    between atoms: C_13  and  C_16
REMARK                            x       y       z     vdW  Elec       q    Type
REMARK                         _______ _______ _______ _____ _____    ______ ____
ROOT
ATOM      1  C   UNL     1       8.702  -0.347  23.055  0.00  0.00    +0.034 A 
ATOM      2  C   UNL     1       9.537   0.227  22.101  0.00  0.00    +0.024 A 
ATOM      3  C   UNL     1      10.135   1.466  22.346  0.00  0.00    +0.010 A 
ATOM      4  C   UNL     1       9.876   2.192  23.522  0.00  0.00    -0.018 A 
ATOM      5  C   UNL     1       9.088   1.553  24.498  0.00  0.00    +0.010 A 
ATOM      6  C   UNL     1       8.537   0.281  24.285  0.00  0.00    +0.024 A 
ENDROOT
BRANCH   4   7
ATOM      7  C   UNL     1      10.349   3.589  23.693  0.00  0.00    -0.018 A 
ATOM      8  C   UNL     1      11.658   3.964  23.330  0.00  0.00    +0.008 A 
ATOM      9  C   UNL     1      12.105   5.285  23.426  0.00  0.00    +0.001 A 
ATOM     10  C   UNL     1      11.246   6.276  23.886  0.00  0.00    +0.000 A 
ATOM     11  C   UNL     1       9.948   5.938  24.255  0.00  0.00    +0.001 A 
ATOM     12  C   UNL     1       9.509   4.610  24.170  0.00  0.00    +0.008 A 
ENDBRANCH   4   7
BRANCH   1  14
ATOM     13  C   UNL     1       8.439  -2.796  23.180  0.00  0.00    +0.262 C 
ATOM     14  N   UNL     1       7.997  -1.539  22.816  0.00  0.00    -0.281 N 
ATOM     15  H   UNL     1       7.235  -1.510  22.142  0.00  0.00    +0.155 HD
ATOM     16  O   UNL     1       9.496  -3.022  23.769  0.00  0.00    -0.269 OA
BRANCH  13  19
ATOM     17  C   UNL     1       6.915  -6.356  22.507  0.00  0.00    +0.087 C 
ATOM     18  C   UNL     1       7.777  -5.244  23.054  0.00  0.00    +0.113 C 
ATOM     19  C   UNL     1       7.576  -3.939  22.749  0.00  0.00    +0.150 C 
BRANCH  19  20
ATOM     20  C   UNL     1       6.408  -3.579  21.847  0.00  0.00    +0.108 C 
ATOM     21  N   UNL     1       5.438  -3.279  21.098  0.00  0.00    -0.191 NA
ENDBRANCH  19  20
BRANCH  18  22
ATOM     22  O   UNL     1       8.811  -5.649  23.890  0.00  0.00    -0.510 OA
ATOM     23  H   UNL     1       9.337  -4.869  24.155  0.00  0.00    +0.292 HD
ENDBRANCH  18  22
ENDBRANCH  13  19
ENDBRANCH   1  14
TORSDOF 5
ENDMDL
MODEL 4
REMARK VINA RESULT:      -6.7      1.936      2.250
REMARK  Name = 
REMARK  6 active torsions:
REMARK  status: ('A' for Active; 'I' for Inactive)
REMARK    1  A    between atoms: C_1  and  C_2
REMARK    2  A    between atoms: C_2  and  O_3
REMARK    3  A    between atoms: C_4  and  C_5
REMARK    4  A    between atoms: C_4  and  C_7
REMARK    5  A    between atoms: N_9  and  C_10
REMARK    6  A    between atoms: C_13  and  C_16
REMARK                            x       y       z     vdW  Elec       q    Type
REMARK                         _______ _______ _______ _____ _____    ______ ____
ROOT
ATOM      1  C   UNL     1       8.499   0.326  22.748  0.00  0.00    +0.034 A 
ATOM      2  C   UNL     1       7.940   1.249  23.626  0.00  0.00    +0.024 A 
ATOM      3  C   UNL     1       8.545   2.496  23.812  0.00  0.00    +0.010 A 
ATOM      4  C   UNL     1       9.749   2.835  23.172  0.00  0.00    -0.018 A 
ATOM      5  C   UNL     1      10.250   1.911  22.235  0.00  0.00    +0.010 A 
ATOM      6  C   UNL     1       9.612   0.684  21.996  0.00  0.00    +0.024 A 
ENDROOT
BRANCH   4   7
ATOM      7  C   UNL     1      10.494   4.072  23.521  0.00  0.00    -0.018 A 
ATOM      8  C   UNL     1       9.854   5.147  24.170  0.00  0.00    +0.008 A 
ATOM      9  C   UNL     1      10.548   6.295  24.563  0.00  0.00    +0.001 A 
ATOM     10  C   UNL     1      11.913   6.398  24.318  0.00  0.00    +0.000 A 
ATOM     11  C   UNL     1      12.573   5.355  23.676  0.00  0.00    +0.001 A 
ATOM     12  C   UNL     1      11.870   4.212  23.273  0.00  0.00    +0.008 A 
ENDBRANCH   4   7
BRANCH   1  14
ATOM     13  C   UNL     1       8.172  -1.994  23.519  0.00  0.00    +0.262 C 
ATOM     14  N   UNL     1       7.989  -0.976  22.604  0.00  0.00    -0.281 N 
ATOM     15  H   UNL     1       7.664  -1.256  21.681  0.00  0.00    +0.155 HD
ATOM     16  O   UNL     1       8.792  -1.881  24.577  0.00  0.00    -0.269 OA
BRANCH  13  19
ATOM     17  C   UNL     1       7.568  -5.842  22.987  0.00  0.00    +0.087 C 
ATOM     18  C   UNL     1       8.121  -4.533  23.497  0.00  0.00    +0.113 C 
ATOM     19  C   UNL     1       7.622  -3.328  23.127  0.00  0.00    +0.150 C 
BRANCH  19  20
ATOM     20  C   UNL     1       6.430  -3.298  22.185  0.00  0.00    +0.108 C 
ATOM     21  N   UNL     1       5.441  -3.274  21.403  0.00  0.00    -0.191 NA
ENDBRANCH  19  20
BRANCH  18  22
ATOM     22  O   UNL     1       9.195  -4.642  24.373  0.00  0.00    -0.510 OA
ATOM     23  H   UNL     1       9.841  -5.280  24.014  0.00  0.00    +0.292 HD
ENDBRANCH  18  22
ENDBRANCH  13  19
ENDBRANCH   1  14
TORSDOF 5
ENDMDL
MODEL 5
REMARK VINA RESULT:      -6.4      3.067      8.294
REMARK  Name = 
REMARK  6 active torsions:
REMARK  status: ('A' for Active; 'I' for Inactive)
REMARK    1  A    between atoms: C_1  and  C_2
REMARK    2  A    between atoms: C_2  and  O_3
REMARK    3  A    between atoms: C_4  and  C_5
REMARK    4  A    between atoms: C_4  and  C_7
REMARK    5  A    between atoms: N_9  and  C_10
REMARK    6  A    between atoms: C_13  and  C_16
REMARK                            x       y       z     vdW  Elec       q    Type
REMARK                         _______ _______ _______ _____ _____    ______ ____
ROOT
ATOM      1  C   UNL     1       8.699   0.963  22.512  0.00  0.00    +0.034 A 
ATOM      2  C   UNL     1       9.433   0.010  21.815  0.00  0.00    +0.024 A 
ATOM      3  C   UNL     1       8.980  -1.311  21.742  0.00  0.00    +0.010 A 
ATOM      4  C   UNL     1       7.813  -1.728  22.406  0.00  0.00    -0.018 A 
ATOM      5  C   UNL     1       7.054  -0.726  23.040  0.00  0.00    +0.010 A 
ATOM      6  C   UNL     1       7.471   0.613  23.062  0.00  0.00    +0.024 A 
ENDROOT
BRANCH   4   7
ATOM      7  C   UNL     1       7.441  -3.163  22.495  0.00  0.00    -0.018 A 
ATOM      8  C   UNL     1       6.483  -3.722  21.626  0.00  0.00    +0.008 A 
ATOM      9  C   UNL     1       6.161  -5.082  21.651  0.00  0.00    +0.001 A 
ATOM     10  C   UNL     1       6.799  -5.928  22.552  0.00  0.00    +0.000 A 
ATOM     11  C   UNL     1       7.748  -5.407  23.426  0.00  0.00    +0.001 A 
ATOM     12  C   UNL     1       8.056  -4.040  23.405  0.00  0.00    +0.008 A 
ENDBRANCH   4   7
BRANCH   1  14
ATOM     13  C   UNL     1      10.236   2.620  23.500  0.00  0.00    +0.262 C 
ATOM     14  N   UNL     1       9.162   2.277  22.702  0.00  0.00    -0.281 N 
ATOM     15  H   UNL     1       8.547   3.039  22.426  0.00  0.00    +0.155 HD
ATOM     16  O   UNL     1      10.923   1.817  24.131  0.00  0.00    -0.269 OA
BRANCH  13  19
ATOM     17  C   UNL     1       9.912   6.511  23.954  0.00  0.00    +0.087 C 
ATOM     18  C   UNL     1       9.585   5.037  23.926  0.00  0.00    +0.113 C 
ATOM     19  C   UNL     1      10.505   4.085  23.634  0.00  0.00    +0.150 C 
BRANCH  19  20
ATOM     20  C   UNL     1      11.935   4.520  23.362  0.00  0.00    +0.108 C 
ATOM     21  N   UNL     1      13.121   4.882  23.135  0.00  0.00    -0.191 NA
ENDBRANCH  19  20
BRANCH  18  22
ATOM     22  O   UNL     1       8.263   4.715  24.208  0.00  0.00    -0.510 OA
ATOM     23  H   UNL     1       7.939   5.285  24.932  0.00  0.00    +0.292 HD
ENDBRANCH  18  22
ENDBRANCH  13  19
ENDBRANCH   1  14
TORSDOF 5
ENDMDL
MODEL 6
REMARK VINA RESULT:      -6.1      1.368      1.892
REMARK  Name = 
REMARK  6 active torsions:
REMARK  status: ('A' for Active; 'I' for Inactive)
REMARK    1  A    between atoms: C_1  and  C_2
REMARK    2  A    between atoms: C_2  and  O_3
REMARK    3  A    between atoms: C_4  and  C_5
REMARK    4  A    between atoms: C_4  and  C_7
REMARK    5  A    between atoms: N_9  and  C_10
REMARK    6  A    between atoms: C_13  and  C_16
REMARK                            x       y       z     vdW  Elec       q    Type
REMARK                         _______ _______ _______ _____ _____    ______ ____
ROOT
ATOM      1  C   UNL     1       8.710  -1.095  24.544  0.00  0.00    +0.034 A 
ATOM      2  C   UNL     1       9.948  -0.825  23.970  0.00  0.00    +0.024 A 
ATOM      3  C   UNL     1      10.418   0.491  23.902  0.00  0.00    +0.010 A 
ATOM      4  C   UNL     1       9.644   1.575  24.353  0.00  0.00    -0.018 A 
ATOM      5  C   UNL     1       8.431   1.262  24.994  0.00  0.00    +0.010 A 
ATOM      6  C   UNL     1       7.984  -0.061  25.123  0.00  0.00    +0.024 A 
ENDROOT
BRANCH   4   7
ATOM      7  C   UNL     1      10.054   2.980  24.100  0.00  0.00    -0.018 A 
ATOM      8  C   UNL     1      11.316   3.282  23.551  0.00  0.00    +0.008 A 
ATOM      9  C   UNL     1      11.699   4.591  23.248  0.00  0.00    +0.001 A 
ATOM     10  C   UNL     1      10.820   5.643  23.483  0.00  0.00    +0.000 A 
ATOM     11  C   UNL     1       9.568   5.378  24.027  0.00  0.00    +0.001 A 
ATOM     12  C   UNL     1       9.194   4.065  24.341  0.00  0.00    +0.008 A 
ENDBRANCH   4   7
BRANCH   1  14
ATOM     13  C   UNL     1       7.274  -2.856  23.585  0.00  0.00    +0.262 C 
ATOM     14  N   UNL     1       8.148  -2.384  24.544  0.00  0.00    -0.281 N 
ATOM     15  H   UNL     1       8.201  -2.922  25.406  0.00  0.00    +0.155 HD
ATOM     16  O   UNL     1       6.891  -2.211  22.609  0.00  0.00    -0.269 OA
BRANCH  13  19
ATOM     17  C   UNL     1       5.168  -6.173  23.467  0.00  0.00    +0.087 C 
ATOM     18  C   UNL     1       5.737  -4.821  23.110  0.00  0.00    +0.113 C 
ATOM     19  C   UNL     1       6.724  -4.226  23.824  0.00  0.00    +0.150 C 
BRANCH  19  20
ATOM     20  C   UNL     1       7.306  -4.972  25.013  0.00  0.00    +0.108 C 
ATOM     21  N   UNL     1       7.791  -5.590  25.999  0.00  0.00    -0.191 NA
ENDBRANCH  19  20
BRANCH  18  22
ATOM     22  O   UNL     1       5.170  -4.212  21.997  0.00  0.00    -0.510 OA
ATOM     23  H   UNL     1       4.951  -4.894  21.332  0.00  0.00    +0.292 HD
ENDBRANCH  18  22
ENDBRANCH  13  19
ENDBRANCH   1  14
TORSDOF 5
ENDMDL
MODEL 7
REMARK VINA RESULT:      -5.9      3.139      8.384
REMARK  Name = 
REMARK  6 active torsions:
REMARK  status: ('A' for Active; 'I' for Inactive)
REMARK    1  A    between atoms: C_1  and  C_2
REMARK    2  A    between atoms: C_2  and  O_3
REMARK    3  A    between atoms: C_4  and  C_5
REMARK    4  A    between atoms: C_4  and  C_7
REMARK    5  A    between atoms: N_9  and  C_10
REMARK    6  A    between atoms: C_13  and  C_16
REMARK                            x       y       z     vdW  Elec       q    Type
REMARK                         _______ _______ _______ _____ _____    ______ ____
ROOT
ATOM      1  C   UNL     1       8.906   0.986  23.531  0.00  0.00    +0.034 A 
ATOM      2  C   UNL     1       9.323   0.291  22.400  0.00  0.00    +0.024 A 
ATOM      3  C   UNL     1       8.797  -0.974  22.119  0.00  0.00    +0.010 A 
ATOM      4  C   UNL     1       7.884  -1.602  22.984  0.00  0.00    -0.018 A 
ATOM      5  C   UNL     1       7.427  -0.845  24.079  0.00  0.00    +0.010 A 
ATOM      6  C   UNL     1       7.903   0.450  24.331  0.00  0.00    +0.024 A 
ENDROOT
BRANCH   4   7
ATOM      7  C   UNL     1       7.482  -3.019  22.792  0.00  0.00    -0.018 A 
ATOM      8  C   UNL     1       6.518  -3.377  21.828  0.00  0.00    +0.008 A 
ATOM      9  C   UNL     1       6.168  -4.709  21.588  0.00  0.00    +0.001 A 
ATOM     10  C   UNL     1       6.781  -5.727  22.310  0.00  0.00    +0.000 A 
ATOM     11  C   UNL     1       7.734  -5.406  23.271  0.00  0.00    +0.001 A 
ATOM     12  C   UNL     1       8.072  -4.069  23.516  0.00  0.00    +0.008 A 
ENDBRANCH   4   7
BRANCH   1  14
ATOM     13  C   UNL     1       8.957   3.450  23.595  0.00  0.00    +0.262 C 
ATOM     14  N   UNL     1       9.478   2.211  23.912  0.00  0.00    -0.281 N 
ATOM     15  H   UNL     1      10.442   2.202  24.240  0.00  0.00    +0.155 HD
ATOM     16  O   UNL     1       7.922   3.630  22.952  0.00  0.00    -0.269 OA
BRANCH  13  19
ATOM     17  C   UNL     1      11.832   6.070  24.159  0.00  0.00    +0.087 C 
ATOM     18  C   UNL     1      11.034   4.911  23.613  0.00  0.00    +0.113 C 
ATOM     19  C   UNL     1       9.773   4.629  24.022  0.00  0.00    +0.150 C 
BRANCH  19  20
ATOM     20  C   UNL     1       9.123   5.543  25.048  0.00  0.00    +0.108 C 
ATOM     21  N   UNL     1       8.585   6.303  25.898  0.00  0.00    -0.191 NA
ENDBRANCH  19  20
BRANCH  18  22
ATOM     22  O   UNL     1      11.685   4.134  22.663  0.00  0.00    -0.510 OA
ATOM     23  H   UNL     1      12.389   3.614  23.097  0.00  0.00    +0.292 HD
ENDBRANCH  18  22
ENDBRANCH  13  19
ENDBRANCH   1  14
TORSDOF 5
ENDMDL
MODEL 8
REMARK VINA RESULT:      -5.8      1.781      2.251
REMARK  Name = 
REMARK  6 active torsions:
REMARK  status: ('A' for Active; 'I' for Inactive)
REMARK    1  A    between atoms: C_1  and  C_2
REMARK    2  A    between atoms: C_2  and  O_3
REMARK    3  A    between atoms: C_4  and  C_5
REMARK    4  A    between atoms: C_4  and  C_7
REMARK    5  A    between atoms: N_9  and  C_10
REMARK    6  A    between atoms: C_13  and  C_16
REMARK                            x       y       z     vdW  Elec       q    Type
REMARK                         _______ _______ _______ _____ _____    ______ ____
ROOT
ATOM      1  C   UNL     1       7.897  -0.293  22.784  0.00  0.00    +0.034 A 
ATOM      2  C   UNL     1       9.031   0.380  22.341  0.00  0.00    +0.024 A 
ATOM      3  C   UNL     1       9.132   1.766  22.499  0.00  0.00    +0.010 A 
ATOM      4  C   UNL     1       8.085   2.523  23.053  0.00  0.00    -0.018 A 
ATOM      5  C   UNL     1       6.984   1.806  23.559  0.00  0.00    +0.010 A 
ATOM      6  C   UNL     1       6.906   0.409  23.461  0.00  0.00    +0.024 A 
ENDROOT
BRANCH   4   7
ATOM      7  C   UNL     1       8.109   4.008  23.038  0.00  0.00    -0.018 A 
ATOM      8  C   UNL     1       9.030   4.729  23.824  0.00  0.00    +0.008 A 
ATOM      9  C   UNL     1       9.110   6.124  23.780  0.00  0.00    +0.001 A 
ATOM     10  C   UNL     1       8.268   6.841  22.937  0.00  0.00    +0.000 A 
ATOM     11  C   UNL     1       7.346   6.158  22.150  0.00  0.00    +0.001 A 
ATOM     12  C   UNL     1       7.260   4.761  22.208  0.00  0.00    +0.008 A 
ENDBRANCH   4   7
BRANCH   1  14
ATOM     13  C   UNL     1       7.624  -2.621  23.552  0.00  0.00    +0.262 C 
ATOM     14  N   UNL     1       7.702  -1.666  22.557  0.00  0.00    -0.281 N 
ATOM     15  H   UNL     1       7.853  -2.015  21.613  0.00  0.00    +0.155 HD
ATOM     16  O   UNL     1       7.703  -2.382  24.758  0.00  0.00    -0.269 OA
BRANCH  13  19
ATOM     17  C   UNL     1       6.560  -5.942  21.739  0.00  0.00    +0.087 C 
ATOM     18  C   UNL     1       6.698  -4.480  22.093  0.00  0.00    +0.113 C 
ATOM     19  C   UNL     1       7.505  -4.037  23.087  0.00  0.00    +0.150 C 
BRANCH  19  20
ATOM     20  C   UNL     1       8.335  -5.054  23.853  0.00  0.00    +0.108 C 
ATOM     21  N   UNL     1       9.024  -5.898  24.488  0.00  0.00    -0.191 NA
ENDBRANCH  19  20
BRANCH  18  22
ATOM     22  O   UNL     1       5.926  -3.609  21.334  0.00  0.00    -0.510 OA
ATOM     23  H   UNL     1       5.927  -3.904  20.402  0.00  0.00    +0.292 HD
ENDBRANCH  18  22
ENDBRANCH  13  19
ENDBRANCH   1  14
TORSDOF 5
ENDMDL
MODEL 9
REMARK VINA RESULT:      -5.8      3.201      8.460
REMARK  Name = 
REMARK  6 active torsions:
REMARK  status: ('A' for Active; 'I' for Inactive)
REMARK    1  A    between atoms: C_1  and  C_2
REMARK    2  A    between atoms: C_2  and  O_3
REMARK    3  A    between atoms: C_4  and  C_5
REMARK    4  A    between atoms: C_4  and  C_7
REMARK    5  A    between atoms: N_9  and  C_10
REMARK    6  A    between atoms: C_13  and  C_16
REMARK                            x       y       z     vdW  Elec       q    Type
REMARK                         _______ _______ _______ _____ _____    ______ ____
ROOT
ATOM      1  C   UNL     1      10.254   1.029  23.169  0.00  0.00    +0.034 A 
ATOM      2  C   UNL     1      10.354   0.165  24.254  0.00  0.00    +0.024 A 
ATOM      3  C   UNL     1       9.799  -1.116  24.185  0.00  0.00    +0.010 A 
ATOM      4  C   UNL     1       9.082  -1.550  23.056  0.00  0.00    -0.018 A 
ATOM      5  C   UNL     1       9.061  -0.682  21.948  0.00  0.00    +0.010 A 
ATOM      6  C   UNL     1       9.672   0.580  21.988  0.00  0.00    +0.024 A 
ENDROOT
BRANCH   4   7
ATOM      7  C   UNL     1       8.325  -2.828  23.060  0.00  0.00    -0.018 A 
ATOM      8  C   UNL     1       8.619  -3.844  23.991  0.00  0.00    +0.008 A 
ATOM      9  C   UNL     1       7.880  -5.030  24.053  0.00  0.00    +0.001 A 
ATOM     10  C   UNL     1       6.815  -5.229  23.181  0.00  0.00    +0.000 A 
ATOM     11  C   UNL     1       6.502  -4.246  22.248  0.00  0.00    +0.001 A 
ATOM     12  C   UNL     1       7.254  -3.066  22.182  0.00  0.00    +0.008 A 
ENDBRANCH   4   7
BRANCH   1  14
ATOM     13  C   UNL     1      10.012   3.395  23.823  0.00  0.00    +0.262 C 
ATOM     14  N   UNL     1      10.704   2.360  23.224  0.00  0.00    -0.281 N 
ATOM     15  H   UNL     1      11.461   2.629  22.600  0.00  0.00    +0.155 HD
ATOM     16  O   UNL     1       8.926   3.275  24.390  0.00  0.00    -0.269 OA
BRANCH  13  19
ATOM     17  C   UNL     1      12.510   6.420  23.575  0.00  0.00    +0.087 C 
ATOM     18  C   UNL     1      11.955   5.016  23.615  0.00  0.00    +0.113 C 
ATOM     19  C   UNL     1      10.628   4.751  23.689  0.00  0.00    +0.150 C 
BRANCH  19  20
ATOM     20  C   UNL     1       9.657   5.919  23.694  0.00  0.00    +0.108 C 
ATOM     21  N   UNL     1       8.850   6.888  23.698  0.00  0.00    -0.191 NA
ENDBRANCH  19  20
BRANCH  18  22
ATOM     22  O   UNL     1      12.903   4.001  23.584  0.00  0.00    -0.510 OA
ATOM     23  H   UNL     1      13.307   3.963  22.695  0.00  0.00    +0.292 HD
ENDBRANCH  18  22
ENDBRANCH  13  19
ENDBRANCH   1  14
TORSDOF 5
ENDMDL
