MODEL 1
REMARK VINA RESULT:      -7.8      0.000      0.000
REMARK  Name = 
REMARK  15 active torsions:
REMARK  status: ('A' for Active; 'I' for Inactive)
REMARK    1  A    between atoms: C_1  and  C_2
REMARK    2  A    between atoms: C_2  and  C_3
REMARK    3  A    between atoms: C_2  and  C_4
REMARK    4  A    between atoms: C_2  and  C_7
REMARK    5  A    between atoms: C_4  and  O_5
REMARK    6  A    between atoms: C_10  and  C_13
REMARK    7  A    between atoms: C_13  and  O_14
REMARK    8  A    between atoms: C_13  and  C_15
REMARK    9  A    between atoms: C_15  and  C_16
REMARK   10  A    between atoms: C_16  and  C_17
REMARK   11  A    between atoms: C_17  and  N_18
REMARK   12  A    between atoms: C_21  and  C_24
REMARK   13  A    between atoms: C_24  and  O_25
REMARK   14  A    between atoms: C_24  and  C_26
REMARK   15  A    between atoms: C_24  and  C_32
REMARK                            x       y       z     vdW  Elec       q    Type
REMARK                         _______ _______ _______ _____ _____    ______ ____
ROOT
ATOM      1  N   UNL     1       8.560  -1.350  24.220  0.00  0.00    -0.302 NA
ATOM      2  C   UNL     1       7.693  -0.465  23.434  0.00  0.00    +0.085 C 
ATOM      3  C   UNL     1       8.430   0.360  22.384  0.00  0.00    +0.022 C 
ATOM      4  C   UNL     1       9.566   1.215  22.990  0.00  0.00    +0.032 C 
ATOM      5  C   UNL     1      10.506   0.201  23.672  0.00  0.00    +0.022 C 
ATOM      6  C   UNL     1       9.817  -0.737  24.664  0.00  0.00    +0.085 C 
ENDROOT
BRANCH   1   7
ATOM      7  C   UNL     1       8.726  -2.664  23.596  0.00  0.00    +0.084 C 
BRANCH   7   8
ATOM      8  C   UNL     1       9.484  -3.645  24.506  0.00  0.00    +0.018 C 
BRANCH   8   9
ATOM      9  C   UNL     1       8.807  -5.008  24.710  0.00  0.00    +0.037 C 
BRANCH   9  10
ATOM     10  C   UNL     1       7.808  -5.073  25.878  0.00  0.00    +0.145 C 
BRANCH  10  14
ATOM     11  C   UNL     1       3.763  -6.172  24.707  0.00  0.00    -0.031 A 
ATOM     12  C   UNL     1       4.156  -6.239  26.054  0.00  0.00    +0.005 A 
ATOM     13  C   UNL     1       5.452  -5.908  26.447  0.00  0.00    +0.006 A 
ATOM     14  C   UNL     1       6.402  -5.500  25.507  0.00  0.00    -0.019 A 
ATOM     15  C   UNL     1       6.017  -5.444  24.160  0.00  0.00    +0.006 A 
ATOM     16  C   UNL     1       4.717  -5.769  23.764  0.00  0.00    +0.005 A 
BRANCH  11  18
ATOM     17  C   UNL     1       1.760  -5.726  23.143  0.00  0.00    +0.027 C 
ATOM     18  C   UNL     1       2.317  -6.535  24.329  0.00  0.00    +0.087 C 
ATOM     19  C   UNL     1       1.425  -6.259  25.559  0.00  0.00    +0.027 C 
BRANCH  18  20
ATOM     20  C   UNL     1       2.182  -8.020  23.921  0.00  0.00    +0.315 C 
ATOM     21  O   UNL     1       2.281  -8.952  24.705  0.00  0.00    -0.250 OA
BRANCH  20  22
ATOM     22  O   UNL     1       1.875  -8.227  22.620  0.00  0.00    -0.480 OA
ATOM     23  H   UNL     1       1.193  -7.626  22.263  0.00  0.00    +0.295 HD
ENDBRANCH  20  22
ENDBRANCH  18  20
ENDBRANCH  11  18
ENDBRANCH  10  14
BRANCH  10  24
ATOM     24  O   UNL     1       8.239  -5.976  26.891  0.00  0.00    -0.387 OA
ATOM     25  H   UNL     1       8.591  -6.764  26.433  0.00  0.00    +0.210 HD
ENDBRANCH  10  24
ENDBRANCH   9  10
ENDBRANCH   8   9
ENDBRANCH   7   8
ENDBRANCH   1   7
BRANCH   4  26
ATOM     26  C   UNL     1       9.064   2.425  23.895  0.00  0.00    +0.119 C 
BRANCH  26  27
ATOM     27  C   UNL     1       7.620   2.810  23.503  0.00  0.00    -0.011 A 
ATOM     28  C   UNL     1       6.561   2.721  24.424  0.00  0.00    +0.007 A 
ATOM     29  C   UNL     1       5.283   3.190  24.099  0.00  0.00    +0.000 A 
ATOM     30  C   UNL     1       5.031   3.750  22.848  0.00  0.00    +0.000 A 
ATOM     31  C   UNL     1       6.056   3.824  21.910  0.00  0.00    +0.000 A 
ATOM     32  C   UNL     1       7.331   3.354  22.234  0.00  0.00    +0.007 A 
ENDBRANCH  26  27
BRANCH  26  33
ATOM     33  C   UNL     1      10.006   3.645  23.926  0.00  0.00    -0.011 A 
ATOM     34  C   UNL     1      11.324   3.522  23.431  0.00  0.00    +0.007 A 
ATOM     35  C   UNL     1      12.150   4.634  23.261  0.00  0.00    +0.000 A 
ATOM     36  C   UNL     1      11.693   5.894  23.626  0.00  0.00    +0.000 A 
ATOM     37  C   UNL     1      10.428   6.034  24.190  0.00  0.00    +0.000 A 
ATOM     38  C   UNL     1       9.599   4.919  24.358  0.00  0.00    +0.007 A 
ENDBRANCH  26  33
BRANCH  26  39
ATOM     39  O   UNL     1       9.023   1.952  25.257  0.00  0.00    -0.379 OA
ATOM     40  H   UNL     1       8.160   2.195  25.625  0.00  0.00    +0.211 HD
ENDBRANCH  26  39
ENDBRANCH   4  26
TORSDOF 13
ENDMDL
MODEL 2
REMARK VINA RESULT:      -7.8      1.127      3.398
REMARK  Name = 
REMARK  15 active torsions:
REMARK  status: ('A' for Active; 'I' for Inactive)
REMARK    1  A    between atoms: C_1  and  C_2
REMARK    2  A    between atoms: C_2  and  C_3
REMARK    3  A    between atoms: C_2  and  C_4
REMARK    4  A    between atoms: C_2  and  C_7
REMARK    5  A    between atoms: C_4  and  O_5
REMARK    6  A    between atoms: C_10  and  C_13
REMARK    7  A    between atoms: C_13  and  O_14
REMARK    8  A    between atoms: C_13  and  C_15
REMARK    9  A    between atoms: C_15  and  C_16
REMARK   10  A    between atoms: C_16  and  C_17
REMARK   11  A    between atoms: C_17  and  N_18
REMARK   12  A    between atoms: C_21  and  C_24
REMARK   13  A    between atoms: C_24  and  O_25
REMARK   14  A    between atoms: C_24  and  C_26
REMARK   15  A    between atoms: C_24  and  C_32
REMARK                            x       y       z     vdW  Elec       q    Type
REMARK                         _______ _______ _______ _____ _____    ______ ____
ROOT
ATOM      1  N   UNL     1       9.301  -0.877  23.194  0.00  0.00    -0.302 NA
ATOM      2  C   UNL     1      10.487  -0.064  22.902  0.00  0.00    +0.085 C 
ATOM      3  C   UNL     1      10.916   0.848  24.047  0.00  0.00    +0.022 C 
ATOM      4  C   UNL     1       9.785   1.795  24.508  0.00  0.00    +0.032 C 
ATOM      5  C   UNL     1       8.633   0.863  24.932  0.00  0.00    +0.022 C 
ATOM      6  C   UNL     1       8.216  -0.157  23.870  0.00  0.00    +0.085 C 
ENDROOT
BRANCH   1   7
ATOM      7  C   UNL     1       9.644  -2.158  23.818  0.00  0.00    +0.084 C 
BRANCH   7   8
ATOM      8  C   UNL     1       8.572  -2.620  24.817  0.00  0.00    +0.018 C 
BRANCH   8   9
ATOM      9  C   UNL     1       9.041  -3.652  25.853  0.00  0.00    +0.037 C 
BRANCH   9  10
ATOM     10  C   UNL     1       8.639  -5.106  25.554  0.00  0.00    +0.145 C 
BRANCH  10  14
ATOM     11  C   UNL     1       4.417  -5.841  24.791  0.00  0.00    -0.031 A 
ATOM     12  C   UNL     1       5.324  -5.732  23.723  0.00  0.00    +0.005 A 
ATOM     13  C   UNL     1       6.677  -5.479  23.946  0.00  0.00    +0.006 A 
ATOM     14  C   UNL     1       7.172  -5.324  25.244  0.00  0.00    -0.019 A 
ATOM     15  C   UNL     1       6.267  -5.420  26.311  0.00  0.00    +0.006 A 
ATOM     16  C   UNL     1       4.912  -5.679  26.091  0.00  0.00    +0.005 A 
BRANCH  11  18
ATOM     17  C   UNL     1       2.350  -5.274  23.356  0.00  0.00    +0.027 C 
ATOM     18  C   UNL     1       2.938  -6.133  24.491  0.00  0.00    +0.087 C 
ATOM     19  C   UNL     1       2.131  -5.847  25.777  0.00  0.00    +0.027 C 
BRANCH  18  20
ATOM     20  C   UNL     1       2.714  -7.601  24.062  0.00  0.00    +0.315 C 
ATOM     21  O   UNL     1       2.833  -8.555  24.816  0.00  0.00    -0.250 OA
BRANCH  20  22
ATOM     22  O   UNL     1       2.305  -7.764  22.783  0.00  0.00    -0.480 OA
ATOM     23  H   UNL     1       1.336  -7.753  22.663  0.00  0.00    +0.295 HD
ENDBRANCH  20  22
ENDBRANCH  18  20
ENDBRANCH  11  18
ENDBRANCH  10  14
BRANCH  10  24
ATOM     24  O   UNL     1       9.358  -5.634  24.443  0.00  0.00    -0.387 OA
ATOM     25  H   UNL     1       8.769  -5.559  23.667  0.00  0.00    +0.210 HD
ENDBRANCH  10  24
ENDBRANCH   9  10
ENDBRANCH   8   9
ENDBRANCH   7   8
ENDBRANCH   1   7
BRANCH   4  26
ATOM     26  C   UNL     1       9.416   2.934  23.458  0.00  0.00    +0.119 C 
BRANCH  26  27
ATOM     27  C   UNL     1      10.361   4.143  23.641  0.00  0.00    -0.011 A 
ATOM     28  C   UNL     1       9.938   5.313  24.297  0.00  0.00    +0.007 A 
ATOM     29  C   UNL     1      10.837   6.351  24.569  0.00  0.00    +0.000 A 
ATOM     30  C   UNL     1      12.173   6.249  24.186  0.00  0.00    +0.000 A 
ATOM     31  C   UNL     1      12.609   5.113  23.510  0.00  0.00    +0.000 A 
ATOM     32  C   UNL     1      11.711   4.078  23.238  0.00  0.00    +0.007 A 
ENDBRANCH  26  27
BRANCH  26  33
ATOM     33  C   UNL     1       7.931   3.349  23.448  0.00  0.00    -0.011 A 
ATOM     34  C   UNL     1       7.165   3.170  22.274  0.00  0.00    +0.007 A 
ATOM     35  C   UNL     1       5.781   3.350  22.268  0.00  0.00    +0.000 A 
ATOM     36  C   UNL     1       5.133   3.758  23.427  0.00  0.00    +0.000 A 
ATOM     37  C   UNL     1       5.874   4.018  24.577  0.00  0.00    +0.000 A 
ATOM     38  C   UNL     1       7.262   3.835  24.584  0.00  0.00    +0.007 A 
ENDBRANCH  26  33
BRANCH  26  39
ATOM     39  O   UNL     1       9.661   2.398  22.141  0.00  0.00    -0.379 OA
ATOM     40  H   UNL     1      10.399   2.894  21.757  0.00  0.00    +0.211 HD
ENDBRANCH  26  39
ENDBRANCH   4  26
TORSDOF 13
ENDMDL
MODEL 3
REMARK VINA RESULT:      -7.7      1.644      2.507
REMARK  Name = 
REMARK  15 active torsions:
REMARK  status: ('A' for Active; 'I' for Inactive)
REMARK    1  A    between atoms: C_1  and  C_2
REMARK    2  A    between atoms: C_2  and  C_3
REMARK    3  A    between atoms: C_2  and  C_4
REMARK    4  A    between atoms: C_2  and  C_7
REMARK    5  A    between atoms: C_4  and  O_5
REMARK    6  A    between atoms: C_10  and  C_13
REMARK    7  A    between atoms: C_13  and  O_14
REMARK    8  A    between atoms: C_13  and  C_15
REMARK    9  A    between atoms: C_15  and  C_16
REMARK   10  A    between atoms: C_16  and  C_17
REMARK   11  A    between atoms: C_17  and  N_18
REMARK   12  A    between atoms: C_21  and  C_24
REMARK   13  A    between atoms: C_24  and  O_25
REMARK   14  A    between atoms: C_24  and  C_26
REMARK   15  A    between atoms: C_24  and  C_32
REMARK                            x       y       z     vdW  Elec       q    Type
REMARK                         _______ _______ _______ _____ _____    ______ ____
ROOT
ATOM      1  N   UNL     1       8.547   0.787  24.496  0.00  0.00    -0.302 NA
ATOM      2  C   UNL     1       7.482   1.622  23.926  0.00  0.00    +0.085 C 
ATOM      3  C   UNL     1       7.908   2.428  22.704  0.00  0.00    +0.022 C 
ATOM      4  C   UNL     1       9.130   3.332  22.984  0.00  0.00    +0.032 C 
ATOM      5  C   UNL     1      10.243   2.366  23.438  0.00  0.00    +0.022 C 
ATOM      6  C   UNL     1       9.854   1.446  24.596  0.00  0.00    +0.085 C 
ENDROOT
BRANCH   1   7
ATOM      7  C   UNL     1       8.596  -0.544  23.886  0.00  0.00    +0.084 C 
BRANCH   7   8
ATOM      8  C   UNL     1       9.517  -1.501  24.660  0.00  0.00    +0.018 C 
BRANCH   8   9
ATOM      9  C   UNL     1       9.596  -2.930  24.104  0.00  0.00    +0.037 C 
BRANCH   9  10
ATOM     10  C   UNL     1       9.235  -4.041  25.105  0.00  0.00    +0.145 C 
BRANCH  10  14
ATOM     11  C   UNL     1       5.091  -5.367  25.211  0.00  0.00    -0.031 A 
ATOM     12  C   UNL     1       5.557  -4.574  24.149  0.00  0.00    +0.005 A 
ATOM     13  C   UNL     1       6.875  -4.124  24.105  0.00  0.00    +0.006 A 
ATOM     14  C   UNL     1       7.776  -4.450  25.124  0.00  0.00    -0.019 A 
ATOM     15  C   UNL     1       7.311  -5.231  26.192  0.00  0.00    +0.006 A 
ATOM     16  C   UNL     1       5.991  -5.687  26.234  0.00  0.00    +0.005 A 
BRANCH  11  18
ATOM     17  C   UNL     1       2.642  -4.830  24.604  0.00  0.00    +0.027 C 
ATOM     18  C   UNL     1       3.630  -5.847  25.204  0.00  0.00    +0.087 C 
ATOM     19  C   UNL     1       3.215  -6.114  26.667  0.00  0.00    +0.027 C 
BRANCH  18  20
ATOM     20  C   UNL     1       3.451  -7.141  24.376  0.00  0.00    +0.315 C 
ATOM     21  O   UNL     1       3.443  -8.262  24.860  0.00  0.00    -0.250 OA
BRANCH  20  22
ATOM     22  O   UNL     1       3.233  -6.946  23.055  0.00  0.00    -0.480 OA
ATOM     23  H   UNL     1       3.113  -6.011  22.798  0.00  0.00    +0.295 HD
ENDBRANCH  20  22
ENDBRANCH  18  20
ENDBRANCH  11  18
ENDBRANCH  10  14
BRANCH  10  24
ATOM     24  O   UNL     1       9.975  -5.233  24.859  0.00  0.00    -0.387 OA
ATOM     25  H   UNL     1      10.407  -5.120  23.991  0.00  0.00    +0.210 HD
ENDBRANCH  10  24
ENDBRANCH   9  10
ENDBRANCH   8   9
ENDBRANCH   7   8
ENDBRANCH   1   7
BRANCH   4  26
ATOM     26  C   UNL     1       8.829   4.560  23.952  0.00  0.00    +0.119 C 
BRANCH  26  27
ATOM     27  C   UNL     1       7.642   5.382  23.403  0.00  0.00    -0.011 A 
ATOM     28  C   UNL     1       7.776   6.193  22.262  0.00  0.00    +0.007 A 
ATOM     29  C   UNL     1       6.665   6.833  21.700  0.00  0.00    +0.000 A 
ATOM     30  C   UNL     1       5.401   6.685  22.266  0.00  0.00    +0.000 A 
ATOM     31  C   UNL     1       5.248   5.911  23.411  0.00  0.00    +0.000 A 
ATOM     32  C   UNL     1       6.356   5.273  23.973  0.00  0.00    +0.007 A 
ENDBRANCH  26  27
BRANCH  26  33
ATOM     33  C   UNL     1      10.050   5.442  24.279  0.00  0.00    -0.011 A 
ATOM     34  C   UNL     1       9.959   6.406  25.308  0.00  0.00    +0.007 A 
ATOM     35  C   UNL     1      11.083   7.095  25.768  0.00  0.00    +0.000 A 
ATOM     36  C   UNL     1      12.320   6.869  25.179  0.00  0.00    +0.000 A 
ATOM     37  C   UNL     1      12.424   5.983  24.110  0.00  0.00    +0.000 A 
ATOM     38  C   UNL     1      11.297   5.290  23.650  0.00  0.00    +0.007 A 
ENDBRANCH  26  33
BRANCH  26  39
ATOM     39  O   UNL     1       8.416   4.012  25.222  0.00  0.00    -0.379 OA
ATOM     40  H   UNL     1       8.871   4.512  25.916  0.00  0.00    +0.211 HD
ENDBRANCH  26  39
ENDBRANCH   4  26
TORSDOF 13
ENDMDL
MODEL 4
REMARK VINA RESULT:      -7.7      2.648      4.702
REMARK  Name = 
REMARK  15 active torsions:
REMARK  status: ('A' for Active; 'I' for Inactive)
REMARK    1  A    between atoms: C_1  and  C_2
REMARK    2  A    between atoms: C_2  and  C_3
REMARK    3  A    between atoms: C_2  and  C_4
REMARK    4  A    between atoms: C_2  and  C_7
REMARK    5  A    between atoms: C_4  and  O_5
REMARK    6  A    between atoms: C_10  and  C_13
REMARK    7  A    between atoms: C_13  and  O_14
REMARK    8  A    between atoms: C_13  and  C_15
REMARK    9  A    between atoms: C_15  and  C_16
REMARK   10  A    between atoms: C_16  and  C_17
REMARK   11  A    between atoms: C_17  and  N_18
REMARK   12  A    between atoms: C_21  and  C_24
REMARK   13  A    between atoms: C_24  and  O_25
REMARK   14  A    between atoms: C_24  and  C_26
REMARK   15  A    between atoms: C_24  and  C_32
REMARK                            x       y       z     vdW  Elec       q    Type
REMARK                         _______ _______ _______ _____ _____    ______ ____
ROOT
ATOM      1  N   UNL     1       5.546  -0.607  27.392  0.00  0.00    -0.302 NA
ATOM      2  C   UNL     1       5.756   0.843  27.303  0.00  0.00    +0.085 C 
ATOM      3  C   UNL     1       5.348   1.452  25.966  0.00  0.00    +0.022 C 
ATOM      4  C   UNL     1       6.063   0.788  24.767  0.00  0.00    +0.032 C 
ATOM      5  C   UNL     1       5.677  -0.703  24.850  0.00  0.00    +0.022 C 
ATOM      6  C   UNL     1       5.958  -1.359  26.202  0.00  0.00    +0.085 C 
ENDROOT
BRANCH   1   7
ATOM      7  C   UNL     1       4.206  -0.946  27.877  0.00  0.00    +0.084 C 
BRANCH   7   8
ATOM      8  C   UNL     1       4.165  -2.330  28.545  0.00  0.00    +0.018 C 
BRANCH   8   9
ATOM      9  C   UNL     1       2.894  -3.150  28.283  0.00  0.00    +0.037 C 
BRANCH   9  10
ATOM     10  C   UNL     1       3.127  -4.530  27.645  0.00  0.00    +0.145 C 
BRANCH  10  14
ATOM     11  C   UNL     1       5.516  -4.459  24.007  0.00  0.00    -0.031 A 
ATOM     12  C   UNL     1       4.196  -3.976  24.001  0.00  0.00    +0.005 A 
ATOM     13  C   UNL     1       3.408  -4.006  25.151  0.00  0.00    +0.006 A 
ATOM     14  C   UNL     1       3.911  -4.522  26.349  0.00  0.00    -0.019 A 
ATOM     15  C   UNL     1       5.224  -5.016  26.356  0.00  0.00    +0.006 A 
ATOM     16  C   UNL     1       6.017  -4.982  25.206  0.00  0.00    +0.005 A 
BRANCH  11  18
ATOM     17  C   UNL     1       7.865  -4.498  22.941  0.00  0.00    +0.027 C 
ATOM     18  C   UNL     1       6.345  -4.390  22.714  0.00  0.00    +0.087 C 
ATOM     19  C   UNL     1       6.056  -3.030  22.041  0.00  0.00    +0.027 C 
BRANCH  18  20
ATOM     20  C   UNL     1       5.987  -5.532  21.736  0.00  0.00    +0.315 C 
ATOM     21  O   UNL     1       5.947  -5.400  20.522  0.00  0.00    -0.250 OA
BRANCH  20  22
ATOM     22  O   UNL     1       5.776  -6.735  22.318  0.00  0.00    -0.480 OA
ATOM     23  H   UNL     1       5.575  -7.458  21.693  0.00  0.00    +0.295 HD
ENDBRANCH  20  22
ENDBRANCH  18  20
ENDBRANCH  11  18
ENDBRANCH  10  14
BRANCH  10  24
ATOM     24  O   UNL     1       3.827  -5.406  28.523  0.00  0.00    -0.387 OA
ATOM     25  H   UNL     1       4.107  -4.868  29.290  0.00  0.00    +0.210 HD
ENDBRANCH  10  24
ENDBRANCH   9  10
ENDBRANCH   8   9
ENDBRANCH   7   8
ENDBRANCH   1   7
BRANCH   4  26
ATOM     26  C   UNL     1       7.621   1.104  24.677  0.00  0.00    +0.119 C 
BRANCH  26  27
ATOM     27  C   UNL     1       7.834   2.563  24.214  0.00  0.00    -0.011 A 
ATOM     28  C   UNL     1       8.985   3.286  24.573  0.00  0.00    +0.007 A 
ATOM     29  C   UNL     1       9.228   4.560  24.046  0.00  0.00    +0.000 A 
ATOM     30  C   UNL     1       8.327   5.143  23.157  0.00  0.00    +0.000 A 
ATOM     31  C   UNL     1       7.167   4.458  22.808  0.00  0.00    +0.000 A 
ATOM     32  C   UNL     1       6.924   3.188  23.336  0.00  0.00    +0.007 A 
ENDBRANCH  26  27
BRANCH  26  33
ATOM     33  C   UNL     1       8.439   0.100  23.840  0.00  0.00    -0.011 A 
ATOM     34  C   UNL     1       8.426   0.193  22.430  0.00  0.00    +0.007 A 
ATOM     35  C   UNL     1       9.290  -0.563  21.638  0.00  0.00    +0.000 A 
ATOM     36  C   UNL     1      10.160  -1.467  22.235  0.00  0.00    +0.000 A 
ATOM     37  C   UNL     1      10.138  -1.637  23.617  0.00  0.00    +0.000 A 
ATOM     38  C   UNL     1       9.272  -0.875  24.412  0.00  0.00    +0.007 A 
ENDBRANCH  26  33
BRANCH  26  39
ATOM     39  O   UNL     1       8.157   0.999  26.012  0.00  0.00    -0.379 OA
ATOM     40  H   UNL     1       7.904   0.131  26.361  0.00  0.00    +0.211 HD
ENDBRANCH  26  39
ENDBRANCH   4  26
TORSDOF 13
ENDMDL
MODEL 5
REMARK VINA RESULT:      -7.7      3.062      8.330
REMARK  Name = 
REMARK  15 active torsions:
REMARK  status: ('A' for Active; 'I' for Inactive)
REMARK    1  A    between atoms: C_1  and  C_2
REMARK    2  A    between atoms: C_2  and  C_3
REMARK    3  A    between atoms: C_2  and  C_4
REMARK    4  A    between atoms: C_2  and  C_7
REMARK    5  A    between atoms: C_4  and  O_5
REMARK    6  A    between atoms: C_10  and  C_13
REMARK    7  A    between atoms: C_13  and  O_14
REMARK    8  A    between atoms: C_13  and  C_15
REMARK    9  A    between atoms: C_15  and  C_16
REMARK   10  A    between atoms: C_16  and  C_17
REMARK   11  A    between atoms: C_17  and  N_18
REMARK   12  A    between atoms: C_21  and  C_24
REMARK   13  A    between atoms: C_24  and  O_25
REMARK   14  A    between atoms: C_24  and  C_26
REMARK   15  A    between atoms: C_24  and  C_32
REMARK                            x       y       z     vdW  Elec       q    Type
REMARK                         _______ _______ _______ _____ _____    ______ ____
ROOT
ATOM      1  N   UNL     1       9.683  -1.304  22.752  0.00  0.00    -0.302 NA
ATOM      2  C   UNL     1       8.525  -2.026  22.210  0.00  0.00    +0.085 C 
ATOM      3  C   UNL     1       7.222  -1.767  22.957  0.00  0.00    +0.022 C 
ATOM      4  C   UNL     1       7.327  -2.091  24.465  0.00  0.00    +0.032 C 
ATOM      5  C   UNL     1       8.464  -1.190  24.987  0.00  0.00    +0.022 C 
ATOM      6  C   UNL     1       9.779  -1.315  24.216  0.00  0.00    +0.085 C 
ENDROOT
BRANCH   1   7
ATOM      7  C   UNL     1       9.839   0.024  22.154  0.00  0.00    +0.084 C 
BRANCH   7   8
ATOM      8  C   UNL     1      10.541   1.007  23.105  0.00  0.00    +0.018 C 
BRANCH   8   9
ATOM      9  C   UNL     1      10.089   2.470  22.990  0.00  0.00    +0.037 C 
BRANCH   9  10
ATOM     10  C   UNL     1       8.595   2.669  22.683  0.00  0.00    +0.145 C 
BRANCH  10  14
ATOM     11  C   UNL     1       6.007   1.670  26.037  0.00  0.00    -0.031 A 
ATOM     12  C   UNL     1       5.664   1.276  24.732  0.00  0.00    +0.005 A 
ATOM     13  C   UNL     1       6.470   1.601  23.642  0.00  0.00    +0.006 A 
ATOM     14  C   UNL     1       7.648   2.334  23.817  0.00  0.00    -0.019 A 
ATOM     15  C   UNL     1       7.987   2.739  25.116  0.00  0.00    +0.006 A 
ATOM     16  C   UNL     1       7.184   2.409  26.211  0.00  0.00    +0.005 A 
BRANCH  11  18
ATOM     17  C   UNL     1       4.761   2.434  28.162  0.00  0.00    +0.027 C 
ATOM     18  C   UNL     1       5.089   1.273  27.205  0.00  0.00    +0.087 C 
ATOM     19  C   UNL     1       5.807   0.171  28.015  0.00  0.00    +0.027 C 
BRANCH  18  20
ATOM     20  C   UNL     1       3.725   0.740  26.712  0.00  0.00    +0.315 C 
ATOM     21  O   UNL     1       3.416  -0.443  26.713  0.00  0.00    -0.250 OA
BRANCH  20  22
ATOM     22  O   UNL     1       2.845   1.693  26.329  0.00  0.00    -0.480 OA
ATOM     23  H   UNL     1       3.255   2.543  26.072  0.00  0.00    +0.295 HD
ENDBRANCH  20  22
ENDBRANCH  18  20
ENDBRANCH  11  18
ENDBRANCH  10  14
BRANCH  10  24
ATOM     24  O   UNL     1       8.307   4.015  22.314  0.00  0.00    -0.387 OA
ATOM     25  H   UNL     1       8.573   4.574  23.070  0.00  0.00    +0.210 HD
ENDBRANCH  10  24
ENDBRANCH   9  10
ENDBRANCH   8   9
ENDBRANCH   7   8
ENDBRANCH   1   7
BRANCH   4  26
ATOM     26  C   UNL     1       7.454  -3.643  24.795  0.00  0.00    +0.119 C 
BRANCH  26  27
ATOM     27  C   UNL     1       6.856  -4.476  23.639  0.00  0.00    -0.011 A 
ATOM     28  C   UNL     1       7.672  -5.241  22.787  0.00  0.00    +0.007 A 
ATOM     29  C   UNL     1       7.111  -6.090  21.825  0.00  0.00    +0.000 A 
ATOM     30  C   UNL     1       5.728  -6.189  21.688  0.00  0.00    +0.000 A 
ATOM     31  C   UNL     1       4.901  -5.421  22.501  0.00  0.00    +0.000 A 
ATOM     32  C   UNL     1       5.460  -4.572  23.459  0.00  0.00    +0.007 A 
ENDBRANCH  26  27
BRANCH  26  33
ATOM     33  C   UNL     1       6.894  -4.062  26.169  0.00  0.00    -0.011 A 
ATOM     34  C   UNL     1       5.870  -3.293  26.768  0.00  0.00    +0.007 A 
ATOM     35  C   UNL     1       5.201  -3.731  27.912  0.00  0.00    +0.000 A 
ATOM     36  C   UNL     1       5.569  -4.928  28.512  0.00  0.00    +0.000 A 
ATOM     37  C   UNL     1       6.627  -5.666  27.988  0.00  0.00    +0.000 A 
ATOM     38  C   UNL     1       7.297  -5.228  26.839  0.00  0.00    +0.007 A 
ENDBRANCH  26  33
BRANCH  26  39
ATOM     39  O   UNL     1       8.862  -3.953  24.858  0.00  0.00    -0.379 OA
ATOM     40  H   UNL     1       9.148  -3.829  25.775  0.00  0.00    +0.211 HD
ENDBRANCH  26  39
ENDBRANCH   4  26
TORSDOF 13
ENDMDL
MODEL 6
REMARK VINA RESULT:      -7.6      1.929      4.403
REMARK  Name = 
REMARK  15 active torsions:
REMARK  status: ('A' for Active; 'I' for Inactive)
REMARK    1  A    between atoms: C_1  and  C_2
REMARK    2  A    between atoms: C_2  and  C_3
REMARK    3  A    between atoms: C_2  and  C_4
REMARK    4  A    between atoms: C_2  and  C_7
REMARK    5  A    between atoms: C_4  and  O_5
REMARK    6  A    between atoms: C_10  and  C_13
REMARK    7  A    between atoms: C_13  and  O_14
REMARK    8  A    between atoms: C_13  and  C_15
REMARK    9  A    between atoms: C_15  and  C_16
REMARK   10  A    between atoms: C_16  and  C_17
REMARK   11  A    between atoms: C_17  and  N_18
REMARK   12  A    between atoms: C_21  and  C_24
REMARK   13  A    between atoms: C_24  and  O_25
REMARK   14  A    between atoms: C_24  and  C_26
REMARK   15  A    between atoms: C_24  and  C_32
REMARK                            x       y       z     vdW  Elec       q    Type
REMARK                         _______ _______ _______ _____ _____    ______ ____
ROOT
ATOM      1  N   UNL     1       8.142  -1.011  22.376  0.00  0.00    -0.302 NA
ATOM      2  C   UNL     1       9.321  -0.333  21.823  0.00  0.00    +0.085 C 
ATOM      3  C   UNL     1      10.241   0.277  22.874  0.00  0.00    +0.022 C 
ATOM      4  C   UNL     1       9.507   1.271  23.802  0.00  0.00    +0.032 C 
ATOM      5  C   UNL     1       8.376   0.448  24.452  0.00  0.00    +0.022 C 
ATOM      6  C   UNL     1       7.471  -0.285  23.460  0.00  0.00    +0.085 C 
ENDROOT
BRANCH   1   7
ATOM      7  C   UNL     1       8.402  -2.421  22.676  0.00  0.00    +0.084 C 
BRANCH   7   8
ATOM      8  C   UNL     1       7.194  -3.314  22.347  0.00  0.00    +0.018 C 
BRANCH   8   9
ATOM      9  C   UNL     1       7.461  -4.825  22.394  0.00  0.00    +0.037 C 
BRANCH   9  10
ATOM     10  C   UNL     1       6.235  -5.695  22.718  0.00  0.00    +0.145 C 
BRANCH  10  14
ATOM     11  C   UNL     1       5.178  -5.766  26.939  0.00  0.00    -0.031 A 
ATOM     12  C   UNL     1       4.313  -6.322  25.981  0.00  0.00    +0.005 A 
ATOM     13  C   UNL     1       4.625  -6.293  24.622  0.00  0.00    +0.006 A 
ATOM     14  C   UNL     1       5.812  -5.706  24.173  0.00  0.00    -0.019 A 
ATOM     15  C   UNL     1       6.671  -5.140  25.126  0.00  0.00    +0.006 A 
ATOM     16  C   UNL     1       6.363  -5.172  26.489  0.00  0.00    +0.005 A 
BRANCH  11  18
ATOM     17  C   UNL     1       3.568  -6.726  28.712  0.00  0.00    +0.027 C 
ATOM     18  C   UNL     1       4.791  -5.835  28.426  0.00  0.00    +0.087 C 
ATOM     19  C   UNL     1       4.460  -4.401  28.894  0.00  0.00    +0.027 C 
BRANCH  18  20
ATOM     20  C   UNL     1       5.936  -6.406  29.295  0.00  0.00    +0.315 C 
ATOM     21  O   UNL     1       6.433  -5.813  30.240  0.00  0.00    -0.250 OA
BRANCH  20  22
ATOM     22  O   UNL     1       6.319  -7.663  28.976  0.00  0.00    -0.480 OA
ATOM     23  H   UNL     1       5.887  -8.030  28.180  0.00  0.00    +0.295 HD
ENDBRANCH  20  22
ENDBRANCH  18  20
ENDBRANCH  11  18
ENDBRANCH  10  14
BRANCH  10  24
ATOM     24  O   UNL     1       5.088  -5.287  21.978  0.00  0.00    -0.387 OA
ATOM     25  H   UNL     1       5.337  -4.469  21.505  0.00  0.00    +0.210 HD
ENDBRANCH  10  24
ENDBRANCH   9  10
ENDBRANCH   8   9
ENDBRANCH   7   8
ENDBRANCH   1   7
BRANCH   4  26
ATOM     26  C   UNL     1       9.067   2.628  23.093  0.00  0.00    +0.119 C 
BRANCH  26  27
ATOM     27  C   UNL     1      10.062   3.754  23.453  0.00  0.00    -0.011 A 
ATOM     28  C   UNL     1      11.448   3.596  23.270  0.00  0.00    +0.007 A 
ATOM     29  C   UNL     1      12.327   4.664  23.479  0.00  0.00    +0.000 A 
ATOM     30  C   UNL     1      11.847   5.909  23.881  0.00  0.00    +0.000 A 
ATOM     31  C   UNL     1      10.484   6.082  24.096  0.00  0.00    +0.000 A 
ATOM     32  C   UNL     1       9.606   5.015  23.889  0.00  0.00    +0.007 A 
ENDBRANCH  26  27
BRANCH  26  33
ATOM     33  C   UNL     1       7.602   3.041  23.337  0.00  0.00    -0.011 A 
ATOM     34  C   UNL     1       7.171   3.340  24.650  0.00  0.00    +0.007 A 
ATOM     35  C   UNL     1       5.917   3.899  24.899  0.00  0.00    +0.000 A 
ATOM     36  C   UNL     1       5.043   4.131  23.845  0.00  0.00    +0.000 A 
ATOM     37  C   UNL     1       5.411   3.772  22.551  0.00  0.00    +0.000 A 
ATOM     38  C   UNL     1       6.671   3.215  22.300  0.00  0.00    +0.007 A 
ENDBRANCH  26  33
BRANCH  26  39
ATOM     39  O   UNL     1       9.161   2.416  21.669  0.00  0.00    -0.379 OA
ATOM     40  H   UNL     1       9.937   2.903  21.352  0.00  0.00    +0.211 HD
ENDBRANCH  26  39
ENDBRANCH   4  26
TORSDOF 13
ENDMDL
MODEL 7
REMARK VINA RESULT:      -7.6      2.158      9.767
REMARK  Name = 
REMARK  15 active torsions:
REMARK  status: ('A' for Active; 'I' for Inactive)
REMARK    1  A    between atoms: C_1  and  C_2
REMARK    2  A    between atoms: C_2  and  C_3
REMARK    3  A    between atoms: C_2  and  C_4
REMARK    4  A    between atoms: C_2  and  C_7
REMARK    5  A    between atoms: C_4  and  O_5
REMARK    6  A    between atoms: C_10  and  C_13
REMARK    7  A    between atoms: C_13  and  O_14
REMARK    8  A    between atoms: C_13  and  C_15
REMARK    9  A    between atoms: C_15  and  C_16
REMARK   10  A    between atoms: C_16  and  C_17
REMARK   11  A    between atoms: C_17  and  N_18
REMARK   12  A    between atoms: C_21  and  C_24
REMARK   13  A    between atoms: C_24  and  O_25
REMARK   14  A    between atoms: C_24  and  C_26
REMARK   15  A    between atoms: C_24  and  C_32
REMARK                            x       y       z     vdW  Elec       q    Type
REMARK                         _______ _______ _______ _____ _____    ______ ____
ROOT
ATOM      1  N   UNL     1       7.862  -2.052  22.901  0.00  0.00    -0.302 NA
ATOM      2  C   UNL     1       7.443  -3.048  21.907  0.00  0.00    +0.085 C 
ATOM      3  C   UNL     1       5.931  -3.189  21.764  0.00  0.00    +0.022 C 
ATOM      4  C   UNL     1       5.236  -3.524  23.103  0.00  0.00    +0.032 C 
ATOM      5  C   UNL     1       5.606  -2.361  24.045  0.00  0.00    +0.022 C 
ATOM      6  C   UNL     1       7.107  -2.087  24.159  0.00  0.00    +0.085 C 
ENDROOT
BRANCH   1   7
ATOM      7  C   UNL     1       7.994  -0.712  22.323  0.00  0.00    +0.084 C 
BRANCH   7   8
ATOM      8  C   UNL     1       9.437  -0.187  22.406  0.00  0.00    +0.018 C 
BRANCH   8   9
ATOM      9  C   UNL     1      10.237  -0.655  23.630  0.00  0.00    +0.037 C 
BRANCH   9  10
ATOM     10  C   UNL     1      10.351   0.372  24.769  0.00  0.00    +0.145 C 
BRANCH  10  14
ATOM     11  C   UNL     1       8.609   4.295  24.045  0.00  0.00    -0.031 A 
ATOM     12  C   UNL     1       7.870   3.300  24.707  0.00  0.00    +0.005 A 
ATOM     13  C   UNL     1       8.403   2.032  24.933  0.00  0.00    +0.006 A 
ATOM     14  C   UNL     1       9.694   1.712  24.503  0.00  0.00    -0.019 A 
ATOM     15  C   UNL     1      10.430   2.698  23.830  0.00  0.00    +0.006 A 
ATOM     16  C   UNL     1       9.900   3.972  23.608  0.00  0.00    +0.005 A 
BRANCH  11  18
ATOM     17  C   UNL     1       9.006   6.808  23.615  0.00  0.00    +0.027 C 
ATOM     18  C   UNL     1       7.978   5.681  23.833  0.00  0.00    +0.087 C 
ATOM     19  C   UNL     1       7.154   6.021  25.094  0.00  0.00    +0.027 C 
BRANCH  18  20
ATOM     20  C   UNL     1       7.055   5.713  22.593  0.00  0.00    +0.315 C 
ATOM     21  O   UNL     1       5.865   5.440  22.625  0.00  0.00    -0.250 OA
BRANCH  20  22
ATOM     22  O   UNL     1       7.648   6.134  21.453  0.00  0.00    -0.480 OA
ATOM     23  H   UNL     1       7.071   6.663  20.868  0.00  0.00    +0.295 HD
ENDBRANCH  20  22
ENDBRANCH  18  20
ENDBRANCH  11  18
ENDBRANCH  10  14
BRANCH  10  24
ATOM     24  O   UNL     1       9.776  -0.114  25.978  0.00  0.00    -0.387 OA
ATOM     25  H   UNL     1       8.820  -0.226  25.808  0.00  0.00    +0.210 HD
ENDBRANCH  10  24
ENDBRANCH   9  10
ENDBRANCH   8   9
ENDBRANCH   7   8
ENDBRANCH   1   7
BRANCH   4  26
ATOM     26  C   UNL     1       5.534  -4.990  23.648  0.00  0.00    +0.119 C 
BRANCH  26  27
ATOM     27  C   UNL     1       4.215  -5.665  24.086  0.00  0.00    -0.011 A 
ATOM     28  C   UNL     1       2.972  -5.035  23.903  0.00  0.00    +0.007 A 
ATOM     29  C   UNL     1       1.776  -5.706  24.187  0.00  0.00    +0.000 A 
ATOM     30  C   UNL     1       1.795  -7.015  24.665  0.00  0.00    +0.000 A 
ATOM     31  C   UNL     1       3.014  -7.649  24.881  0.00  0.00    +0.000 A 
ATOM     32  C   UNL     1       4.207  -6.979  24.599  0.00  0.00    +0.007 A 
ENDBRANCH  26  27
BRANCH  26  33
ATOM     33  C   UNL     1       6.621  -5.067  24.738  0.00  0.00    -0.011 A 
ATOM     34  C   UNL     1       7.963  -5.315  24.369  0.00  0.00    +0.007 A 
ATOM     35  C   UNL     1       9.007  -5.207  25.288  0.00  0.00    +0.000 A 
ATOM     36  C   UNL     1       8.731  -4.892  26.613  0.00  0.00    +0.000 A 
ATOM     37  C   UNL     1       7.411  -4.721  27.021  0.00  0.00    +0.000 A 
ATOM     38  C   UNL     1       6.363  -4.826  26.098  0.00  0.00    +0.007 A 
ENDBRANCH  26  33
BRANCH  26  39
ATOM     39  O   UNL     1       6.059  -5.758  22.544  0.00  0.00    -0.379 OA
ATOM     40  H   UNL     1       5.304  -6.086  22.033  0.00  0.00    +0.211 HD
ENDBRANCH  26  39
ENDBRANCH   4  26
TORSDOF 13
ENDMDL
MODEL 8
REMARK VINA RESULT:      -7.5      2.780      9.059
REMARK  Name = 
REMARK  15 active torsions:
REMARK  status: ('A' for Active; 'I' for Inactive)
REMARK    1  A    between atoms: C_1  and  C_2
REMARK    2  A    between atoms: C_2  and  C_3
REMARK    3  A    between atoms: C_2  and  C_4
REMARK    4  A    between atoms: C_2  and  C_7
REMARK    5  A    between atoms: C_4  and  O_5
REMARK    6  A    between atoms: C_10  and  C_13
REMARK    7  A    between atoms: C_13  and  O_14
REMARK    8  A    between atoms: C_13  and  C_15
REMARK    9  A    between atoms: C_15  and  C_16
REMARK   10  A    between atoms: C_16  and  C_17
REMARK   11  A    between atoms: C_17  and  N_18
REMARK   12  A    between atoms: C_21  and  C_24
REMARK   13  A    between atoms: C_24  and  O_25
REMARK   14  A    between atoms: C_24  and  C_26
REMARK   15  A    between atoms: C_24  and  C_32
REMARK                            x       y       z     vdW  Elec       q    Type
REMARK                         _______ _______ _______ _____ _____    ______ ____
ROOT
ATOM      1  N   UNL     1       8.669  -0.626  25.178  0.00  0.00    -0.302 NA
ATOM      2  C   UNL     1       7.921  -1.186  26.310  0.00  0.00    +0.085 C 
ATOM      3  C   UNL     1       8.391  -2.570  26.745  0.00  0.00    +0.022 C 
ATOM      4  C   UNL     1       8.359  -3.598  25.591  0.00  0.00    +0.032 C 
ATOM      5  C   UNL     1       9.279  -3.006  24.504  0.00  0.00    +0.022 C 
ATOM      6  C   UNL     1       8.936  -1.574  24.091  0.00  0.00    +0.085 C 
ENDROOT
BRANCH   1   7
ATOM      7  C   UNL     1       9.847   0.131  25.610  0.00  0.00    +0.084 C 
BRANCH   7   8
ATOM      8  C   UNL     1      10.872   0.302  24.478  0.00  0.00    +0.018 C 
BRANCH   8   9
ATOM      9  C   UNL     1      10.823   1.651  23.745  0.00  0.00    +0.037 C 
BRANCH   9  10
ATOM     10  C   UNL     1       9.878   1.702  22.533  0.00  0.00    +0.145 C 
BRANCH  10  14
ATOM     11  C   UNL     1       6.028   3.529  23.416  0.00  0.00    -0.031 A 
ATOM     12  C   UNL     1       6.213   2.799  22.229  0.00  0.00    +0.005 A 
ATOM     13  C   UNL     1       7.443   2.221  21.920  0.00  0.00    +0.006 A 
ATOM     14  C   UNL     1       8.534   2.354  22.784  0.00  0.00    -0.019 A 
ATOM     15  C   UNL     1       8.356   3.092  23.963  0.00  0.00    +0.006 A 
ATOM     16  C   UNL     1       7.122   3.667  24.278  0.00  0.00    +0.005 A 
BRANCH  11  18
ATOM     17  C   UNL     1       4.142   5.104  22.630  0.00  0.00    +0.027 C 
ATOM     18  C   UNL     1       4.646   4.135  23.715  0.00  0.00    +0.087 C 
ATOM     19  C   UNL     1       4.752   4.915  25.044  0.00  0.00    +0.027 C 
BRANCH  18  20
ATOM     20  C   UNL     1       3.554   3.048  23.844  0.00  0.00    +0.315 C 
ATOM     21  O   UNL     1       3.324   2.434  24.875  0.00  0.00    -0.250 OA
BRANCH  20  22
ATOM     22  O   UNL     1       2.806   2.859  22.734  0.00  0.00    -0.480 OA
ATOM     23  H   UNL     1       2.780   3.624  22.126  0.00  0.00    +0.295 HD
ENDBRANCH  20  22
ENDBRANCH  18  20
ENDBRANCH  11  18
ENDBRANCH  10  14
BRANCH  10  24
ATOM     24  O   UNL     1      10.459   2.408  21.440  0.00  0.00    -0.387 OA
ATOM     25  H   UNL     1      11.423   2.255  21.490  0.00  0.00    +0.210 HD
ENDBRANCH  10  24
ENDBRANCH   9  10
ENDBRANCH   8   9
ENDBRANCH   7   8
ENDBRANCH   1   7
BRANCH   4  26
ATOM     26  C   UNL     1       6.894  -4.010  25.120  0.00  0.00    +0.119 C 
BRANCH  26  27
ATOM     27  C   UNL     1       6.316  -5.076  26.078  0.00  0.00    -0.011 A 
ATOM     28  C   UNL     1       6.915  -5.349  27.321  0.00  0.00    +0.007 A 
ATOM     29  C   UNL     1       6.313  -6.223  28.233  0.00  0.00    +0.000 A 
ATOM     30  C   UNL     1       5.107  -6.848  27.925  0.00  0.00    +0.000 A 
ATOM     31  C   UNL     1       4.508  -6.615  26.691  0.00  0.00    +0.000 A 
ATOM     32  C   UNL     1       5.110  -5.744  25.779  0.00  0.00    +0.007 A 
ENDBRANCH  26  27
BRANCH  26  33
ATOM     33  C   UNL     1       6.783  -4.431  23.641  0.00  0.00    -0.011 A 
ATOM     34  C   UNL     1       7.378  -5.640  23.213  0.00  0.00    +0.007 A 
ATOM     35  C   UNL     1       7.147  -6.158  21.939  0.00  0.00    +0.000 A 
ATOM     36  C   UNL     1       6.351  -5.457  21.042  0.00  0.00    +0.000 A 
ATOM     37  C   UNL     1       5.817  -4.225  21.410  0.00  0.00    +0.000 A 
ATOM     38  C   UNL     1       6.046  -3.706  22.690  0.00  0.00    +0.007 A 
ENDBRANCH  26  33
BRANCH  26  39
ATOM     39  O   UNL     1       6.062  -2.837  25.237  0.00  0.00    -0.379 OA
ATOM     40  H   UNL     1       5.140  -3.125  25.161  0.00  0.00    +0.211 HD
ENDBRANCH  26  39
ENDBRANCH   4  26
TORSDOF 13
ENDMDL
MODEL 9
REMARK VINA RESULT:      -7.5      2.770      4.733
REMARK  Name = 
REMARK  15 active torsions:
REMARK  status: ('A' for Active; 'I' for Inactive)
REMARK    1  A    between atoms: C_1  and  C_2
REMARK    2  A    between atoms: C_2  and  C_3
REMARK    3  A    between atoms: C_2  and  C_4
REMARK    4  A    between atoms: C_2  and  C_7
REMARK    5  A    between atoms: C_4  and  O_5
REMARK    6  A    between atoms: C_10  and  C_13
REMARK    7  A    between atoms: C_13  and  O_14
REMARK    8  A    between atoms: C_13  and  C_15
REMARK    9  A    between atoms: C_15  and  C_16
REMARK   10  A    between atoms: C_16  and  C_17
REMARK   11  A    between atoms: C_17  and  N_18
REMARK   12  A    between atoms: C_21  and  C_24
REMARK   13  A    between atoms: C_24  and  O_25
REMARK   14  A    between atoms: C_24  and  C_26
REMARK   15  A    between atoms: C_24  and  C_32
REMARK                            x       y       z     vdW  Elec       q    Type
REMARK                         _______ _______ _______ _____ _____    ______ ____
ROOT
ATOM      1  N   UNL     1       5.697   0.693  27.126  0.00  0.00    -0.302 NA
ATOM      2  C   UNL     1       5.854   2.097  26.729  0.00  0.00    +0.085 C 
ATOM      3  C   UNL     1       5.510   2.376  25.269  0.00  0.00    +0.022 C 
ATOM      4  C   UNL     1       6.328   1.504  24.289  0.00  0.00    +0.032 C 
ATOM      5  C   UNL     1       5.997   0.050  24.679  0.00  0.00    +0.022 C 
ATOM      6  C   UNL     1       6.215  -0.279  26.157  0.00  0.00    +0.085 C 
ENDROOT
BRANCH   1   7
ATOM      7  C   UNL     1       4.342   0.397  27.599  0.00  0.00    +0.084 C 
BRANCH   7   8
ATOM      8  C   UNL     1       4.314  -0.802  28.560  0.00  0.00    +0.018 C 
BRANCH   8   9
ATOM      9  C   UNL     1       3.140  -1.773  28.366  0.00  0.00    +0.037 C 
BRANCH   9  10
ATOM     10  C   UNL     1       3.538  -3.231  28.085  0.00  0.00    +0.145 C 
BRANCH  10  14
ATOM     11  C   UNL     1       5.893  -3.812  24.471  0.00  0.00    -0.031 A 
ATOM     12  C   UNL     1       4.555  -3.390  24.388  0.00  0.00    +0.005 A 
ATOM     13  C   UNL     1       3.779  -3.215  25.532  0.00  0.00    +0.006 A 
ATOM     14  C   UNL     1       4.311  -3.458  26.802  0.00  0.00    -0.019 A 
ATOM     15  C   UNL     1       5.642  -3.891  26.888  0.00  0.00    +0.006 A 
ATOM     16  C   UNL     1       6.424  -4.061  25.742  0.00  0.00    +0.005 A 
BRANCH  11  18
ATOM     17  C   UNL     1       8.193  -4.311  23.414  0.00  0.00    +0.027 C 
ATOM     18  C   UNL     1       6.708  -3.976  23.177  0.00  0.00    +0.087 C 
ATOM     19  C   UNL     1       6.635  -2.643  22.402  0.00  0.00    +0.027 C 
BRANCH  18  20
ATOM     20  C   UNL     1       6.159  -5.116  22.289  0.00  0.00    +0.315 C 
ATOM     21  O   UNL     1       6.086  -6.282  22.648  0.00  0.00    -0.250 OA
BRANCH  20  22
ATOM     22  O   UNL     1       5.693  -4.723  21.082  0.00  0.00    -0.480 OA
ATOM     23  H   UNL     1       4.901  -4.153  21.119  0.00  0.00    +0.295 HD
ENDBRANCH  20  22
ENDBRANCH  18  20
ENDBRANCH  11  18
ENDBRANCH  10  14
BRANCH  10  24
ATOM     24  O   UNL     1       4.344  -3.769  29.130  0.00  0.00    -0.387 OA
ATOM     25  H   UNL     1       4.348  -4.739  29.008  0.00  0.00    +0.210 HD
ENDBRANCH  10  24
ENDBRANCH   9  10
ENDBRANCH   8   9
ENDBRANCH   7   8
ENDBRANCH   1   7
BRANCH   4  26
ATOM     26  C   UNL     1       7.874   1.876  24.216  0.00  0.00    +0.119 C 
BRANCH  26  27
ATOM     27  C   UNL     1       8.045   3.300  23.642  0.00  0.00    -0.011 A 
ATOM     28  C   UNL     1       7.177   3.804  22.656  0.00  0.00    +0.007 A 
ATOM     29  C   UNL     1       7.262   5.136  22.235  0.00  0.00    +0.000 A 
ATOM     30  C   UNL     1       8.217   5.992  22.780  0.00  0.00    +0.000 A 
ATOM     31  C   UNL     1       9.105   5.509  23.736  0.00  0.00    +0.000 A 
ATOM     32  C   UNL     1       9.021   4.179  24.155  0.00  0.00    +0.007 A 
ENDBRANCH  26  27
BRANCH  26  33
ATOM     33  C   UNL     1       8.756   0.842  23.487  0.00  0.00    -0.011 A 
ATOM     34  C   UNL     1       9.531  -0.069  24.240  0.00  0.00    +0.007 A 
ATOM     35  C   UNL     1      10.193  -1.139  23.638  0.00  0.00    +0.000 A 
ATOM     36  C   UNL     1      10.134  -1.300  22.260  0.00  0.00    +0.000 A 
ATOM     37  C   UNL     1       9.444  -0.372  21.485  0.00  0.00    +0.000 A 
ATOM     38  C   UNL     1       8.776   0.701  22.090  0.00  0.00    +0.007 A 
ENDBRANCH  26  33
BRANCH  26  39
ATOM     39  O   UNL     1       8.373   1.901  25.570  0.00  0.00    -0.379 OA
ATOM     40  H   UNL     1       9.224   1.438  25.576  0.00  0.00    +0.211 HD
ENDBRANCH  26  39
ENDBRANCH   4  26
TORSDOF 13
ENDMDL
