MODEL 1
REMARK VINA RESULT:      -7.7      0.000      0.000
REMARK  Name = 
REMARK  4 active torsions:
REMARK  status: ('A' for Active; 'I' for Inactive)
REMARK    1  A    between atoms: C_2  and  C_3
REMARK    2  A    between atoms: C_3  and  C_4
REMARK    3  A    between atoms: C_7  and  N_8
REMARK    4  A    between atoms: C_22  and  C_24
REMARK                            x       y       z     vdW  Elec       q    Type
REMARK                         _______ _______ _______ _____ _____    ______ ____
ROOT
ATOM      1  N   UNL     1       9.748  -1.601  23.458  0.00  0.00    -0.284 N 
ATOM      2  H   UNL     1      10.350  -2.104  22.818  0.00  0.00    +0.155 HD
ATOM      3  C   UNL     1       8.578  -2.375  23.570  0.00  0.00    +0.222 A 
ATOM      4  N   UNL     1       7.516  -1.916  24.233  0.00  0.00    -0.198 NA
ATOM      5  C   UNL     1       6.369  -2.626  24.187  0.00  0.00    +0.137 A 
ATOM      6  N   UNL     1       5.230  -2.131  24.867  0.00  0.00    -0.282 N 
ATOM      7  H   UNL     1       4.462  -2.015  24.217  0.00  0.00    +0.155 HD
ATOM      8  C   UNL     1       5.204  -1.245  25.882  0.00  0.00    +0.146 A 
ATOM      9  C   UNL     1       6.230  -1.079  26.842  0.00  0.00    +0.068 A 
ATOM     10  C   UNL     1       5.871   0.047  27.538  0.00  0.00    +0.041 A 
ATOM     11  N   UNL     1       4.608   0.352  27.128  0.00  0.00    -0.280 N 
ATOM     12  H   UNL     1       4.016   1.115  27.437  0.00  0.00    +0.189 HD
ATOM     13  N   UNL     1       4.181  -0.415  26.107  0.00  0.00    -0.158 NA
ATOM     14  C   UNL     1       6.273  -3.830  23.488  0.00  0.00    +0.041 A 
ATOM     15  C   UNL     1       7.455  -4.259  22.879  0.00  0.00    +0.078 A 
ATOM     16  C   UNL     1       7.428  -5.471  22.195  0.00  0.00    +0.028 A 
ATOM     17  C   UNL     1       6.264  -6.245  22.094  0.00  0.00    +0.002 A 
ATOM     18  C   UNL     1       5.091  -5.807  22.690  0.00  0.00    +0.001 A 
ATOM     19  C   UNL     1       5.094  -4.613  23.394  0.00  0.00    +0.013 A 
ATOM     20  N   UNL     1       8.593  -3.547  22.923  0.00  0.00    -0.214 NA
ENDROOT
BRANCH   1  24
ATOM     21  C   UNL     1      10.263   2.630  23.267  0.00  0.00    -0.034 A 
ATOM     22  C   UNL     1      10.127   1.947  24.489  0.00  0.00    +0.006 A 
ATOM     23  C   UNL     1       9.908   0.564  24.533  0.00  0.00    +0.023 A 
ATOM     24  C   UNL     1       9.844  -0.196  23.359  0.00  0.00    +0.034 A 
ATOM     25  C   UNL     1       9.871   0.502  22.146  0.00  0.00    +0.023 A 
ATOM     26  C   UNL     1      10.089   1.893  22.093  0.00  0.00    +0.006 A 
BRANCH  21  27
ATOM     27  C   UNL     1      10.628   4.100  23.326  0.00  0.00    +0.153 C 
BRANCH  27  29
ATOM     28  N   UNL     1      13.309   4.840  23.318  0.00  0.00    -0.196 NA
ATOM     29  C   UNL     1      12.093   4.505  23.322  0.00  0.00    +0.067 C 
ENDBRANCH  27  29
ENDBRANCH  21  27
ENDBRANCH   1  24
BRANCH  10  30
ATOM     30  C   UNL     1       6.787   0.823  28.451  0.00  0.00    +0.037 C 
ATOM     31  C   UNL     1       6.306   1.888  29.402  0.00  0.00    +0.010 C 
ATOM     32  C   UNL     1       6.927   2.297  28.112  0.00  0.00    +0.010 C 
ENDBRANCH  10  30
TORSDOF 4
ENDMDL
MODEL 2
REMARK VINA RESULT:      -6.9      1.682      2.120
REMARK  Name = 
REMARK  4 active torsions:
REMARK  status: ('A' for Active; 'I' for Inactive)
REMARK    1  A    between atoms: C_2  and  C_3
REMARK    2  A    between atoms: C_3  and  C_4
REMARK    3  A    between atoms: C_7  and  N_8
REMARK    4  A    between atoms: C_22  and  C_24
REMARK                            x       y       z     vdW  Elec       q    Type
REMARK                         _______ _______ _______ _____ _____    ______ ____
ROOT
ATOM      1  N   UNL     1       9.159  -1.032  23.167  0.00  0.00    -0.284 N 
ATOM      2  H   UNL     1       9.738  -1.427  22.437  0.00  0.00    +0.155 HD
ATOM      3  C   UNL     1       8.106  -1.947  23.356  0.00  0.00    +0.222 A 
ATOM      4  N   UNL     1       7.080  -1.653  24.157  0.00  0.00    -0.198 NA
ATOM      5  C   UNL     1       6.026  -2.494  24.189  0.00  0.00    +0.137 A 
ATOM      6  N   UNL     1       4.922  -2.175  25.018  0.00  0.00    -0.282 N 
ATOM      7  H   UNL     1       4.076  -2.122  24.462  0.00  0.00    +0.155 HD
ATOM      8  C   UNL     1       4.910  -1.349  26.082  0.00  0.00    +0.146 A 
ATOM      9  C   UNL     1       6.011  -1.106  26.935  0.00  0.00    +0.068 A 
ATOM     10  C   UNL     1       5.607  -0.067  27.733  0.00  0.00    +0.041 A 
ATOM     11  N   UNL     1       4.279   0.102  27.480  0.00  0.00    -0.280 N 
ATOM     12  H   UNL     1       3.642   0.771  27.897  0.00  0.00    +0.189 HD
ATOM     13  N   UNL     1       3.830  -0.662  26.466  0.00  0.00    -0.158 NA
ATOM     14  C   UNL     1       5.990  -3.666  23.433  0.00  0.00    +0.041 A 
ATOM     15  C   UNL     1       7.137  -3.918  22.675  0.00  0.00    +0.078 A 
ATOM     16  C   UNL     1       7.172  -5.090  21.924  0.00  0.00    +0.028 A 
ATOM     17  C   UNL     1       6.102  -5.993  21.901  0.00  0.00    +0.002 A 
ATOM     18  C   UNL     1       4.962  -5.731  22.646  0.00  0.00    +0.001 A 
ATOM     19  C   UNL     1       4.907  -4.581  23.417  0.00  0.00    +0.013 A 
ATOM     20  N   UNL     1       8.183  -3.076  22.640  0.00  0.00    -0.214 NA
ENDROOT
BRANCH   1  24
ATOM     21  C   UNL     1       8.669   3.206  23.110  0.00  0.00    -0.034 A 
ATOM     22  C   UNL     1       8.265   2.392  22.037  0.00  0.00    +0.006 A 
ATOM     23  C   UNL     1       8.478   1.006  22.049  0.00  0.00    +0.023 A 
ATOM     24  C   UNL     1       9.079   0.378  23.146  0.00  0.00    +0.034 A 
ATOM     25  C   UNL     1       9.576   1.204  24.161  0.00  0.00    +0.023 A 
ATOM     26  C   UNL     1       9.368   2.597  24.155  0.00  0.00    +0.006 A 
BRANCH  21  27
ATOM     27  C   UNL     1       8.277   4.669  23.062  0.00  0.00    +0.153 C 
BRANCH  27  29
ATOM     28  N   UNL     1       5.596   5.353  22.780  0.00  0.00    -0.196 NA
ATOM     29  C   UNL     1       6.811   5.043  22.908  0.00  0.00    +0.067 C 
ENDBRANCH  27  29
ENDBRANCH  21  27
ENDBRANCH   1  24
BRANCH  10  30
ATOM     30  C   UNL     1       6.525   0.770  28.589  0.00  0.00    +0.037 C 
ATOM     31  C   UNL     1       6.077   2.004  29.328  0.00  0.00    +0.010 C 
ATOM     32  C   UNL     1       6.815   2.158  28.044  0.00  0.00    +0.010 C 
ENDBRANCH  10  30
TORSDOF 4
ENDMDL
MODEL 3
REMARK VINA RESULT:      -6.8      2.539      6.937
REMARK  Name = 
REMARK  4 active torsions:
REMARK  status: ('A' for Active; 'I' for Inactive)
REMARK    1  A    between atoms: C_2  and  C_3
REMARK    2  A    between atoms: C_3  and  C_4
REMARK    3  A    between atoms: C_7  and  N_8
REMARK    4  A    between atoms: C_22  and  C_24
REMARK                            x       y       z     vdW  Elec       q    Type
REMARK                         _______ _______ _______ _____ _____    ______ ____
ROOT
ATOM      1  N   UNL     1       6.043  -1.900  23.254  0.00  0.00    -0.284 N 
ATOM      2  H   UNL     1       6.280  -2.146  22.301  0.00  0.00    +0.155 HD
ATOM      3  C   UNL     1       6.856  -0.797  23.576  0.00  0.00    +0.222 A 
ATOM      4  N   UNL     1       6.893  -0.315  24.820  0.00  0.00    -0.198 NA
ATOM      5  C   UNL     1       7.795   0.644  25.114  0.00  0.00    +0.137 A 
ATOM      6  N   UNL     1       7.857   1.140  26.439  0.00  0.00    -0.282 N 
ATOM      7  H   UNL     1       8.790   1.012  26.814  0.00  0.00    +0.155 HD
ATOM      8  C   UNL     1       6.895   1.083  27.381  0.00  0.00    +0.146 A 
ATOM      9  C   UNL     1       5.504   1.075  27.122  0.00  0.00    +0.068 A 
ATOM     10  C   UNL     1       4.930   0.804  28.337  0.00  0.00    +0.041 A 
ATOM     11  N   UNL     1       5.938   0.879  29.251  0.00  0.00    -0.280 N 
ATOM     12  H   UNL     1       5.883   0.749  30.255  0.00  0.00    +0.189 HD
ATOM     13  N   UNL     1       7.152   1.036  28.691  0.00  0.00    -0.158 NA
ATOM     14  C   UNL     1       8.668   1.158  24.155  0.00  0.00    +0.041 A 
ATOM     15  C   UNL     1       8.510   0.635  22.868  0.00  0.00    +0.078 A 
ATOM     16  C   UNL     1       9.332   1.134  21.862  0.00  0.00    +0.028 A 
ATOM     17  C   UNL     1      10.301   2.115  22.108  0.00  0.00    +0.002 A 
ATOM     18  C   UNL     1      10.461   2.621  23.389  0.00  0.00    +0.001 A 
ATOM     19  C   UNL     1       9.644   2.156  24.407  0.00  0.00    +0.013 A 
ATOM     20  N   UNL     1       7.614  -0.323  22.579  0.00  0.00    -0.214 NA
ENDROOT
BRANCH   1  24
ATOM     21  C   UNL     1       5.292  -5.187  25.868  0.00  0.00    -0.034 A 
ATOM     22  C   UNL     1       6.384  -5.171  24.981  0.00  0.00    +0.006 A 
ATOM     23  C   UNL     1       6.588  -4.106  24.093  0.00  0.00    +0.023 A 
ATOM     24  C   UNL     1       5.726  -3.004  24.075  0.00  0.00    +0.034 A 
ATOM     25  C   UNL     1       4.583  -3.074  24.882  0.00  0.00    +0.023 A 
ATOM     26  C   UNL     1       4.370  -4.142  25.775  0.00  0.00    +0.006 A 
BRANCH  21  27
ATOM     27  C   UNL     1       5.231  -6.315  26.878  0.00  0.00    +0.153 C 
BRANCH  27  29
ATOM     28  N   UNL     1       6.326  -5.942  29.407  0.00  0.00    -0.196 NA
ATOM     29  C   UNL     1       5.829  -6.111  28.261  0.00  0.00    +0.067 C 
ENDBRANCH  27  29
ENDBRANCH  21  27
ENDBRANCH   1  24
BRANCH  10  30
ATOM     30  C   UNL     1       3.496   0.378  28.536  0.00  0.00    +0.037 C 
ATOM     31  C   UNL     1       3.029  -0.447  29.706  0.00  0.00    +0.010 C 
ATOM     32  C   UNL     1       3.249  -1.114  28.394  0.00  0.00    +0.010 C 
ENDBRANCH  10  30
TORSDOF 4
ENDMDL
MODEL 4
REMARK VINA RESULT:      -6.6      3.528      7.800
REMARK  Name = 
REMARK  4 active torsions:
REMARK  status: ('A' for Active; 'I' for Inactive)
REMARK    1  A    between atoms: C_2  and  C_3
REMARK    2  A    between atoms: C_3  and  C_4
REMARK    3  A    between atoms: C_7  and  N_8
REMARK    4  A    between atoms: C_22  and  C_24
REMARK                            x       y       z     vdW  Elec       q    Type
REMARK                         _______ _______ _______ _____ _____    ______ ____
ROOT
ATOM      1  N   UNL     1       9.375   0.955  22.720  0.00  0.00    -0.284 N 
ATOM      2  H   UNL     1      10.285   0.644  22.405  0.00  0.00    +0.155 HD
ATOM      3  C   UNL     1       9.550   2.288  23.137  0.00  0.00    +0.222 A 
ATOM      4  N   UNL     1       8.564   2.949  23.747  0.00  0.00    -0.198 NA
ATOM      5  C   UNL     1       8.826   4.168  24.261  0.00  0.00    +0.137 A 
ATOM      6  N   UNL     1       7.791   4.864  24.932  0.00  0.00    -0.282 N 
ATOM      7  H   UNL     1       8.079   5.083  25.879  0.00  0.00    +0.155 HD
ATOM      8  C   UNL     1       6.463   4.669  24.813  0.00  0.00    +0.146 A 
ATOM      9  C   UNL     1       5.811   4.203  23.648  0.00  0.00    +0.068 A 
ATOM     10  C   UNL     1       4.521   3.967  24.046  0.00  0.00    +0.041 A 
ATOM     11  N   UNL     1       4.418   4.485  25.302  0.00  0.00    -0.280 N 
ATOM     12  H   UNL     1       3.604   4.506  25.906  0.00  0.00    +0.189 HD
ATOM     13  N   UNL     1       5.595   4.910  25.800  0.00  0.00    -0.158 NA
ATOM     14  C   UNL     1      10.084   4.763  24.151  0.00  0.00    +0.041 A 
ATOM     15  C   UNL     1      11.031   4.020  23.441  0.00  0.00    +0.078 A 
ATOM     16  C   UNL     1      12.296   4.578  23.272  0.00  0.00    +0.028 A 
ATOM     17  C   UNL     1      12.635   5.831  23.798  0.00  0.00    +0.002 A 
ATOM     18  C   UNL     1      11.694   6.557  24.512  0.00  0.00    +0.001 A 
ATOM     19  C   UNL     1      10.422   6.035  24.681  0.00  0.00    +0.013 A 
ATOM     20  N   UNL     1      10.769   2.804  22.935  0.00  0.00    -0.214 NA
ENDROOT
BRANCH   1  24
ATOM     21  C   UNL     1       7.069  -1.948  24.833  0.00  0.00    -0.034 A 
ATOM     22  C   UNL     1       8.434  -1.739  25.099  0.00  0.00    +0.006 A 
ATOM     23  C   UNL     1       9.190  -0.817  24.362  0.00  0.00    +0.023 A 
ATOM     24  C   UNL     1       8.606  -0.049  23.349  0.00  0.00    +0.034 A 
ATOM     25  C   UNL     1       7.276  -0.337  23.016  0.00  0.00    +0.023 A 
ATOM     26  C   UNL     1       6.511  -1.263  23.750  0.00  0.00    +0.006 A 
BRANCH  21  27
ATOM     27  C   UNL     1       6.309  -2.866  25.768  0.00  0.00    +0.153 C 
BRANCH  27  29
ATOM     28  N   UNL     1       7.700  -4.778  27.233  0.00  0.00    -0.196 NA
ATOM     29  C   UNL     1       7.069  -3.911  26.569  0.00  0.00    +0.067 C 
ENDBRANCH  27  29
ENDBRANCH  21  27
ENDBRANCH   1  24
BRANCH  10  30
ATOM     30  C   UNL     1       3.511   3.166  23.262  0.00  0.00    +0.037 C 
ATOM     31  C   UNL     1       3.105   3.495  21.849  0.00  0.00    +0.010 C 
ATOM     32  C   UNL     1       2.209   3.893  22.969  0.00  0.00    +0.010 C 
ENDBRANCH  10  30
TORSDOF 4
ENDMDL
MODEL 5
REMARK VINA RESULT:      -6.5      2.245      5.142
REMARK  Name = 
REMARK  4 active torsions:
REMARK  status: ('A' for Active; 'I' for Inactive)
REMARK    1  A    between atoms: C_2  and  C_3
REMARK    2  A    between atoms: C_3  and  C_4
REMARK    3  A    between atoms: C_7  and  N_8
REMARK    4  A    between atoms: C_22  and  C_24
REMARK                            x       y       z     vdW  Elec       q    Type
REMARK                         _______ _______ _______ _____ _____    ______ ____
ROOT
ATOM      1  N   UNL     1       4.833  -0.031  25.694  0.00  0.00    -0.284 N 
ATOM      2  H   UNL     1       3.961  -0.042  26.208  0.00  0.00    +0.155 HD
ATOM      3  C   UNL     1       5.231  -1.377  25.587  0.00  0.00    +0.222 A 
ATOM      4  N   UNL     1       6.423  -1.700  25.085  0.00  0.00    -0.198 NA
ATOM      5  C   UNL     1       6.820  -2.988  25.141  0.00  0.00    +0.137 A 
ATOM      6  N   UNL     1       8.096  -3.333  24.633  0.00  0.00    -0.282 N 
ATOM      7  H   UNL     1       8.650  -3.774  25.359  0.00  0.00    +0.155 HD
ATOM      8  C   UNL     1       8.839  -2.641  23.747  0.00  0.00    +0.146 A 
ATOM      9  C   UNL     1       8.321  -1.806  22.729  0.00  0.00    +0.068 A 
ATOM     10  C   UNL     1       9.419  -1.163  22.219  0.00  0.00    +0.041 A 
ATOM     11  N   UNL     1      10.501  -1.776  22.775  0.00  0.00    -0.280 N 
ATOM     12  H   UNL     1      11.483  -1.576  22.620  0.00  0.00    +0.189 HD
ATOM     13  N   UNL     1      10.174  -2.675  23.722  0.00  0.00    -0.158 NA
ATOM     14  C   UNL     1       6.013  -3.988  25.684  0.00  0.00    +0.041 A 
ATOM     15  C   UNL     1       4.758  -3.562  26.126  0.00  0.00    +0.078 A 
ATOM     16  C   UNL     1       3.895  -4.522  26.649  0.00  0.00    +0.028 A 
ATOM     17  C   UNL     1       4.256  -5.872  26.753  0.00  0.00    +0.002 A 
ATOM     18  C   UNL     1       5.508  -6.285  26.323  0.00  0.00    +0.001 A 
ATOM     19  C   UNL     1       6.380  -5.355  25.782  0.00  0.00    +0.013 A 
ATOM     20  N   UNL     1       4.367  -2.277  26.074  0.00  0.00    -0.214 NA
ENDROOT
BRANCH   1  24
ATOM     21  C   UNL     1       7.115   3.498  26.428  0.00  0.00    -0.034 A 
ATOM     22  C   UNL     1       6.763   3.092  25.129  0.00  0.00    +0.006 A 
ATOM     23  C   UNL     1       6.056   1.903  24.900  0.00  0.00    +0.023 A 
ATOM     24  C   UNL     1       5.650   1.089  25.963  0.00  0.00    +0.034 A 
ATOM     25  C   UNL     1       6.095   1.441  27.244  0.00  0.00    +0.023 A 
ATOM     26  C   UNL     1       6.807   2.632  27.481  0.00  0.00    +0.006 A 
BRANCH  21  27
ATOM     27  C   UNL     1       7.761   4.861  26.583  0.00  0.00    +0.153 C 
BRANCH  27  29
ATOM     28  N   UNL     1       9.508   5.772  24.620  0.00  0.00    -0.196 NA
ATOM     29  C   UNL     1       8.716   5.358  25.510  0.00  0.00    +0.067 C 
ENDBRANCH  27  29
ENDBRANCH  21  27
ENDBRANCH   1  24
BRANCH  10  30
ATOM     30  C   UNL     1       9.368   0.059  21.335  0.00  0.00    +0.037 C 
ATOM     31  C   UNL     1       9.894   1.407  21.752  0.00  0.00    +0.010 C 
ATOM     32  C   UNL     1       8.428   1.153  21.813  0.00  0.00    +0.010 C 
ENDBRANCH  10  30
TORSDOF 4
ENDMDL
MODEL 6
REMARK VINA RESULT:      -6.3      2.680      6.978
REMARK  Name = 
REMARK  4 active torsions:
REMARK  status: ('A' for Active; 'I' for Inactive)
REMARK    1  A    between atoms: C_2  and  C_3
REMARK    2  A    between atoms: C_3  and  C_4
REMARK    3  A    between atoms: C_7  and  N_8
REMARK    4  A    between atoms: C_22  and  C_24
REMARK                            x       y       z     vdW  Elec       q    Type
REMARK                         _______ _______ _______ _____ _____    ______ ____
ROOT
ATOM      1  N   UNL     1       7.857   0.530  22.867  0.00  0.00    -0.284 N 
ATOM      2  H   UNL     1       8.267   0.777  21.975  0.00  0.00    +0.155 HD
ATOM      3  C   UNL     1       7.882   1.706  23.639  0.00  0.00    +0.222 A 
ATOM      4  N   UNL     1       7.542   1.685  24.929  0.00  0.00    -0.198 NA
ATOM      5  C   UNL     1       7.725   2.802  25.663  0.00  0.00    +0.137 A 
ATOM      6  N   UNL     1       7.389   2.778  27.039  0.00  0.00    -0.282 N 
ATOM      7  H   UNL     1       8.200   3.021  27.597  0.00  0.00    +0.155 HD
ATOM      8  C   UNL     1       6.552   1.927  27.662  0.00  0.00    +0.146 A 
ATOM      9  C   UNL     1       5.431   1.306  27.065  0.00  0.00    +0.068 A 
ATOM     10  C   UNL     1       5.009   0.389  27.992  0.00  0.00    +0.041 A 
ATOM     11  N   UNL     1       5.724   0.647  29.123  0.00  0.00    -0.280 N 
ATOM     12  H   UNL     1       5.670   0.177  30.019  0.00  0.00    +0.189 HD
ATOM     13  N   UNL     1       6.683   1.576  28.945  0.00  0.00    -0.158 NA
ATOM     14  C   UNL     1       8.234   3.977  25.108  0.00  0.00    +0.041 A 
ATOM     15  C   UNL     1       8.502   3.918  23.738  0.00  0.00    +0.078 A 
ATOM     16  C   UNL     1       8.982   5.071  23.123  0.00  0.00    +0.028 A 
ATOM     17  C   UNL     1       9.212   6.256  23.834  0.00  0.00    +0.002 A 
ATOM     18  C   UNL     1       8.956   6.303  25.196  0.00  0.00    +0.001 A 
ATOM     19  C   UNL     1       8.460   5.176  25.831  0.00  0.00    +0.013 A 
ATOM     20  N   UNL     1       8.323   2.803  23.011  0.00  0.00    -0.214 NA
ENDROOT
BRANCH   1  24
ATOM     21  C   UNL     1       8.804  -3.348  24.375  0.00  0.00    -0.034 A 
ATOM     22  C   UNL     1       9.792  -2.377  24.132  0.00  0.00    +0.006 A 
ATOM     23  C   UNL     1       9.471  -1.126  23.589  0.00  0.00    +0.023 A 
ATOM     24  C   UNL     1       8.146  -0.785  23.293  0.00  0.00    +0.034 A 
ATOM     25  C   UNL     1       7.182  -1.791  23.435  0.00  0.00    +0.023 A 
ATOM     26  C   UNL     1       7.497  -3.051  23.978  0.00  0.00    +0.006 A 
BRANCH  21  27
ATOM     27  C   UNL     1       9.231  -4.617  25.085  0.00  0.00    +0.153 C 
BRANCH  27  29
ATOM     28  N   UNL     1       7.748  -5.532  27.252  0.00  0.00    -0.196 NA
ATOM     29  C   UNL     1       8.421  -5.117  26.269  0.00  0.00    +0.067 C 
ENDBRANCH  27  29
ENDBRANCH  21  27
ENDBRANCH   1  24
BRANCH  10  30
ATOM     30  C   UNL     1       4.050  -0.742  27.712  0.00  0.00    +0.037 C 
ATOM     31  C   UNL     1       4.113  -2.077  28.407  0.00  0.00    +0.010 C 
ATOM     32  C   UNL     1       4.670  -1.950  27.032  0.00  0.00    +0.010 C 
ENDBRANCH  10  30
TORSDOF 4
ENDMDL
MODEL 7
REMARK VINA RESULT:      -6.3      2.693      7.366
REMARK  Name = 
REMARK  4 active torsions:
REMARK  status: ('A' for Active; 'I' for Inactive)
REMARK    1  A    between atoms: C_2  and  C_3
REMARK    2  A    between atoms: C_3  and  C_4
REMARK    3  A    between atoms: C_7  and  N_8
REMARK    4  A    between atoms: C_22  and  C_24
REMARK                            x       y       z     vdW  Elec       q    Type
REMARK                         _______ _______ _______ _____ _____    ______ ____
ROOT
ATOM      1  N   UNL     1       8.683  -1.115  27.035  0.00  0.00    -0.284 N 
ATOM      2  H   UNL     1       8.881  -1.479  27.959  0.00  0.00    +0.155 HD
ATOM      3  C   UNL     1       7.909   0.042  27.239  0.00  0.00    +0.222 A 
ATOM      4  N   UNL     1       7.358   0.687  26.209  0.00  0.00    -0.198 NA
ATOM      5  C   UNL     1       6.504   1.700  26.463  0.00  0.00    +0.137 A 
ATOM      6  N   UNL     1       5.896   2.371  25.375  0.00  0.00    -0.282 N 
ATOM      7  H   UNL     1       4.886   2.318  25.456  0.00  0.00    +0.155 HD
ATOM      8  C   UNL     1       6.323   2.414  24.098  0.00  0.00    +0.146 A 
ATOM      9  C   UNL     1       7.675   2.335  23.690  0.00  0.00    +0.068 A 
ATOM     10  C   UNL     1       7.618   2.214  22.326  0.00  0.00    +0.041 A 
ATOM     11  N   UNL     1       6.317   2.437  21.987  0.00  0.00    -0.280 N 
ATOM     12  H   UNL     1       5.903   2.442  21.061  0.00  0.00    +0.189 HD
ATOM     13  N   UNL     1       5.502   2.550  23.052  0.00  0.00    -0.158 NA
ATOM     14  C   UNL     1       6.202   2.104  27.764  0.00  0.00    +0.041 A 
ATOM     15  C   UNL     1       6.877   1.411  28.773  0.00  0.00    +0.078 A 
ATOM     16  C   UNL     1       6.640   1.792  30.090  0.00  0.00    +0.028 A 
ATOM     17  C   UNL     1       5.750   2.823  30.421  0.00  0.00    +0.002 A 
ATOM     18  C   UNL     1       5.076   3.499  29.416  0.00  0.00    +0.001 A 
ATOM     19  C   UNL     1       5.305   3.152  28.094  0.00  0.00    +0.013 A 
ATOM     20  N   UNL     1       7.723   0.399  28.516  0.00  0.00    -0.214 NA
ENDROOT
BRANCH   1  24
ATOM     21  C   UNL     1       7.894  -4.060  24.050  0.00  0.00    -0.034 A 
ATOM     22  C   UNL     1       7.428  -4.190  25.371  0.00  0.00    +0.006 A 
ATOM     23  C   UNL     1       7.739  -3.238  26.353  0.00  0.00    +0.023 A 
ATOM     24  C   UNL     1       8.503  -2.107  26.047  0.00  0.00    +0.034 A 
ATOM     25  C   UNL     1       9.053  -2.037  24.761  0.00  0.00    +0.023 A 
ATOM     26  C   UNL     1       8.747  -2.990  23.770  0.00  0.00    +0.006 A 
BRANCH  21  27
ATOM     27  C   UNL     1       7.396  -5.067  23.033  0.00  0.00    +0.153 C 
BRANCH  27  29
ATOM     28  N   UNL     1       5.739  -4.215  20.968  0.00  0.00    -0.196 NA
ATOM     29  C   UNL     1       6.491  -4.601  21.904  0.00  0.00    +0.067 C 
ENDBRANCH  27  29
ENDBRANCH  21  27
ENDBRANCH   1  24
BRANCH  10  30
ATOM     30  C   UNL     1       8.767   1.780  21.451  0.00  0.00    +0.037 C 
ATOM     31  C   UNL     1       9.354   0.393  21.476  0.00  0.00    +0.010 C 
ATOM     32  C   UNL     1      10.060   1.490  22.193  0.00  0.00    +0.010 C 
ENDBRANCH  10  30
TORSDOF 4
ENDMDL
MODEL 8
REMARK VINA RESULT:      -6.3      2.793      5.618
REMARK  Name = 
REMARK  4 active torsions:
REMARK  status: ('A' for Active; 'I' for Inactive)
REMARK    1  A    between atoms: C_2  and  C_3
REMARK    2  A    between atoms: C_3  and  C_4
REMARK    3  A    between atoms: C_7  and  N_8
REMARK    4  A    between atoms: C_22  and  C_24
REMARK                            x       y       z     vdW  Elec       q    Type
REMARK                         _______ _______ _______ _____ _____    ______ ____
ROOT
ATOM      1  N   UNL     1       6.004  -0.040  27.131  0.00  0.00    -0.284 N 
ATOM      2  H   UNL     1       5.637  -0.613  27.880  0.00  0.00    +0.155 HD
ATOM      3  C   UNL     1       6.825  -0.889  26.366  0.00  0.00    +0.222 A 
ATOM      4  N   UNL     1       7.578  -0.405  25.378  0.00  0.00    -0.198 NA
ATOM      5  C   UNL     1       8.460  -1.229  24.774  0.00  0.00    +0.137 A 
ATOM      6  N   UNL     1       9.281  -0.713  23.742  0.00  0.00    -0.282 N 
ATOM      7  H   UNL     1      10.258  -0.848  23.977  0.00  0.00    +0.155 HD
ATOM      8  C   UNL     1       9.062   0.386  22.993  0.00  0.00    +0.146 A 
ATOM      9  C   UNL     1       7.788   0.897  22.653  0.00  0.00    +0.068 A 
ATOM     10  C   UNL     1       8.047   2.111  22.072  0.00  0.00    +0.041 A 
ATOM     11  N   UNL     1       9.398   2.161  21.903  0.00  0.00    -0.280 N 
ATOM     12  H   UNL     1       9.950   2.905  21.490  0.00  0.00    +0.189 HD
ATOM     13  N   UNL     1      10.044   1.124  22.468  0.00  0.00    -0.158 NA
ATOM     14  C   UNL     1       8.586  -2.570  25.136  0.00  0.00    +0.041 A 
ATOM     15  C   UNL     1       7.710  -3.000  26.137  0.00  0.00    +0.078 A 
ATOM     16  C   UNL     1       7.768  -4.338  26.517  0.00  0.00    +0.028 A 
ATOM     17  C   UNL     1       8.674  -5.238  25.942  0.00  0.00    +0.002 A 
ATOM     18  C   UNL     1       9.548  -4.803  24.958  0.00  0.00    +0.001 A 
ATOM     19  C   UNL     1       9.500  -3.481  24.546  0.00  0.00    +0.013 A 
ATOM     20  N   UNL     1       6.838  -2.175  26.740  0.00  0.00    -0.214 NA
ENDROOT
BRANCH   1  24
ATOM     21  C   UNL     1       6.522   4.044  28.253  0.00  0.00    -0.034 A 
ATOM     22  C   UNL     1       5.952   3.673  27.022  0.00  0.00    +0.006 A 
ATOM     23  C   UNL     1       5.835   2.327  26.646  0.00  0.00    +0.023 A 
ATOM     24  C   UNL     1       6.257   1.300  27.497  0.00  0.00    +0.034 A 
ATOM     25  C   UNL     1       6.920   1.676  28.672  0.00  0.00    +0.023 A 
ATOM     26  C   UNL     1       7.044   3.026  29.055  0.00  0.00    +0.006 A 
BRANCH  21  27
ATOM     27  C   UNL     1       6.483   5.512  28.626  0.00  0.00    +0.153 C 
BRANCH  27  29
ATOM     28  N   UNL     1       8.734   7.088  28.192  0.00  0.00    -0.196 NA
ATOM     29  C   UNL     1       7.713   6.374  28.389  0.00  0.00    +0.067 C 
ENDBRANCH  27  29
ENDBRANCH  21  27
ENDBRANCH   1  24
BRANCH  10  30
ATOM     30  C   UNL     1       7.017   3.185  21.825  0.00  0.00    +0.037 C 
ATOM     31  C   UNL     1       7.226   4.633  22.184  0.00  0.00    +0.010 C 
ATOM     32  C   UNL     1       6.401   3.778  23.081  0.00  0.00    +0.010 C 
ENDBRANCH  10  30
TORSDOF 4
ENDMDL
MODEL 9
REMARK VINA RESULT:      -6.3      2.350      5.455
REMARK  Name = 
REMARK  4 active torsions:
REMARK  status: ('A' for Active; 'I' for Inactive)
REMARK    1  A    between atoms: C_2  and  C_3
REMARK    2  A    between atoms: C_3  and  C_4
REMARK    3  A    between atoms: C_7  and  N_8
REMARK    4  A    between atoms: C_22  and  C_24
REMARK                            x       y       z     vdW  Elec       q    Type
REMARK                         _______ _______ _______ _____ _____    ______ ____
ROOT
ATOM      1  N   UNL     1       4.989  -0.448  26.059  0.00  0.00    -0.284 N 
ATOM      2  H   UNL     1       4.429  -1.117  26.573  0.00  0.00    +0.155 HD
ATOM      3  C   UNL     1       5.578  -1.172  25.006  0.00  0.00    +0.222 A 
ATOM      4  N   UNL     1       6.496  -0.610  24.219  0.00  0.00    -0.198 NA
ATOM      5  C   UNL     1       7.140  -1.384  23.321  0.00  0.00    +0.137 A 
ATOM      6  N   UNL     1       8.135  -0.798  22.501  0.00  0.00    -0.282 N 
ATOM      7  H   UNL     1       9.017  -1.282  22.627  0.00  0.00    +0.155 HD
ATOM      8  C   UNL     1       8.284   0.507  22.201  0.00  0.00    +0.146 A 
ATOM      9  C   UNL     1       7.232   1.449  22.125  0.00  0.00    +0.068 A 
ATOM     10  C   UNL     1       7.861   2.660  21.999  0.00  0.00    +0.041 A 
ATOM     11  N   UNL     1       9.178   2.376  21.796  0.00  0.00    -0.280 N 
ATOM     12  H   UNL     1       9.943   3.024  21.648  0.00  0.00    +0.189 HD
ATOM     13  N   UNL     1       9.466   1.067  21.927  0.00  0.00    -0.158 NA
ATOM     14  C   UNL     1       6.856  -2.743  23.179  0.00  0.00    +0.041 A 
ATOM     15  C   UNL     1       5.836  -3.225  24.003  0.00  0.00    +0.078 A 
ATOM     16  C   UNL     1       5.486  -4.568  23.881  0.00  0.00    +0.028 A 
ATOM     17  C   UNL     1       6.130  -5.428  22.983  0.00  0.00    +0.002 A 
ATOM     18  C   UNL     1       7.150  -4.945  22.177  0.00  0.00    +0.001 A 
ATOM     19  C   UNL     1       7.507  -3.609  22.263  0.00  0.00    +0.013 A 
ATOM     20  N   UNL     1       5.200  -2.453  24.899  0.00  0.00    -0.214 NA
ENDROOT
BRANCH   1  24
ATOM     21  C   UNL     1       6.583   2.600  28.582  0.00  0.00    -0.034 A 
ATOM     22  C   UNL     1       5.734   2.893  27.500  0.00  0.00    +0.006 A 
ATOM     23  C   UNL     1       5.259   1.885  26.649  0.00  0.00    +0.023 A 
ATOM     24  C   UNL     1       5.592   0.543  26.864  0.00  0.00    +0.034 A 
ATOM     25  C   UNL     1       6.521   0.269  27.875  0.00  0.00    +0.023 A 
ATOM     26  C   UNL     1       7.005   1.277  28.732  0.00  0.00    +0.006 A 
BRANCH  21  27
ATOM     27  C   UNL     1       6.935   3.738  29.520  0.00  0.00    +0.153 C 
BRANCH  27  29
ATOM     28  N   UNL     1       6.299   6.347  28.799  0.00  0.00    -0.196 NA
ATOM     29  C   UNL     1       6.587   5.164  29.126  0.00  0.00    +0.067 C 
ENDBRANCH  27  29
ENDBRANCH  21  27
ENDBRANCH   1  24
BRANCH  10  30
ATOM     30  C   UNL     1       7.198   4.000  22.198  0.00  0.00    +0.037 C 
ATOM     31  C   UNL     1       7.849   5.151  22.919  0.00  0.00    +0.010 C 
ATOM     32  C   UNL     1       6.839   4.327  23.637  0.00  0.00    +0.010 C 
ENDBRANCH  10  30
TORSDOF 4
ENDMDL
