MODEL 1
REMARK VINA RESULT:      -6.5      0.000      0.000
REMARK  Name = 
REMARK  13 active torsions:
REMARK  status: ('A' for Active; 'I' for Inactive)
REMARK    1  A    between atoms: C_1  and  O_2
REMARK    2  A    between atoms: O_2  and  C_3
REMARK    3  A    between atoms: C_6  and  C_8
REMARK    4  A    between atoms: C_8  and  O_9
REMARK    5  A    between atoms: C_10  and  O_12
REMARK    6  A    between atoms: O_12  and  C_13
REMARK    7  A    between atoms: C_16  and  C_18
REMARK    8  A    between atoms: C_18  and  O_19
REMARK    9  A    between atoms: C_20  and  O_22
REMARK   10  A    between atoms: C_23  and  O_25
REMARK   11  A    between atoms: C_26  and  O_28
REMARK   12  A    between atoms: C_29  and  O_31
REMARK   13  A    between atoms: C_32  and  O_34
REMARK                            x       y       z     vdW  Elec       q    Type
REMARK                         _______ _______ _______ _____ _____    ______ ____
ROOT
ATOM      1  O   UNL     1       8.339  -3.289  22.872  0.00  0.00    -0.340 OA
ENDROOT
BRANCH   1   5
ATOM      2  C   UNL     1       6.230  -5.455  25.945  0.00  0.00    +0.281 C 
ATOM      3  C   UNL     1       7.786  -5.542  25.917  0.00  0.00    +0.201 C 
ATOM      4  C   UNL     1       8.391  -4.354  25.162  0.00  0.00    +0.179 C 
ATOM      5  C   UNL     1       7.691  -4.172  23.796  0.00  0.00    +0.183 C 
ATOM      6  C   UNL     1       6.208  -3.915  24.080  0.00  0.00    +0.178 C 
ATOM      7  O   UNL     1       5.638  -5.080  24.702  0.00  0.00    -0.341 OA
BRANCH   2   9
ATOM      8  C   UNL     1       4.348  -6.926  25.851  0.00  0.00    +0.197 C 
ATOM      9  O   UNL     1       5.631  -6.667  26.409  0.00  0.00    -0.352 OA
ENDBRANCH   2   9
BRANCH   3  10
ATOM     10  O   UNL     1       8.310  -5.626  27.256  0.00  0.00    -0.384 OA
ATOM     11  H   UNL     1       9.189  -6.042  27.222  0.00  0.00    +0.210 HD
ENDBRANCH   3  10
BRANCH   4  12
ATOM     12  O   UNL     1       9.801  -4.553  24.991  0.00  0.00    -0.386 OA
ATOM     13  H   UNL     1      10.128  -4.833  25.870  0.00  0.00    +0.210 HD
ENDBRANCH   4  12
BRANCH   6  14
ATOM     14  C   UNL     1       5.366  -3.664  22.828  0.00  0.00    +0.190 C 
BRANCH  14  15
ATOM     15  O   UNL     1       5.537  -2.300  22.424  0.00  0.00    -0.392 OA
ATOM     16  H   UNL     1       4.849  -1.796  22.898  0.00  0.00    +0.210 HD
ENDBRANCH  14  15
ENDBRANCH   6  14
ENDBRANCH   1   5
BRANCH   1  17
ATOM     17  C   UNL     1       8.608  -1.921  23.187  0.00  0.00    +0.282 C 
ATOM     18  C   UNL     1       8.931  -1.043  21.965  0.00  0.00    +0.201 C 
ATOM     19  C   UNL     1       9.032   0.429  22.366  0.00  0.00    +0.179 C 
ATOM     20  C   UNL     1       7.799   0.855  23.180  0.00  0.00    +0.177 C 
ATOM     21  C   UNL     1       7.710  -0.058  24.415  0.00  0.00    +0.178 C 
ATOM     22  O   UNL     1       7.571  -1.422  24.013  0.00  0.00    -0.341 OA
BRANCH  18  23
ATOM     23  O   UNL     1      10.183  -1.443  21.378  0.00  0.00    -0.384 OA
ATOM     24  H   UNL     1      10.009  -1.491  20.414  0.00  0.00    +0.210 HD
ENDBRANCH  18  23
BRANCH  19  25
ATOM     25  O   UNL     1       9.211   1.200  21.166  0.00  0.00    -0.386 OA
ATOM     26  H   UNL     1       8.456   1.805  21.070  0.00  0.00    +0.210 HD
ENDBRANCH  19  25
BRANCH  20  27
ATOM     27  O   UNL     1       6.640   0.725  22.346  0.00  0.00    -0.386 OA
ATOM     28  H   UNL     1       6.920   0.718  21.412  0.00  0.00    +0.210 HD
ENDBRANCH  20  27
BRANCH  21  29
ATOM     29  C   UNL     1       6.491   0.243  25.292  0.00  0.00    +0.190 C 
BRANCH  29  30
ATOM     30  O   UNL     1       5.316  -0.304  24.694  0.00  0.00    -0.392 OA
ATOM     31  H   UNL     1       4.573   0.277  24.962  0.00  0.00    +0.210 HD
ENDBRANCH  29  30
ENDBRANCH  21  29
ENDBRANCH   1  17
TORSDOF 12
ENDMDL
MODEL 2
REMARK VINA RESULT:      -6.4      1.745      6.294
REMARK  Name = 
REMARK  13 active torsions:
REMARK  status: ('A' for Active; 'I' for Inactive)
REMARK    1  A    between atoms: C_1  and  O_2
REMARK    2  A    between atoms: O_2  and  C_3
REMARK    3  A    between atoms: C_6  and  C_8
REMARK    4  A    between atoms: C_8  and  O_9
REMARK    5  A    between atoms: C_10  and  O_12
REMARK    6  A    between atoms: O_12  and  C_13
REMARK    7  A    between atoms: C_16  and  C_18
REMARK    8  A    between atoms: C_18  and  O_19
REMARK    9  A    between atoms: C_20  and  O_22
REMARK   10  A    between atoms: C_23  and  O_25
REMARK   11  A    between atoms: C_26  and  O_28
REMARK   12  A    between atoms: C_29  and  O_31
REMARK   13  A    between atoms: C_32  and  O_34
REMARK                            x       y       z     vdW  Elec       q    Type
REMARK                         _______ _______ _______ _____ _____    ______ ____
ROOT
ATOM      1  O   UNL     1      10.099  -2.473  24.076  0.00  0.00    -0.340 OA
ENDROOT
BRANCH   1   5
ATOM      2  C   UNL     1       8.833   1.558  23.224  0.00  0.00    +0.281 C 
ATOM      3  C   UNL     1       9.493   0.734  22.077  0.00  0.00    +0.201 C 
ATOM      4  C   UNL     1       9.392  -0.770  22.351  0.00  0.00    +0.179 C 
ATOM      5  C   UNL     1       9.870  -1.089  23.785  0.00  0.00    +0.183 C 
ATOM      6  C   UNL     1       8.959  -0.317  24.746  0.00  0.00    +0.178 C 
ATOM      7  O   UNL     1       9.143   1.094  24.537  0.00  0.00    -0.341 OA
BRANCH   2   9
ATOM      8  C   UNL     1      10.492   3.267  23.421  0.00  0.00    +0.197 C 
ATOM      9  O   UNL     1       9.136   2.952  23.130  0.00  0.00    -0.352 OA
ENDBRANCH   2   9
BRANCH   3  10
ATOM     10  O   UNL     1       8.899   1.072  20.809  0.00  0.00    -0.384 OA
ATOM     11  H   UNL     1       9.422   0.657  20.099  0.00  0.00    +0.210 HD
ENDBRANCH   3  10
BRANCH   4  12
ATOM     12  O   UNL     1      10.164  -1.494  21.382  0.00  0.00    -0.386 OA
ATOM     13  H   UNL     1      11.055  -1.577  21.776  0.00  0.00    +0.210 HD
ENDBRANCH   4  12
BRANCH   6  14
ATOM     14  C   UNL     1       9.265  -0.557  26.224  0.00  0.00    +0.190 C 
BRANCH  14  15
ATOM     15  O   UNL     1       8.119  -1.158  26.841  0.00  0.00    -0.392 OA
ATOM     16  H   UNL     1       7.372  -0.561  26.646  0.00  0.00    +0.210 HD
ENDBRANCH  14  15
ENDBRANCH   6  14
ENDBRANCH   1   5
BRANCH   1  17
ATOM     17  C   UNL     1       9.028  -3.412  24.205  0.00  0.00    +0.282 C 
ATOM     18  C   UNL     1       9.185  -4.392  25.381  0.00  0.00    +0.201 C 
ATOM     19  C   UNL     1       7.923  -5.239  25.553  0.00  0.00    +0.179 C 
ATOM     20  C   UNL     1       6.672  -4.347  25.597  0.00  0.00    +0.177 C 
ATOM     21  C   UNL     1       6.627  -3.531  24.292  0.00  0.00    +0.178 C 
ATOM     22  O   UNL     1       7.794  -2.716  24.179  0.00  0.00    -0.341 OA
BRANCH  18  23
ATOM     23  O   UNL     1      10.299  -5.274  25.153  0.00  0.00    -0.384 OA
ATOM     24  H   UNL     1      10.100  -5.720  24.303  0.00  0.00    +0.210 HD
ENDBRANCH  18  23
BRANCH  19  25
ATOM     25  O   UNL     1       8.088  -6.039  26.735  0.00  0.00    -0.386 OA
ATOM     26  H   UNL     1       8.844  -6.636  26.603  0.00  0.00    +0.210 HD
ENDBRANCH  19  25
BRANCH  20  27
ATOM     27  O   UNL     1       6.765  -3.494  26.746  0.00  0.00    -0.386 OA
ATOM     28  H   UNL     1       7.100  -4.013  27.500  0.00  0.00    +0.210 HD
ENDBRANCH  20  27
BRANCH  21  29
ATOM     29  C   UNL     1       5.439  -2.567  24.232  0.00  0.00    +0.190 C 
BRANCH  29  30
ATOM     30  O   UNL     1       5.690  -1.434  25.064  0.00  0.00    -0.392 OA
ATOM     31  H   UNL     1       5.612  -1.747  25.990  0.00  0.00    +0.210 HD
ENDBRANCH  29  30
ENDBRANCH  21  29
ENDBRANCH   1  17
TORSDOF 12
ENDMDL
MODEL 3
REMARK VINA RESULT:      -6.4      1.425      2.778
REMARK  Name = 
REMARK  13 active torsions:
REMARK  status: ('A' for Active; 'I' for Inactive)
REMARK    1  A    between atoms: C_1  and  O_2
REMARK    2  A    between atoms: O_2  and  C_3
REMARK    3  A    between atoms: C_6  and  C_8
REMARK    4  A    between atoms: C_8  and  O_9
REMARK    5  A    between atoms: C_10  and  O_12
REMARK    6  A    between atoms: O_12  and  C_13
REMARK    7  A    between atoms: C_16  and  C_18
REMARK    8  A    between atoms: C_18  and  O_19
REMARK    9  A    between atoms: C_20  and  O_22
REMARK   10  A    between atoms: C_23  and  O_25
REMARK   11  A    between atoms: C_26  and  O_28
REMARK   12  A    between atoms: C_29  and  O_31
REMARK   13  A    between atoms: C_32  and  O_34
REMARK                            x       y       z     vdW  Elec       q    Type
REMARK                         _______ _______ _______ _____ _____    ______ ____
ROOT
ATOM      1  O   UNL     1       9.180  -3.297  23.373  0.00  0.00    -0.340 OA
ENDROOT
BRANCH   1   5
ATOM      2  C   UNL     1       5.696  -5.512  24.616  0.00  0.00    +0.281 C 
ATOM      3  C   UNL     1       5.519  -4.404  23.534  0.00  0.00    +0.201 C 
ATOM      4  C   UNL     1       6.846  -4.101  22.833  0.00  0.00    +0.179 C 
ATOM      5  C   UNL     1       7.964  -3.867  23.874  0.00  0.00    +0.183 C 
ATOM      6  C   UNL     1       8.087  -5.152  24.700  0.00  0.00    +0.178 C 
ATOM      7  O   UNL     1       6.863  -5.364  25.425  0.00  0.00    -0.341 OA
BRANCH   2   9
ATOM      8  C   UNL     1       4.601  -6.738  26.351  0.00  0.00    +0.197 C 
ATOM      9  O   UNL     1       4.547  -5.632  25.458  0.00  0.00    -0.352 OA
ENDBRANCH   2   9
BRANCH   3  10
ATOM     10  O   UNL     1       4.506  -4.786  22.584  0.00  0.00    -0.384 OA
ATOM     11  H   UNL     1       3.810  -5.282  23.052  0.00  0.00    +0.210 HD
ENDBRANCH   3  10
BRANCH   4  12
ATOM     12  O   UNL     1       6.696  -2.957  21.979  0.00  0.00    -0.386 OA
ATOM     13  H   UNL     1       5.735  -2.892  21.806  0.00  0.00    +0.210 HD
ENDBRANCH   4  12
BRANCH   6  14
ATOM     14  C   UNL     1       9.190  -5.111  25.758  0.00  0.00    +0.190 C 
BRANCH  14  15
ATOM     15  O   UNL     1      10.455  -5.304  25.113  0.00  0.00    -0.392 OA
ATOM     16  H   UNL     1      10.457  -6.231  24.808  0.00  0.00    +0.210 HD
ENDBRANCH  14  15
ENDBRANCH   6  14
ENDBRANCH   1   5
BRANCH   1  17
ATOM     17  C   UNL     1       9.559  -1.946  23.649  0.00  0.00    +0.282 C 
ATOM     18  C   UNL     1       9.627  -1.043  22.405  0.00  0.00    +0.201 C 
ATOM     19  C   UNL     1       9.864   0.414  22.805  0.00  0.00    +0.179 C 
ATOM     20  C   UNL     1       8.863   0.850  23.887  0.00  0.00    +0.177 C 
ATOM     21  C   UNL     1       9.024  -0.096  25.090  0.00  0.00    +0.178 C 
ATOM     22  O   UNL     1       8.752  -1.443  24.699  0.00  0.00    -0.341 OA
BRANCH  18  23
ATOM     23  O   UNL     1      10.700  -1.459  21.541  0.00  0.00    -0.384 OA
ATOM     24  H   UNL     1      11.286  -2.004  22.107  0.00  0.00    +0.210 HD
ENDBRANCH  18  23
BRANCH  19  25
ATOM     25  O   UNL     1       9.794   1.215  21.614  0.00  0.00    -0.386 OA
ATOM     26  H   UNL     1      10.366   1.993  21.729  0.00  0.00    +0.210 HD
ENDBRANCH  19  25
BRANCH  20  27
ATOM     27  O   UNL     1       7.542   0.776  23.335  0.00  0.00    -0.386 OA
ATOM     28  H   UNL     1       7.047   0.070  23.789  0.00  0.00    +0.210 HD
ENDBRANCH  20  27
BRANCH  21  29
ATOM     29  C   UNL     1       8.046   0.212  26.227  0.00  0.00    +0.190 C 
BRANCH  29  30
ATOM     30  O   UNL     1       7.842   1.622  26.323  0.00  0.00    -0.392 OA
ATOM     31  H   UNL     1       8.732   2.027  26.390  0.00  0.00    +0.210 HD
ENDBRANCH  29  30
ENDBRANCH  21  29
ENDBRANCH   1  17
TORSDOF 12
ENDMDL
MODEL 4
REMARK VINA RESULT:      -6.2      1.940      6.554
REMARK  Name = 
REMARK  13 active torsions:
REMARK  status: ('A' for Active; 'I' for Inactive)
REMARK    1  A    between atoms: C_1  and  O_2
REMARK    2  A    between atoms: O_2  and  C_3
REMARK    3  A    between atoms: C_6  and  C_8
REMARK    4  A    between atoms: C_8  and  O_9
REMARK    5  A    between atoms: C_10  and  O_12
REMARK    6  A    between atoms: O_12  and  C_13
REMARK    7  A    between atoms: C_16  and  C_18
REMARK    8  A    between atoms: C_18  and  O_19
REMARK    9  A    between atoms: C_20  and  O_22
REMARK   10  A    between atoms: C_23  and  O_25
REMARK   11  A    between atoms: C_26  and  O_28
REMARK   12  A    between atoms: C_29  and  O_31
REMARK   13  A    between atoms: C_32  and  O_34
REMARK                            x       y       z     vdW  Elec       q    Type
REMARK                         _______ _______ _______ _____ _____    ______ ____
ROOT
ATOM      1  O   UNL     1       7.156  -5.391  23.805  0.00  0.00    -0.340 OA
ENDROOT
BRANCH   1   5
ATOM      2  C   UNL     1       9.301  -1.670  24.171  0.00  0.00    +0.281 C 
ATOM      3  C   UNL     1       8.337  -1.850  22.959  0.00  0.00    +0.201 C 
ATOM      4  C   UNL     1       7.291  -2.932  23.243  0.00  0.00    +0.179 C 
ATOM      5  C   UNL     1       7.973  -4.215  23.770  0.00  0.00    +0.183 C 
ATOM      6  C   UNL     1       8.703  -3.837  25.064  0.00  0.00    +0.178 C 
ATOM      7  O   UNL     1       9.744  -2.893  24.758  0.00  0.00    -0.341 OA
BRANCH   2   9
ATOM      8  C   UNL     1      10.560   0.307  24.644  0.00  0.00    +0.197 C 
ATOM      9  O   UNL     1      10.434  -0.863  23.844  0.00  0.00    -0.352 OA
ENDBRANCH   2   9
BRANCH   3  10
ATOM     10  O   UNL     1       7.710  -0.597  22.625  0.00  0.00    -0.384 OA
ATOM     11  H   UNL     1       7.640  -0.532  21.656  0.00  0.00    +0.210 HD
ENDBRANCH   3  10
BRANCH   4  12
ATOM     12  O   UNL     1       6.539  -3.206  22.052  0.00  0.00    -0.386 OA
ATOM     13  H   UNL     1       5.882  -3.881  22.314  0.00  0.00    +0.210 HD
ENDBRANCH   4  12
BRANCH   6  14
ATOM     14  C   UNL     1       9.402  -5.010  25.752  0.00  0.00    +0.190 C 
BRANCH  14  15
ATOM     15  O   UNL     1       8.419  -5.787  26.449  0.00  0.00    -0.392 OA
ATOM     16  H   UNL     1       8.912  -6.298  27.117  0.00  0.00    +0.210 HD
ENDBRANCH  14  15
ENDBRANCH   6  14
ENDBRANCH   1   5
BRANCH   1  17
ATOM     17  C   UNL     1       5.779  -5.351  24.189  0.00  0.00    +0.282 C 
ATOM     18  C   UNL     1       4.833  -6.093  23.228  0.00  0.00    +0.201 C 
ATOM     19  C   UNL     1       3.416  -6.152  23.800  0.00  0.00    +0.179 C 
ATOM     20  C   UNL     1       3.436  -6.676  25.245  0.00  0.00    +0.177 C 
ATOM     21  C   UNL     1       4.337  -5.744  26.074  0.00  0.00    +0.178 C 
ATOM     22  O   UNL     1       5.665  -5.742  25.546  0.00  0.00    -0.341 OA
BRANCH  18  23
ATOM     23  O   UNL     1       4.784  -5.421  21.956  0.00  0.00    -0.384 OA
ATOM     24  H   UNL     1       3.951  -4.903  21.974  0.00  0.00    +0.210 HD
ENDBRANCH  18  23
BRANCH  19  25
ATOM     25  O   UNL     1       2.619  -6.959  22.917  0.00  0.00    -0.386 OA
ATOM     26  H   UNL     1       2.902  -7.885  23.003  0.00  0.00    +0.210 HD
ENDBRANCH  19  25
BRANCH  20  27
ATOM     27  O   UNL     1       3.940  -8.018  25.232  0.00  0.00    -0.386 OA
ATOM     28  H   UNL     1       3.345  -8.587  25.753  0.00  0.00    +0.210 HD
ENDBRANCH  20  27
BRANCH  21  29
ATOM     29  C   UNL     1       4.471  -6.187  27.534  0.00  0.00    +0.190 C 
BRANCH  29  30
ATOM     30  O   UNL     1       5.313  -7.336  27.618  0.00  0.00    -0.392 OA
ATOM     31  H   UNL     1       4.732  -8.088  27.860  0.00  0.00    +0.210 HD
ENDBRANCH  29  30
ENDBRANCH  21  29
ENDBRANCH   1  17
TORSDOF 12
ENDMDL
MODEL 5
REMARK VINA RESULT:      -6.2      1.668      6.276
REMARK  Name = 
REMARK  13 active torsions:
REMARK  status: ('A' for Active; 'I' for Inactive)
REMARK    1  A    between atoms: C_1  and  O_2
REMARK    2  A    between atoms: O_2  and  C_3
REMARK    3  A    between atoms: C_6  and  C_8
REMARK    4  A    between atoms: C_8  and  O_9
REMARK    5  A    between atoms: C_10  and  O_12
REMARK    6  A    between atoms: O_12  and  C_13
REMARK    7  A    between atoms: C_16  and  C_18
REMARK    8  A    between atoms: C_18  and  O_19
REMARK    9  A    between atoms: C_20  and  O_22
REMARK   10  A    between atoms: C_23  and  O_25
REMARK   11  A    between atoms: C_26  and  O_28
REMARK   12  A    between atoms: C_29  and  O_31
REMARK   13  A    between atoms: C_32  and  O_34
REMARK                            x       y       z     vdW  Elec       q    Type
REMARK                         _______ _______ _______ _____ _____    ______ ____
ROOT
ATOM      1  O   UNL     1       8.332  -1.199  25.261  0.00  0.00    -0.340 OA
ENDROOT
BRANCH   1   5
ATOM      2  C   UNL     1       6.960   1.606  22.289  0.00  0.00    +0.281 C 
ATOM      3  C   UNL     1       8.466   1.203  22.284  0.00  0.00    +0.201 C 
ATOM      4  C   UNL     1       8.681  -0.135  22.997  0.00  0.00    +0.179 C 
ATOM      5  C   UNL     1       7.979  -0.131  24.374  0.00  0.00    +0.183 C 
ATOM      6  C   UNL     1       6.485   0.094  24.117  0.00  0.00    +0.178 C 
ATOM      7  O   UNL     1       6.298   1.397  23.536  0.00  0.00    -0.341 OA
BRANCH   2   9
ATOM      8  C   UNL     1       7.465   3.914  22.651  0.00  0.00    +0.197 C 
ATOM      9  O   UNL     1       6.762   2.958  21.868  0.00  0.00    -0.352 OA
ENDBRANCH   2   9
BRANCH   3  10
ATOM     10  O   UNL     1       8.971   1.160  20.936  0.00  0.00    -0.384 OA
ATOM     11  H   UNL     1       9.853   0.747  20.946  0.00  0.00    +0.210 HD
ENDBRANCH   3  10
BRANCH   4  12
ATOM     12  O   UNL     1      10.085  -0.390  23.140  0.00  0.00    -0.386 OA
ATOM     13  H   UNL     1      10.254  -0.356  24.103  0.00  0.00    +0.210 HD
ENDBRANCH   4  12
BRANCH   6  14
ATOM     14  C   UNL     1       5.625   0.080  25.381  0.00  0.00    +0.190 C 
BRANCH  14  15
ATOM     15  O   UNL     1       4.824  -1.108  25.380  0.00  0.00    -0.392 OA
ATOM     16  H   UNL     1       4.994  -1.541  24.523  0.00  0.00    +0.210 HD
ENDBRANCH  14  15
ENDBRANCH   6  14
ENDBRANCH   1   5
BRANCH   1  17
ATOM     17  C   UNL     1       8.049  -2.568  24.958  0.00  0.00    +0.282 C 
ATOM     18  C   UNL     1       9.286  -3.484  24.961  0.00  0.00    +0.201 C 
ATOM     19  C   UNL     1       8.876  -4.948  24.803  0.00  0.00    +0.179 C 
ATOM     20  C   UNL     1       7.776  -5.316  25.813  0.00  0.00    +0.177 C 
ATOM     21  C   UNL     1       6.584  -4.371  25.579  0.00  0.00    +0.178 C 
ATOM     22  O   UNL     1       6.983  -3.014  25.777  0.00  0.00    -0.341 OA
BRANCH  18  23
ATOM     23  O   UNL     1      10.169  -3.138  23.879  0.00  0.00    -0.384 OA
ATOM     24  H   UNL     1      10.880  -2.604  24.291  0.00  0.00    +0.210 HD
ENDBRANCH  18  23
BRANCH  19  25
ATOM     25  O   UNL     1      10.059  -5.753  24.938  0.00  0.00    -0.386 OA
ATOM     26  H   UNL     1      10.068  -6.413  24.224  0.00  0.00    +0.210 HD
ENDBRANCH  19  25
BRANCH  20  27
ATOM     27  O   UNL     1       8.310  -5.170  27.135  0.00  0.00    -0.386 OA
ATOM     28  H   UNL     1       8.364  -4.221  27.353  0.00  0.00    +0.210 HD
ENDBRANCH  20  27
BRANCH  21  29
ATOM     29  C   UNL     1       5.431  -4.612  26.556  0.00  0.00    +0.190 C 
BRANCH  29  30
ATOM     30  O   UNL     1       5.518  -5.932  27.095  0.00  0.00    -0.392 OA
ATOM     31  H   UNL     1       4.597  -6.241  27.222  0.00  0.00    +0.210 HD
ENDBRANCH  29  30
ENDBRANCH  21  29
ENDBRANCH   1  17
TORSDOF 12
ENDMDL
MODEL 6
REMARK VINA RESULT:      -6.1      1.762      6.127
REMARK  Name = 
REMARK  13 active torsions:
REMARK  status: ('A' for Active; 'I' for Inactive)
REMARK    1  A    between atoms: C_1  and  O_2
REMARK    2  A    between atoms: O_2  and  C_3
REMARK    3  A    between atoms: C_6  and  C_8
REMARK    4  A    between atoms: C_8  and  O_9
REMARK    5  A    between atoms: C_10  and  O_12
REMARK    6  A    between atoms: O_12  and  C_13
REMARK    7  A    between atoms: C_16  and  C_18
REMARK    8  A    between atoms: C_18  and  O_19
REMARK    9  A    between atoms: C_20  and  O_22
REMARK   10  A    between atoms: C_23  and  O_25
REMARK   11  A    between atoms: C_26  and  O_28
REMARK   12  A    between atoms: C_29  and  O_31
REMARK   13  A    between atoms: C_32  and  O_34
REMARK                            x       y       z     vdW  Elec       q    Type
REMARK                         _______ _______ _______ _____ _____    ______ ____
ROOT
ATOM      1  O   UNL     1       9.795  -2.595  24.702  0.00  0.00    -0.340 OA
ENDROOT
BRANCH   1   5
ATOM      2  C   UNL     1       8.940   1.560  23.936  0.00  0.00    +0.281 C 
ATOM      3  C   UNL     1       8.224   0.869  25.136  0.00  0.00    +0.201 C 
ATOM      4  C   UNL     1       8.995  -0.372  25.596  0.00  0.00    +0.179 C 
ATOM      5  C   UNL     1       9.333  -1.275  24.389  0.00  0.00    +0.183 C 
ATOM      6  C   UNL     1      10.195  -0.444  23.432  0.00  0.00    +0.178 C 
ATOM      7  O   UNL     1       9.419   0.661  22.937  0.00  0.00    -0.341 OA
BRANCH   2   9
ATOM      8  C   UNL     1       7.617   2.183  22.045  0.00  0.00    +0.197 C 
ATOM      9  O   UNL     1       8.120   2.558  23.321  0.00  0.00    -0.352 OA
ENDBRANCH   2   9
BRANCH   3  10
ATOM     10  O   UNL     1       8.045   1.800  26.220  0.00  0.00    -0.384 OA
ATOM     11  H   UNL     1       8.778   2.441  26.205  0.00  0.00    +0.210 HD
ENDBRANCH   3  10
BRANCH   4  12
ATOM     12  O   UNL     1       8.225  -1.090  26.571  0.00  0.00    -0.386 OA
ATOM     13  H   UNL     1       7.307  -0.770  26.458  0.00  0.00    +0.210 HD
ENDBRANCH   4  12
BRANCH   6  14
ATOM     14  C   UNL     1      10.663  -1.206  22.192  0.00  0.00    +0.190 C 
BRANCH  14  15
ATOM     15  O   UNL     1       9.533  -1.856  21.597  0.00  0.00    -0.392 OA
ATOM     16  H   UNL     1       9.837  -2.751  21.359  0.00  0.00    +0.210 HD
ENDBRANCH  14  15
ENDBRANCH   6  14
ENDBRANCH   1   5
BRANCH   1  17
ATOM     17  C   UNL     1       8.994  -3.757  24.472  0.00  0.00    +0.282 C 
ATOM     18  C   UNL     1       8.419  -4.390  25.752  0.00  0.00    +0.201 C 
ATOM     19  C   UNL     1       7.440  -5.513  25.408  0.00  0.00    +0.179 C 
ATOM     20  C   UNL     1       6.400  -5.032  24.382  0.00  0.00    +0.177 C 
ATOM     21  C   UNL     1       7.158  -4.546  23.134  0.00  0.00    +0.178 C 
ATOM     22  O   UNL     1       8.032  -3.468  23.474  0.00  0.00    -0.341 OA
BRANCH  18  23
ATOM     23  O   UNL     1       9.478  -4.939  26.558  0.00  0.00    -0.384 OA
ATOM     24  H   UNL     1       9.038  -5.250  27.378  0.00  0.00    +0.210 HD
ENDBRANCH  18  23
BRANCH  19  25
ATOM     25  O   UNL     1       6.851  -5.974  26.635  0.00  0.00    -0.386 OA
ATOM     26  H   UNL     1       6.531  -5.204  27.134  0.00  0.00    +0.210 HD
ENDBRANCH  19  25
BRANCH  20  27
ATOM     27  O   UNL     1       5.636  -3.974  24.977  0.00  0.00    -0.386 OA
ATOM     28  H   UNL     1       6.075  -3.123  24.793  0.00  0.00    +0.210 HD
ENDBRANCH  20  27
BRANCH  21  29
ATOM     29  C   UNL     1       6.228  -4.000  22.047  0.00  0.00    +0.190 C 
BRANCH  29  30
ATOM     30  O   UNL     1       4.917  -4.540  22.213  0.00  0.00    -0.392 OA
ATOM     31  H   UNL     1       4.321  -3.999  21.652  0.00  0.00    +0.210 HD
ENDBRANCH  29  30
ENDBRANCH  21  29
ENDBRANCH   1  17
TORSDOF 12
ENDMDL
MODEL 7
REMARK VINA RESULT:      -6.1      1.482      1.620
REMARK  Name = 
REMARK  13 active torsions:
REMARK  status: ('A' for Active; 'I' for Inactive)
REMARK    1  A    between atoms: C_1  and  O_2
REMARK    2  A    between atoms: O_2  and  C_3
REMARK    3  A    between atoms: C_6  and  C_8
REMARK    4  A    between atoms: C_8  and  O_9
REMARK    5  A    between atoms: C_10  and  O_12
REMARK    6  A    between atoms: O_12  and  C_13
REMARK    7  A    between atoms: C_16  and  C_18
REMARK    8  A    between atoms: C_18  and  O_19
REMARK    9  A    between atoms: C_20  and  O_22
REMARK   10  A    between atoms: C_23  and  O_25
REMARK   11  A    between atoms: C_26  and  O_28
REMARK   12  A    between atoms: C_29  and  O_31
REMARK   13  A    between atoms: C_32  and  O_34
REMARK                            x       y       z     vdW  Elec       q    Type
REMARK                         _______ _______ _______ _____ _____    ______ ____
ROOT
ATOM      1  O   UNL     1       7.976  -2.024  23.194  0.00  0.00    -0.340 OA
ENDROOT
BRANCH   1   5
ATOM      2  C   UNL     1       7.425  -4.623  26.589  0.00  0.00    +0.281 C 
ATOM      3  C   UNL     1       8.766  -4.715  25.800  0.00  0.00    +0.201 C 
ATOM      4  C   UNL     1       9.029  -3.429  25.010  0.00  0.00    +0.179 C 
ATOM      5  C   UNL     1       7.779  -3.034  24.191  0.00  0.00    +0.183 C 
ATOM      6  C   UNL     1       6.638  -2.814  25.190  0.00  0.00    +0.178 C 
ATOM      7  O   UNL     1       6.343  -4.058  25.850  0.00  0.00    -0.341 OA
BRANCH   2   9
ATOM      8  C   UNL     1       5.624  -6.126  27.052  0.00  0.00    +0.197 C 
ATOM      9  O   UNL     1       7.025  -5.889  27.121  0.00  0.00    -0.352 OA
ENDBRANCH   2   9
BRANCH   3  10
ATOM     10  O   UNL     1       9.857  -5.008  26.693  0.00  0.00    -0.384 OA
ATOM     11  H   UNL     1       9.873  -5.967  26.862  0.00  0.00    +0.210 HD
ENDBRANCH   3  10
BRANCH   4  12
ATOM     12  O   UNL     1      10.166  -3.609  24.152  0.00  0.00    -0.386 OA
ATOM     13  H   UNL     1      10.320  -4.575  24.132  0.00  0.00    +0.210 HD
ENDBRANCH   4  12
BRANCH   6  14
ATOM     14  C   UNL     1       5.324  -2.368  24.548  0.00  0.00    +0.190 C 
BRANCH  14  15
ATOM     15  O   UNL     1       5.309  -0.937  24.476  0.00  0.00    -0.392 OA
ATOM     16  H   UNL     1       5.726  -0.711  23.624  0.00  0.00    +0.210 HD
ENDBRANCH  14  15
ENDBRANCH   6  14
ENDBRANCH   1   5
BRANCH   1  17
ATOM     17  C   UNL     1       8.686  -0.813  23.466  0.00  0.00    +0.282 C 
ATOM     18  C   UNL     1       9.097  -0.026  22.210  0.00  0.00    +0.201 C 
ATOM     19  C   UNL     1       9.691   1.331  22.590  0.00  0.00    +0.179 C 
ATOM     20  C   UNL     1       8.764   2.076  23.564  0.00  0.00    +0.177 C 
ATOM     21  C   UNL     1       8.564   1.183  24.802  0.00  0.00    +0.178 C 
ATOM     22  O   UNL     1       7.967  -0.058  24.426  0.00  0.00    -0.341 OA
BRANCH  18  23
ATOM     23  O   UNL     1      10.080  -0.760  21.458  0.00  0.00    -0.384 OA
ATOM     24  H   UNL     1      10.758  -1.024  22.115  0.00  0.00    +0.210 HD
ENDBRANCH  18  23
BRANCH  19  25
ATOM     25  O   UNL     1       9.937   2.059  21.375  0.00  0.00    -0.386 OA
ATOM     26  H   UNL     1       9.292   2.784  21.312  0.00  0.00    +0.210 HD
ENDBRANCH  19  25
BRANCH  20  27
ATOM     27  O   UNL     1       7.521   2.333  22.897  0.00  0.00    -0.386 OA
ATOM     28  H   UNL     1       7.701   2.561  21.967  0.00  0.00    +0.210 HD
ENDBRANCH  20  27
BRANCH  21  29
ATOM     29  C   UNL     1       7.620   1.802  25.837  0.00  0.00    +0.190 C 
BRANCH  29  30
ATOM     30  O   UNL     1       6.738   0.803  26.348  0.00  0.00    -0.392 OA
ATOM     31  H   UNL     1       6.506   0.224  25.592  0.00  0.00    +0.210 HD
ENDBRANCH  29  30
ENDBRANCH  21  29
ENDBRANCH   1  17
TORSDOF 12
ENDMDL
MODEL 8
REMARK VINA RESULT:      -6.1      1.732      2.759
REMARK  Name = 
REMARK  13 active torsions:
REMARK  status: ('A' for Active; 'I' for Inactive)
REMARK    1  A    between atoms: C_1  and  O_2
REMARK    2  A    between atoms: O_2  and  C_3
REMARK    3  A    between atoms: C_6  and  C_8
REMARK    4  A    between atoms: C_8  and  O_9
REMARK    5  A    between atoms: C_10  and  O_12
REMARK    6  A    between atoms: O_12  and  C_13
REMARK    7  A    between atoms: C_16  and  C_18
REMARK    8  A    between atoms: C_18  and  O_19
REMARK    9  A    between atoms: C_20  and  O_22
REMARK   10  A    between atoms: C_23  and  O_25
REMARK   11  A    between atoms: C_26  and  O_28
REMARK   12  A    between atoms: C_29  and  O_31
REMARK   13  A    between atoms: C_32  and  O_34
REMARK                            x       y       z     vdW  Elec       q    Type
REMARK                         _______ _______ _______ _____ _____    ______ ____
ROOT
ATOM      1  O   UNL     1       8.474  -1.460  25.987  0.00  0.00    -0.340 OA
ENDROOT
BRANCH   1   5
ATOM      2  C   UNL     1       5.213  -4.226  25.445  0.00  0.00    +0.281 C 
ATOM      3  C   UNL     1       6.647  -4.805  25.640  0.00  0.00    +0.201 C 
ATOM      4  C   UNL     1       7.562  -3.790  26.331  0.00  0.00    +0.179 C 
ATOM      5  C   UNL     1       7.469  -2.416  25.629  0.00  0.00    +0.183 C 
ATOM      6  C   UNL     1       6.009  -1.960  25.725  0.00  0.00    +0.178 C 
ATOM      7  O   UNL     1       5.180  -2.875  24.987  0.00  0.00    -0.341 OA
BRANCH   2   9
ATOM      8  C   UNL     1       4.896  -5.098  23.241  0.00  0.00    +0.197 C 
ATOM      9  O   UNL     1       4.416  -5.039  24.579  0.00  0.00    -0.352 OA
ENDBRANCH   2   9
BRANCH   3  10
ATOM     10  O   UNL     1       6.594  -6.042  26.376  0.00  0.00    -0.384 OA
ATOM     11  H   UNL     1       6.080  -6.690  25.862  0.00  0.00    +0.210 HD
ENDBRANCH   3  10
BRANCH   4  12
ATOM     12  O   UNL     1       8.913  -4.273  26.331  0.00  0.00    -0.386 OA
ATOM     13  H   UNL     1       9.382  -3.719  26.986  0.00  0.00    +0.210 HD
ENDBRANCH   4  12
BRANCH   6  14
ATOM     14  C   UNL     1       5.745  -0.583  25.115  0.00  0.00    +0.190 C 
BRANCH  14  15
ATOM     15  O   UNL     1       6.229  -0.576  23.766  0.00  0.00    -0.392 OA
ATOM     16  H   UNL     1       5.939  -1.422  23.377  0.00  0.00    +0.210 HD
ENDBRANCH  14  15
ENDBRANCH   6  14
ENDBRANCH   1   5
BRANCH   1  17
ATOM     17  C   UNL     1       9.359  -0.887  25.020  0.00  0.00    +0.282 C 
ATOM     18  C   UNL     1       9.473  -1.692  23.714  0.00  0.00    +0.201 C 
ATOM     19  C   UNL     1      10.294  -0.926  22.675  0.00  0.00    +0.179 C 
ATOM     20  C   UNL     1       9.770   0.511  22.522  0.00  0.00    +0.177 C 
ATOM     21  C   UNL     1       9.840   1.188  23.903  0.00  0.00    +0.178 C 
ATOM     22  O   UNL     1       9.030   0.480  24.842  0.00  0.00    -0.341 OA
BRANCH  18  23
ATOM     23  O   UNL     1      10.115  -2.957  23.959  0.00  0.00    -0.384 OA
ATOM     24  H   UNL     1      10.891  -2.970  23.360  0.00  0.00    +0.210 HD
ENDBRANCH  18  23
BRANCH  19  25
ATOM     25  O   UNL     1      10.257  -1.674  21.448  0.00  0.00    -0.386 OA
ATOM     26  H   UNL     1       9.383  -2.090  21.364  0.00  0.00    +0.210 HD
ENDBRANCH  19  25
BRANCH  20  27
ATOM     27  O   UNL     1       8.424   0.452  22.034  0.00  0.00    -0.386 OA
ATOM     28  H   UNL     1       7.982  -0.330  22.413  0.00  0.00    +0.210 HD
ENDBRANCH  20  27
BRANCH  21  29
ATOM     29  C   UNL     1       9.304   2.623  23.891  0.00  0.00    +0.190 C 
BRANCH  29  30
ATOM     30  O   UNL     1       9.370   3.155  22.568  0.00  0.00    -0.392 OA
ATOM     31  H   UNL     1       8.490   3.545  22.382  0.00  0.00    +0.210 HD
ENDBRANCH  29  30
ENDBRANCH  21  29
ENDBRANCH   1  17
TORSDOF 12
ENDMDL
MODEL 9
REMARK VINA RESULT:      -6.0      2.127      2.969
REMARK  Name = 
REMARK  13 active torsions:
REMARK  status: ('A' for Active; 'I' for Inactive)
REMARK    1  A    between atoms: C_1  and  O_2
REMARK    2  A    between atoms: O_2  and  C_3
REMARK    3  A    between atoms: C_6  and  C_8
REMARK    4  A    between atoms: C_8  and  O_9
REMARK    5  A    between atoms: C_10  and  O_12
REMARK    6  A    between atoms: O_12  and  C_13
REMARK    7  A    between atoms: C_16  and  C_18
REMARK    8  A    between atoms: C_18  and  O_19
REMARK    9  A    between atoms: C_20  and  O_22
REMARK   10  A    between atoms: C_23  and  O_25
REMARK   11  A    between atoms: C_26  and  O_28
REMARK   12  A    between atoms: C_29  and  O_31
REMARK   13  A    between atoms: C_32  and  O_34
REMARK                            x       y       z     vdW  Elec       q    Type
REMARK                         _______ _______ _______ _____ _____    ______ ____
ROOT
ATOM      1  O   UNL     1       9.907  -0.590  25.082  0.00  0.00    -0.340 OA
ENDROOT
BRANCH   1   5
ATOM      2  C   UNL     1       7.149  -3.899  25.239  0.00  0.00    +0.281 C 
ATOM      3  C   UNL     1       8.307  -3.953  24.198  0.00  0.00    +0.201 C 
ATOM      4  C   UNL     1       9.459  -3.030  24.607  0.00  0.00    +0.179 C 
ATOM      5  C   UNL     1       8.923  -1.624  24.960  0.00  0.00    +0.183 C 
ATOM      6  C   UNL     1       7.946  -1.796  26.128  0.00  0.00    +0.178 C 
ATOM      7  O   UNL     1       6.825  -2.585  25.693  0.00  0.00    -0.341 OA
BRANCH   2   9
ATOM      8  C   UNL     1       5.564  -5.664  25.535  0.00  0.00    +0.197 C 
ATOM      9  O   UNL     1       5.963  -4.540  24.761  0.00  0.00    -0.352 OA
ENDBRANCH   2   9
BRANCH   3  10
ATOM     10  O   UNL     1       8.765  -5.308  24.024  0.00  0.00    -0.384 OA
ATOM     11  H   UNL     1       8.103  -5.796  23.503  0.00  0.00    +0.210 HD
ENDBRANCH   3  10
BRANCH   4  12
ATOM     12  O   UNL     1      10.424  -2.957  23.547  0.00  0.00    -0.386 OA
ATOM     13  H   UNL     1      10.167  -2.174  23.021  0.00  0.00    +0.210 HD
ENDBRANCH   4  12
BRANCH   6  14
ATOM     14  C   UNL     1       7.351  -0.484  26.642  0.00  0.00    +0.190 C 
BRANCH  14  15
ATOM     15  O   UNL     1       6.904   0.289  25.520  0.00  0.00    -0.392 OA
ATOM     16  H   UNL     1       5.980   0.019  25.365  0.00  0.00    +0.210 HD
ENDBRANCH  14  15
ENDBRANCH   6  14
ENDBRANCH   1   5
BRANCH   1  17
ATOM     17  C   UNL     1       9.919   0.555  24.224  0.00  0.00    +0.282 C 
ATOM     18  C   UNL     1       9.393   0.285  22.804  0.00  0.00    +0.201 C 
ATOM     19  C   UNL     1       9.275   1.589  22.013  0.00  0.00    +0.179 C 
ATOM     20  C   UNL     1       8.498   2.644  22.818  0.00  0.00    +0.177 C 
ATOM     21  C   UNL     1       9.238   2.860  24.150  0.00  0.00    +0.178 C 
ATOM     22  O   UNL     1       9.294   1.639  24.889  0.00  0.00    -0.341 OA
BRANCH  18  23
ATOM     23  O   UNL     1      10.284  -0.598  22.098  0.00  0.00    -0.384 OA
ATOM     24  H   UNL     1      11.155  -0.147  22.115  0.00  0.00    +0.210 HD
ENDBRANCH  18  23
BRANCH  19  25
ATOM     25  O   UNL     1       8.665   1.282  20.748  0.00  0.00    -0.386 OA
ATOM     26  H   UNL     1       9.162   0.556  20.333  0.00  0.00    +0.210 HD
ENDBRANCH  19  25
BRANCH  20  27
ATOM     27  O   UNL     1       7.166   2.159  23.030  0.00  0.00    -0.386 OA
ATOM     28  H   UNL     1       6.532   2.871  22.825  0.00  0.00    +0.210 HD
ENDBRANCH  20  27
BRANCH  21  29
ATOM     29  C   UNL     1       8.535   3.867  25.065  0.00  0.00    +0.190 C 
BRANCH  29  30
ATOM     30  O   UNL     1       7.556   3.200  25.861  0.00  0.00    -0.392 OA
ATOM     31  H   UNL     1       6.778   3.058  25.281  0.00  0.00    +0.210 HD
ENDBRANCH  29  30
ENDBRANCH  21  29
ENDBRANCH   1  17
TORSDOF 12
ENDMDL
