MODEL 1
REMARK VINA RESULT:      -5.7      0.000      0.000
REMARK  Name = 
REMARK  7 active torsions:
REMARK  status: ('A' for Active; 'I' for Inactive)
REMARK    1  A    between atoms: C_2  and  C_3
REMARK    2  A    between atoms: C_3  and  C_4
REMARK    3  A    between atoms: C_4  and  N_5
REMARK    4  A    between atoms: N_5  and  N_6
REMARK    5  A    between atoms: C_7  and  C_9
REMARK    6  A    between atoms: N_15  and  C_16
REMARK    7  A    between atoms: C_16  and  C_17
REMARK                            x       y       z     vdW  Elec       q    Type
REMARK                         _______ _______ _______ _____ _____    ______ ____
ROOT
ATOM      1  C   UNL     1       9.949   0.418  22.462  0.00  0.00    +0.111 C 
ENDROOT
BRANCH   1   2
ATOM      2  N   UNL     1      10.117  -0.881  21.789  0.00  0.00    -0.240 NA
ATOM      3  H   UNL     1      10.804  -1.434  22.321  0.00  0.00    +0.144 HD
BRANCH   2   4
ATOM      4  N   UNL     1       8.908  -1.609  21.808  0.00  0.00    -0.247 N 
ATOM      5  H   UNL     1       8.138  -1.277  21.236  0.00  0.00    +0.169 HD
ATOM      6  C   UNL     1       8.780  -2.700  22.658  0.00  0.00    +0.258 C 
ATOM      7  O   UNL     1       9.666  -3.062  23.429  0.00  0.00    -0.269 OA
BRANCH   6   8
ATOM      8  C   UNL     1       7.476  -3.411  22.627  0.00  0.00    +0.041 A 
ATOM      9  C   UNL     1       7.484  -4.805  22.677  0.00  0.00    +0.033 A 
ATOM     10  C   UNL     1       6.269  -5.462  22.657  0.00  0.00    +0.111 A 
ATOM     11  N   UNL     1       5.078  -4.830  22.585  0.00  0.00    -0.263 NA
ATOM     12  C   UNL     1       5.100  -3.482  22.514  0.00  0.00    +0.111 A 
ATOM     13  C   UNL     1       6.262  -2.730  22.530  0.00  0.00    +0.033 A 
ENDBRANCH   6   8
ENDBRANCH   2   4
ENDBRANCH   1   2
BRANCH   1  14
ATOM     14  C   UNL     1      10.515   0.345  23.874  0.00  0.00    +0.112 C 
BRANCH  14  16
ATOM     15  O   UNL     1       8.701   1.309  25.113  0.00  0.00    -0.276 OA
ATOM     16  C   UNL     1       9.390   0.320  24.882  0.00  0.00    +0.215 C 
ATOM     17  N   UNL     1       9.200  -0.902  25.481  0.00  0.00    -0.311 N 
ATOM     18  H   UNL     1       9.745  -1.699  25.180  0.00  0.00    +0.149 HD
BRANCH  17  19
ATOM     19  C   UNL     1       8.164  -1.135  26.462  0.00  0.00    +0.139 C 
BRANCH  19  20
ATOM     20  C   UNL     1       7.682  -2.559  26.385  0.00  0.00    -0.030 A 
ATOM     21  C   UNL     1       8.584  -3.619  26.560  0.00  0.00    +0.005 A 
ATOM     22  C   UNL     1       8.135  -4.939  26.538  0.00  0.00    +0.000 A 
ATOM     23  C   UNL     1       6.783  -5.214  26.348  0.00  0.00    +0.000 A 
ATOM     24  C   UNL     1       5.876  -4.169  26.175  0.00  0.00    +0.000 A 
ATOM     25  C   UNL     1       6.323  -2.846  26.195  0.00  0.00    +0.005 A 
ENDBRANCH  19  20
ENDBRANCH  17  19
ENDBRANCH  14  16
ENDBRANCH   1  14
TORSDOF 7
ENDMDL
MODEL 2
REMARK VINA RESULT:      -5.7      2.684      6.006
REMARK  Name = 
REMARK  7 active torsions:
REMARK  status: ('A' for Active; 'I' for Inactive)
REMARK    1  A    between atoms: C_2  and  C_3
REMARK    2  A    between atoms: C_3  and  C_4
REMARK    3  A    between atoms: C_4  and  N_5
REMARK    4  A    between atoms: N_5  and  N_6
REMARK    5  A    between atoms: C_7  and  C_9
REMARK    6  A    between atoms: N_15  and  C_16
REMARK    7  A    between atoms: C_16  and  C_17
REMARK                            x       y       z     vdW  Elec       q    Type
REMARK                         _______ _______ _______ _____ _____    ______ ____
ROOT
ATOM      1  C   UNL     1       7.467  -2.636  26.329  0.00  0.00    +0.111 C 
ENDROOT
BRANCH   1   2
ATOM      2  N   UNL     1       6.247  -2.132  25.674  0.00  0.00    -0.240 NA
ATOM      3  H   UNL     1       5.464  -2.227  26.335  0.00  0.00    +0.144 HD
BRANCH   2   4
ATOM      4  N   UNL     1       6.372  -0.756  25.387  0.00  0.00    -0.247 N 
ATOM      5  H   UNL     1       6.248  -0.093  26.146  0.00  0.00    +0.169 HD
ATOM      6  C   UNL     1       6.582  -0.348  24.076  0.00  0.00    +0.258 C 
ATOM      7  O   UNL     1       6.640  -1.127  23.128  0.00  0.00    -0.269 OA
BRANCH   6   8
ATOM      8  C   UNL     1       6.697   1.116  23.852  0.00  0.00    +0.041 A 
ATOM      9  C   UNL     1       7.053   1.924  24.932  0.00  0.00    +0.033 A 
ATOM     10  C   UNL     1       7.168   3.283  24.717  0.00  0.00    +0.111 A 
ATOM     11  N   UNL     1       6.947   3.872  23.522  0.00  0.00    -0.263 NA
ATOM     12  C   UNL     1       6.580   3.071  22.499  0.00  0.00    +0.111 A 
ATOM     13  C   UNL     1       6.440   1.698  22.610  0.00  0.00    +0.033 A 
ENDBRANCH   6   8
ENDBRANCH   2   4
ENDBRANCH   1   2
BRANCH   1  14
ATOM     14  C   UNL     1       7.902  -3.941  25.678  0.00  0.00    +0.112 C 
BRANCH  14  16
ATOM     15  O   UNL     1       9.941  -4.571  24.581  0.00  0.00    -0.276 OA
ATOM     16  C   UNL     1       9.101  -3.701  24.789  0.00  0.00    +0.215 C 
ATOM     17  N   UNL     1       9.142  -2.448  24.227  0.00  0.00    -0.311 N 
ATOM     18  H   UNL     1       8.372  -1.808  24.370  0.00  0.00    +0.149 HD
BRANCH  17  19
ATOM     19  C   UNL     1      10.200  -2.029  23.336  0.00  0.00    +0.139 C 
BRANCH  19  20
ATOM     20  C   UNL     1      10.193  -0.531  23.184  0.00  0.00    -0.030 A 
ATOM     21  C   UNL     1      10.581   0.287  24.254  0.00  0.00    +0.005 A 
ATOM     22  C   UNL     1      10.623   1.673  24.104  0.00  0.00    +0.000 A 
ATOM     23  C   UNL     1      10.286   2.254  22.884  0.00  0.00    +0.000 A 
ATOM     24  C   UNL     1       9.900   1.451  21.812  0.00  0.00    +0.000 A 
ATOM     25  C   UNL     1       9.855   0.063  21.960  0.00  0.00    +0.005 A 
ENDBRANCH  19  20
ENDBRANCH  17  19
ENDBRANCH  14  16
ENDBRANCH   1  14
TORSDOF 7
ENDMDL
MODEL 3
REMARK VINA RESULT:      -5.6      2.945      5.798
REMARK  Name = 
REMARK  7 active torsions:
REMARK  status: ('A' for Active; 'I' for Inactive)
REMARK    1  A    between atoms: C_2  and  C_3
REMARK    2  A    between atoms: C_3  and  C_4
REMARK    3  A    between atoms: C_4  and  N_5
REMARK    4  A    between atoms: N_5  and  N_6
REMARK    5  A    between atoms: C_7  and  C_9
REMARK    6  A    between atoms: N_15  and  C_16
REMARK    7  A    between atoms: C_16  and  C_17
REMARK                            x       y       z     vdW  Elec       q    Type
REMARK                         _______ _______ _______ _____ _____    ______ ____
ROOT
ATOM      1  C   UNL     1       8.605  -4.696  26.673  0.00  0.00    +0.111 C 
ENDROOT
BRANCH   1   2
ATOM      2  N   UNL     1       7.654  -5.771  27.008  0.00  0.00    -0.240 NA
ATOM      3  H   UNL     1       7.186  -5.523  27.890  0.00  0.00    +0.144 HD
BRANCH   2   4
ATOM      4  N   UNL     1       6.646  -5.863  26.024  0.00  0.00    -0.247 N 
ATOM      5  H   UNL     1       6.791  -5.384  25.141  0.00  0.00    +0.169 HD
ATOM      6  C   UNL     1       5.465  -6.533  26.317  0.00  0.00    +0.258 C 
ATOM      7  O   UNL     1       5.230  -7.039  27.412  0.00  0.00    -0.269 OA
BRANCH   6   8
ATOM      8  C   UNL     1       4.450  -6.584  25.234  0.00  0.00    +0.041 A 
ATOM      9  C   UNL     1       4.552  -5.665  24.190  0.00  0.00    +0.033 A 
ATOM     10  C   UNL     1       3.611  -5.720  23.180  0.00  0.00    +0.111 A 
ATOM     11  N   UNL     1       2.595  -6.610  23.154  0.00  0.00    -0.263 NA
ATOM     12  C   UNL     1       2.505  -7.472  24.188  0.00  0.00    +0.111 A 
ATOM     13  C   UNL     1       3.397  -7.500  25.246  0.00  0.00    +0.033 A 
ENDBRANCH   6   8
ENDBRANCH   2   4
ENDBRANCH   1   2
BRANCH   1  14
ATOM     14  C   UNL     1       8.060  -3.865  25.520  0.00  0.00    +0.112 C 
BRANCH  14  16
ATOM     15  O   UNL     1      10.218  -4.158  24.514  0.00  0.00    -0.276 OA
ATOM     16  C   UNL     1       9.176  -3.512  24.564  0.00  0.00    +0.215 C 
ATOM     17  N   UNL     1       8.902  -2.437  23.754  0.00  0.00    -0.311 N 
ATOM     18  H   UNL     1       7.989  -2.004  23.785  0.00  0.00    +0.149 HD
BRANCH  17  19
ATOM     19  C   UNL     1       9.836  -1.952  22.762  0.00  0.00    +0.139 C 
BRANCH  19  20
ATOM     20  C   UNL     1      10.007  -0.462  22.890  0.00  0.00    -0.030 A 
ATOM     21  C   UNL     1      10.496   0.092  24.081  0.00  0.00    +0.005 A 
ATOM     22  C   UNL     1      10.703   1.467  24.188  0.00  0.00    +0.000 A 
ATOM     23  C   UNL     1      10.430   2.301  23.106  0.00  0.00    +0.000 A 
ATOM     24  C   UNL     1       9.946   1.762  21.915  0.00  0.00    +0.000 A 
ATOM     25  C   UNL     1       9.736   0.386  21.806  0.00  0.00    +0.005 A 
ENDBRANCH  19  20
ENDBRANCH  17  19
ENDBRANCH  14  16
ENDBRANCH   1  14
TORSDOF 7
ENDMDL
MODEL 4
REMARK VINA RESULT:      -5.6      1.230      2.101
REMARK  Name = 
REMARK  7 active torsions:
REMARK  status: ('A' for Active; 'I' for Inactive)
REMARK    1  A    between atoms: C_2  and  C_3
REMARK    2  A    between atoms: C_3  and  C_4
REMARK    3  A    between atoms: C_4  and  N_5
REMARK    4  A    between atoms: N_5  and  N_6
REMARK    5  A    between atoms: C_7  and  C_9
REMARK    6  A    between atoms: N_15  and  C_16
REMARK    7  A    between atoms: C_16  and  C_17
REMARK                            x       y       z     vdW  Elec       q    Type
REMARK                         _______ _______ _______ _____ _____    ______ ____
ROOT
ATOM      1  C   UNL     1       9.439   1.144  21.773  0.00  0.00    +0.111 C 
ENDROOT
BRANCH   1   2
ATOM      2  N   UNL     1       9.937  -0.241  21.822  0.00  0.00    -0.240 NA
ATOM      3  H   UNL     1      10.494  -0.353  22.681  0.00  0.00    +0.144 HD
BRANCH   2   4
ATOM      4  N   UNL     1       8.862  -1.151  21.914  0.00  0.00    -0.247 N 
ATOM      5  H   UNL     1       8.008  -0.938  21.407  0.00  0.00    +0.169 HD
ATOM      6  C   UNL     1       8.972  -2.257  22.746  0.00  0.00    +0.258 C 
ATOM      7  O   UNL     1       9.959  -2.483  23.441  0.00  0.00    -0.269 OA
BRANCH   6   8
ATOM      8  C   UNL     1       7.797  -3.165  22.794  0.00  0.00    +0.041 A 
ATOM      9  C   UNL     1       6.586  -2.706  22.278  0.00  0.00    +0.033 A 
ATOM     10  C   UNL     1       5.498  -3.556  22.317  0.00  0.00    +0.111 A 
ATOM     11  N   UNL     1       5.543  -4.804  22.833  0.00  0.00    -0.263 NA
ATOM     12  C   UNL     1       6.721  -5.215  23.348  0.00  0.00    +0.111 A 
ATOM     13  C   UNL     1       7.869  -4.441  23.355  0.00  0.00    +0.033 A 
ENDBRANCH   6   8
ENDBRANCH   2   4
ENDBRANCH   1   2
BRANCH   1  14
ATOM     14  C   UNL     1      10.040   1.950  22.915  0.00  0.00    +0.112 C 
BRANCH  14  16
ATOM     15  O   UNL     1      11.361   0.727  24.501  0.00  0.00    -0.276 OA
ATOM     16  C   UNL     1      10.244   1.064  24.123  0.00  0.00    +0.215 C 
ATOM     17  N   UNL     1       9.080   0.707  24.759  0.00  0.00    -0.311 N 
ATOM     18  H   UNL     1       8.198   1.091  24.448  0.00  0.00    +0.149 HD
BRANCH  17  19
ATOM     19  C   UNL     1       9.064  -0.124  25.942  0.00  0.00    +0.139 C 
BRANCH  19  20
ATOM     20  C   UNL     1       7.815  -0.965  25.973  0.00  0.00    -0.030 A 
ATOM     21  C   UNL     1       6.618  -0.468  25.440  0.00  0.00    +0.005 A 
ATOM     22  C   UNL     1       5.469  -1.260  25.422  0.00  0.00    +0.000 A 
ATOM     23  C   UNL     1       5.508  -2.557  25.929  0.00  0.00    +0.000 A 
ATOM     24  C   UNL     1       6.693  -3.063  26.460  0.00  0.00    +0.000 A 
ATOM     25  C   UNL     1       7.843  -2.272  26.481  0.00  0.00    +0.005 A 
ENDBRANCH  19  20
ENDBRANCH  17  19
ENDBRANCH  14  16
ENDBRANCH   1  14
TORSDOF 7
ENDMDL
MODEL 5
REMARK VINA RESULT:      -5.6      2.753      6.244
REMARK  Name = 
REMARK  7 active torsions:
REMARK  status: ('A' for Active; 'I' for Inactive)
REMARK    1  A    between atoms: C_2  and  C_3
REMARK    2  A    between atoms: C_3  and  C_4
REMARK    3  A    between atoms: C_4  and  N_5
REMARK    4  A    between atoms: N_5  and  N_6
REMARK    5  A    between atoms: C_7  and  C_9
REMARK    6  A    between atoms: N_15  and  C_16
REMARK    7  A    between atoms: C_16  and  C_17
REMARK                            x       y       z     vdW  Elec       q    Type
REMARK                         _______ _______ _______ _____ _____    ______ ____
ROOT
ATOM      1  C   UNL     1       5.869  -2.603  23.761  0.00  0.00    +0.111 C 
ENDROOT
BRANCH   1   2
ATOM      2  N   UNL     1       5.887  -1.500  24.737  0.00  0.00    -0.240 NA
ATOM      3  H   UNL     1       6.704  -1.625  25.350  0.00  0.00    +0.144 HD
BRANCH   2   4
ATOM      4  N   UNL     1       6.058  -0.262  24.080  0.00  0.00    -0.247 N 
ATOM      5  H   UNL     1       5.703  -0.167  23.133  0.00  0.00    +0.169 HD
ATOM      6  C   UNL     1       6.765   0.754  24.710  0.00  0.00    +0.258 C 
ATOM      7  O   UNL     1       7.284   0.628  25.816  0.00  0.00    -0.269 OA
BRANCH   6   8
ATOM      8  C   UNL     1       6.909   2.024  23.954  0.00  0.00    +0.041 A 
ATOM      9  C   UNL     1       7.412   3.139  24.625  0.00  0.00    +0.033 A 
ATOM     10  C   UNL     1       7.552   4.316  23.916  0.00  0.00    +0.111 A 
ATOM     11  N   UNL     1       7.222   4.448  22.613  0.00  0.00    -0.263 NA
ATOM     12  C   UNL     1       6.715   3.361  21.994  0.00  0.00    +0.111 A 
ATOM     13  C   UNL     1       6.537   2.136  22.613  0.00  0.00    +0.033 A 
ENDBRANCH   6   8
ENDBRANCH   2   4
ENDBRANCH   1   2
BRANCH   1  14
ATOM     14  C   UNL     1       6.837  -3.694  24.197  0.00  0.00    +0.112 C 
BRANCH  14  16
ATOM     15  O   UNL     1       9.218  -3.986  24.116  0.00  0.00    -0.276 OA
ATOM     16  C   UNL     1       8.234  -3.365  23.723  0.00  0.00    +0.215 C 
ATOM     17  N   UNL     1       8.290  -2.343  22.807  0.00  0.00    -0.311 N 
ATOM     18  H   UNL     1       7.434  -1.933  22.459  0.00  0.00    +0.149 HD
BRANCH  17  19
ATOM     19  C   UNL     1       9.532  -1.889  22.222  0.00  0.00    +0.139 C 
BRANCH  19  20
ATOM     20  C   UNL     1       9.867  -0.507  22.714  0.00  0.00    -0.030 A 
ATOM     21  C   UNL     1      10.290  -0.313  24.037  0.00  0.00    +0.005 A 
ATOM     22  C   UNL     1      10.648   0.958  24.485  0.00  0.00    +0.000 A 
ATOM     23  C   UNL     1      10.596   2.045  23.616  0.00  0.00    +0.000 A 
ATOM     24  C   UNL     1      10.180   1.865  22.298  0.00  0.00    +0.000 A 
ATOM     25  C   UNL     1       9.818   0.594  21.847  0.00  0.00    +0.005 A 
ENDBRANCH  19  20
ENDBRANCH  17  19
ENDBRANCH  14  16
ENDBRANCH   1  14
TORSDOF 7
ENDMDL
MODEL 6
REMARK VINA RESULT:      -5.6      2.636      4.403
REMARK  Name = 
REMARK  7 active torsions:
REMARK  status: ('A' for Active; 'I' for Inactive)
REMARK    1  A    between atoms: C_2  and  C_3
REMARK    2  A    between atoms: C_3  and  C_4
REMARK    3  A    between atoms: C_4  and  N_5
REMARK    4  A    between atoms: N_5  and  N_6
REMARK    5  A    between atoms: C_7  and  C_9
REMARK    6  A    between atoms: N_15  and  C_16
REMARK    7  A    between atoms: C_16  and  C_17
REMARK                            x       y       z     vdW  Elec       q    Type
REMARK                         _______ _______ _______ _____ _____    ______ ____
ROOT
ATOM      1  C   UNL     1       5.726   2.513  22.581  0.00  0.00    +0.111 C 
ENDROOT
BRANCH   1   2
ATOM      2  N   UNL     1       6.220   1.788  23.764  0.00  0.00    -0.240 NA
ATOM      3  H   UNL     1       5.496   1.832  24.494  0.00  0.00    +0.144 HD
BRANCH   2   4
ATOM      4  N   UNL     1       6.411   0.422  23.462  0.00  0.00    -0.247 N 
ATOM      5  H   UNL     1       6.769   0.178  22.544  0.00  0.00    +0.169 HD
ATOM      6  C   UNL     1       6.035  -0.541  24.390  0.00  0.00    +0.258 C 
ATOM      7  O   UNL     1       5.512  -0.271  25.468  0.00  0.00    -0.269 OA
BRANCH   6   8
ATOM      8  C   UNL     1       6.261  -1.956  23.999  0.00  0.00    +0.041 A 
ATOM      9  C   UNL     1       6.173  -2.291  22.648  0.00  0.00    +0.033 A 
ATOM     10  C   UNL     1       6.392  -3.606  22.288  0.00  0.00    +0.111 A 
ATOM     11  N   UNL     1       6.680  -4.585  23.172  0.00  0.00    -0.263 NA
ATOM     12  C   UNL     1       6.736  -4.239  24.476  0.00  0.00    +0.111 A 
ATOM     13  C   UNL     1       6.534  -2.951  24.940  0.00  0.00    +0.033 A 
ENDBRANCH   6   8
ENDBRANCH   2   4
ENDBRANCH   1   2
BRANCH   1  14
ATOM     14  C   UNL     1       6.666   3.664  22.250  0.00  0.00    +0.112 C 
BRANCH  14  16
ATOM     15  O   UNL     1       8.610   3.751  23.654  0.00  0.00    -0.276 OA
ATOM     16  C   UNL     1       8.081   3.304  22.641  0.00  0.00    +0.215 C 
ATOM     17  N   UNL     1       8.693   2.424  21.782  0.00  0.00    -0.311 N 
ATOM     18  H   UNL     1       8.171   2.025  21.014  0.00  0.00    +0.149 HD
BRANCH  17  19
ATOM     19  C   UNL     1      10.042   1.946  21.990  0.00  0.00    +0.139 C 
BRANCH  19  20
ATOM     20  C   UNL     1      10.021   0.589  22.642  0.00  0.00    -0.030 A 
ATOM     21  C   UNL     1      10.051   0.478  24.039  0.00  0.00    +0.005 A 
ATOM     22  C   UNL     1       9.983  -0.773  24.651  0.00  0.00    +0.000 A 
ATOM     23  C   UNL     1       9.877  -1.925  23.874  0.00  0.00    +0.000 A 
ATOM     24  C   UNL     1       9.845  -1.828  22.484  0.00  0.00    +0.000 A 
ATOM     25  C   UNL     1       9.915  -0.576  21.869  0.00  0.00    +0.005 A 
ENDBRANCH  19  20
ENDBRANCH  17  19
ENDBRANCH  14  16
ENDBRANCH   1  14
TORSDOF 7
ENDMDL
MODEL 7
REMARK VINA RESULT:      -5.4      2.813      5.972
REMARK  Name = 
REMARK  7 active torsions:
REMARK  status: ('A' for Active; 'I' for Inactive)
REMARK    1  A    between atoms: C_2  and  C_3
REMARK    2  A    between atoms: C_3  and  C_4
REMARK    3  A    between atoms: C_4  and  N_5
REMARK    4  A    between atoms: N_5  and  N_6
REMARK    5  A    between atoms: C_7  and  C_9
REMARK    6  A    between atoms: N_15  and  C_16
REMARK    7  A    between atoms: C_16  and  C_17
REMARK                            x       y       z     vdW  Elec       q    Type
REMARK                         _______ _______ _______ _____ _____    ______ ____
ROOT
ATOM      1  C   UNL     1       6.387  -5.695  28.365  0.00  0.00    +0.111 C 
ENDROOT
BRANCH   1   2
ATOM      2  N   UNL     1       7.524  -5.806  27.435  0.00  0.00    -0.240 NA
ATOM      3  H   UNL     1       7.296  -6.522  26.732  0.00  0.00    +0.144 HD
BRANCH   2   4
ATOM      4  N   UNL     1       7.711  -4.595  26.736  0.00  0.00    -0.247 N 
ATOM      5  H   UNL     1       7.022  -3.859  26.855  0.00  0.00    +0.169 HD
ATOM      6  C   UNL     1       8.778  -4.472  25.855  0.00  0.00    +0.258 C 
ATOM      7  O   UNL     1       9.570  -5.383  25.623  0.00  0.00    -0.269 OA
BRANCH   6   8
ATOM      8  C   UNL     1       8.907  -3.170  25.151  0.00  0.00    +0.041 A 
ATOM      9  C   UNL     1       8.070  -2.124  25.541  0.00  0.00    +0.033 A 
ATOM     10  C   UNL     1       8.199  -0.912  24.890  0.00  0.00    +0.111 A 
ATOM     11  N   UNL     1       9.084  -0.689  23.895  0.00  0.00    -0.263 NA
ATOM     12  C   UNL     1       9.864  -1.725  23.521  0.00  0.00    +0.111 A 
ATOM     13  C   UNL     1       9.815  -2.977  24.110  0.00  0.00    +0.033 A 
ENDBRANCH   6   8
ENDBRANCH   2   4
ENDBRANCH   1   2
BRANCH   1  14
ATOM     14  C   UNL     1       5.351  -6.763  28.045  0.00  0.00    +0.112 C 
BRANCH  14  16
ATOM     15  O   UNL     1       3.519  -5.722  26.896  0.00  0.00    -0.276 OA
ATOM     16  C   UNL     1       4.561  -6.367  26.819  0.00  0.00    +0.215 C 
ATOM     17  N   UNL     1       5.127  -6.766  25.633  0.00  0.00    -0.311 N 
ATOM     18  H   UNL     1       6.032  -7.218  25.635  0.00  0.00    +0.149 HD
BRANCH  17  19
ATOM     19  C   UNL     1       4.532  -6.471  24.348  0.00  0.00    +0.139 C 
BRANCH  19  20
ATOM     20  C   UNL     1       5.328  -5.410  23.635  0.00  0.00    -0.030 A 
ATOM     21  C   UNL     1       6.480  -5.758  22.915  0.00  0.00    +0.005 A 
ATOM     22  C   UNL     1       7.194  -4.787  22.213  0.00  0.00    +0.000 A 
ATOM     23  C   UNL     1       6.761  -3.463  22.217  0.00  0.00    +0.000 A 
ATOM     24  C   UNL     1       5.616  -3.105  22.927  0.00  0.00    +0.000 A 
ATOM     25  C   UNL     1       4.901  -4.075  23.633  0.00  0.00    +0.005 A 
ENDBRANCH  19  20
ENDBRANCH  17  19
ENDBRANCH  14  16
ENDBRANCH   1  14
TORSDOF 7
ENDMDL
MODEL 8
REMARK VINA RESULT:      -5.4      2.236      5.392
REMARK  Name = 
REMARK  7 active torsions:
REMARK  status: ('A' for Active; 'I' for Inactive)
REMARK    1  A    between atoms: C_2  and  C_3
REMARK    2  A    between atoms: C_3  and  C_4
REMARK    3  A    between atoms: C_4  and  N_5
REMARK    4  A    between atoms: N_5  and  N_6
REMARK    5  A    between atoms: C_7  and  C_9
REMARK    6  A    between atoms: N_15  and  C_16
REMARK    7  A    between atoms: C_16  and  C_17
REMARK                            x       y       z     vdW  Elec       q    Type
REMARK                         _______ _______ _______ _____ _____    ______ ____
ROOT
ATOM      1  C   UNL     1       7.434  -5.302  21.696  0.00  0.00    +0.111 C 
ENDROOT
BRANCH   1   2
ATOM      2  N   UNL     1       7.388  -4.601  22.991  0.00  0.00    -0.240 NA
ATOM      3  H   UNL     1       8.028  -5.079  23.639  0.00  0.00    +0.144 HD
BRANCH   2   4
ATOM      4  N   UNL     1       7.860  -3.278  22.854  0.00  0.00    -0.247 N 
ATOM      5  H   UNL     1       7.368  -2.655  22.221  0.00  0.00    +0.169 HD
ATOM      6  C   UNL     1       9.017  -2.893  23.520  0.00  0.00    +0.258 C 
ATOM      7  O   UNL     1       9.681  -3.659  24.215  0.00  0.00    -0.269 OA
BRANCH   6   8
ATOM      8  C   UNL     1       9.455  -1.488  23.322  0.00  0.00    +0.041 A 
ATOM      9  C   UNL     1       9.859  -0.759  24.440  0.00  0.00    +0.033 A 
ATOM     10  C   UNL     1      10.275   0.544  24.251  0.00  0.00    +0.111 A 
ATOM     11  N   UNL     1      10.304   1.152  23.046  0.00  0.00    -0.263 NA
ATOM     12  C   UNL     1       9.884   0.433  21.984  0.00  0.00    +0.111 A 
ATOM     13  C   UNL     1       9.452  -0.880  22.066  0.00  0.00    +0.033 A 
ENDBRANCH   6   8
ENDBRANCH   2   4
ENDBRANCH   1   2
BRANCH   1  14
ATOM     14  C   UNL     1       6.119  -6.030  21.455  0.00  0.00    +0.112 C 
BRANCH  14  16
ATOM     15  O   UNL     1       4.470  -4.692  22.572  0.00  0.00    -0.276 OA
ATOM     16  C   UNL     1       5.143  -5.718  22.567  0.00  0.00    +0.215 C 
ATOM     17  N   UNL     1       5.066  -6.689  23.534  0.00  0.00    -0.311 N 
ATOM     18  H   UNL     1       5.584  -7.551  23.424  0.00  0.00    +0.149 HD
BRANCH  17  19
ATOM     19  C   UNL     1       4.181  -6.585  24.673  0.00  0.00    +0.139 C 
BRANCH  19  20
ATOM     20  C   UNL     1       4.970  -6.315  25.926  0.00  0.00    -0.030 A 
ATOM     21  C   UNL     1       4.556  -6.858  27.150  0.00  0.00    +0.005 A 
ATOM     22  C   UNL     1       5.310  -6.651  28.306  0.00  0.00    +0.000 A 
ATOM     23  C   UNL     1       6.486  -5.907  28.249  0.00  0.00    +0.000 A 
ATOM     24  C   UNL     1       6.909  -5.363  27.036  0.00  0.00    +0.000 A 
ATOM     25  C   UNL     1       6.155  -5.567  25.879  0.00  0.00    +0.005 A 
ENDBRANCH  19  20
ENDBRANCH  17  19
ENDBRANCH  14  16
ENDBRANCH   1  14
TORSDOF 7
ENDMDL
MODEL 9
REMARK VINA RESULT:      -5.4      2.530      6.033
REMARK  Name = 
REMARK  7 active torsions:
REMARK  status: ('A' for Active; 'I' for Inactive)
REMARK    1  A    between atoms: C_2  and  C_3
REMARK    2  A    between atoms: C_3  and  C_4
REMARK    3  A    between atoms: C_4  and  N_5
REMARK    4  A    between atoms: N_5  and  N_6
REMARK    5  A    between atoms: C_7  and  C_9
REMARK    6  A    between atoms: N_15  and  C_16
REMARK    7  A    between atoms: C_16  and  C_17
REMARK                            x       y       z     vdW  Elec       q    Type
REMARK                         _______ _______ _______ _____ _____    ______ ____
ROOT
ATOM      1  C   UNL     1       6.568  -5.351  21.665  0.00  0.00    +0.111 C 
ENDROOT
BRANCH   1   2
ATOM      2  N   UNL     1       5.579  -6.062  22.494  0.00  0.00    -0.240 NA
ATOM      3  H   UNL     1       5.747  -7.073  22.399  0.00  0.00    +0.144 HD
BRANCH   2   4
ATOM      4  N   UNL     1       5.758  -5.746  23.857  0.00  0.00    -0.247 N 
ATOM      5  H   UNL     1       6.408  -5.003  24.098  0.00  0.00    +0.169 HD
ATOM      6  C   UNL     1       5.109  -6.501  24.825  0.00  0.00    +0.258 C 
ATOM      7  O   UNL     1       4.393  -7.464  24.560  0.00  0.00    -0.269 OA
BRANCH   6   8
ATOM      8  C   UNL     1       5.351  -6.112  26.238  0.00  0.00    +0.041 A 
ATOM      9  C   UNL     1       6.076  -4.948  26.487  0.00  0.00    +0.033 A 
ATOM     10  C   UNL     1       6.292  -4.585  27.803  0.00  0.00    +0.111 A 
ATOM     11  N   UNL     1       5.845  -5.300  28.858  0.00  0.00    -0.263 NA
ATOM     12  C   UNL     1       5.166  -6.435  28.589  0.00  0.00    +0.111 A 
ATOM     13  C   UNL     1       4.895  -6.884  27.308  0.00  0.00    +0.033 A 
ENDBRANCH   6   8
ENDBRANCH   2   4
ENDBRANCH   1   2
BRANCH   1  14
ATOM     14  C   UNL     1       6.661  -3.896  22.106  0.00  0.00    +0.112 C 
BRANCH  14  16
ATOM     15  O   UNL     1       8.425  -4.483  23.623  0.00  0.00    -0.276 OA
ATOM     16  C   UNL     1       7.962  -3.660  22.839  0.00  0.00    +0.215 C 
ATOM     17  N   UNL     1       8.575  -2.472  22.526  0.00  0.00    -0.311 N 
ATOM     18  H   UNL     1       8.184  -1.879  21.806  0.00  0.00    +0.149 HD
BRANCH  17  19
ATOM     19  C   UNL     1       9.835  -2.069  23.109  0.00  0.00    +0.139 C 
BRANCH  19  20
ATOM     20  C   UNL     1       9.955  -0.568  23.108  0.00  0.00    -0.030 A 
ATOM     21  C   UNL     1      10.303   0.112  24.283  0.00  0.00    +0.005 A 
ATOM     22  C   UNL     1      10.463   1.498  24.277  0.00  0.00    +0.000 A 
ATOM     23  C   UNL     1      10.285   2.216  23.097  0.00  0.00    +0.000 A 
ATOM     24  C   UNL     1       9.940   1.551  21.921  0.00  0.00    +0.000 A 
ATOM     25  C   UNL     1       9.777   0.164  21.925  0.00  0.00    +0.005 A 
ENDBRANCH  19  20
ENDBRANCH  17  19
ENDBRANCH  14  16
ENDBRANCH   1  14
TORSDOF 7
ENDMDL
