MODEL 1
REMARK VINA RESULT:      -6.2      0.000      0.000
REMARK  Name = 
REMARK  4 active torsions:
REMARK  status: ('A' for Active; 'I' for Inactive)
REMARK    1  A    between atoms: N_1  and  C_2
REMARK    2  A    between atoms: C_5  and  S_8
REMARK    3  A    between atoms: S_8  and  N_11
REMARK    4  A    between atoms: N_11  and  C_12
REMARK                            x       y       z     vdW  Elec       q    Type
REMARK                         _______ _______ _______ _____ _____    ______ ____
ROOT
ATOM      1  S   UNL     1       9.040  -2.222  23.697  0.00  0.00    +0.073 S 
ATOM      2  O   UNL     1       8.101  -2.120  24.798  0.00  0.00    -0.150 OA
ATOM      3  O   UNL     1      10.169  -3.126  23.774  0.00  0.00    -0.150 OA
ENDROOT
BRANCH   1   7
ATOM      4  C   UNL     1      10.372   2.113  23.032  0.00  0.00    +0.025 A 
ATOM      5  C   UNL     1      10.621   1.476  24.253  0.00  0.00    +0.024 A 
ATOM      6  C   UNL     1      10.245   0.143  24.457  0.00  0.00    +0.030 A 
ATOM      7  C   UNL     1       9.667  -0.578  23.409  0.00  0.00    +0.109 A 
ATOM      8  C   UNL     1       9.471   0.027  22.163  0.00  0.00    +0.030 A 
ATOM      9  C   UNL     1       9.850   1.361  21.975  0.00  0.00    +0.024 A 
BRANCH   4  10
ATOM     10  N   UNL     1      10.837   3.416  22.809  0.00  0.00    -0.358 N 
ATOM     11  H   UNL     1      10.339   4.125  23.340  0.00  0.00    +0.142 HD
ATOM     12  H   UNL     1      10.904   3.660  21.824  0.00  0.00    +0.142 HD
ENDBRANCH   4  10
ENDBRANCH   1   7
BRANCH   1  13
ATOM     13  N   UNL     1       8.123  -2.588  22.333  0.00  0.00    -0.199 N 
ATOM     14  H   UNL     1       8.727  -2.833  21.555  0.00  0.00    +0.175 HD
BRANCH  13  15
ATOM     15  C   UNL     1       7.120  -3.557  22.497  0.00  0.00    +0.138 A 
ATOM     16  N   UNL     1       5.897  -3.021  22.639  0.00  0.00    -0.239 NA
ATOM     17  C   UNL     1       4.883  -3.897  22.817  0.00  0.00    +0.113 A 
ATOM     18  C   UNL     1       5.049  -5.273  22.879  0.00  0.00    +0.020 A 
ATOM     19  C   UNL     1       6.333  -5.788  22.731  0.00  0.00    +0.005 A 
ATOM     20  C   UNL     1       7.396  -4.913  22.520  0.00  0.00    +0.045 A 
ENDBRANCH  13  15
ENDBRANCH   1  13
TORSDOF 4
ENDMDL
MODEL 2
REMARK VINA RESULT:      -6.1      2.149      2.291
REMARK  Name = 
REMARK  4 active torsions:
REMARK  status: ('A' for Active; 'I' for Inactive)
REMARK    1  A    between atoms: N_1  and  C_2
REMARK    2  A    between atoms: C_5  and  S_8
REMARK    3  A    between atoms: S_8  and  N_11
REMARK    4  A    between atoms: N_11  and  C_12
REMARK                            x       y       z     vdW  Elec       q    Type
REMARK                         _______ _______ _______ _____ _____    ______ ____
ROOT
ATOM      1  S   UNL     1       9.089  -2.121  23.388  0.00  0.00    +0.073 S 
ATOM      2  O   UNL     1      10.194  -2.954  23.823  0.00  0.00    -0.150 OA
ATOM      3  O   UNL     1       8.360  -2.440  22.177  0.00  0.00    -0.150 OA
ENDROOT
BRANCH   1   7
ATOM      4  C   UNL     1      10.467   2.238  23.049  0.00  0.00    +0.025 A 
ATOM      5  C   UNL     1      10.707   1.509  24.219  0.00  0.00    +0.024 A 
ATOM      6  C   UNL     1      10.317   0.169  24.323  0.00  0.00    +0.030 A 
ATOM      7  C   UNL     1       9.734  -0.467  23.224  0.00  0.00    +0.109 A 
ATOM      8  C   UNL     1       9.546   0.231  22.026  0.00  0.00    +0.030 A 
ATOM      9  C   UNL     1       9.939   1.571  21.938  0.00  0.00    +0.024 A 
BRANCH   4  10
ATOM     10  N   UNL     1      10.945   3.548  22.923  0.00  0.00    -0.358 N 
ATOM     11  H   UNL     1      10.519   4.203  23.573  0.00  0.00    +0.142 HD
ATOM     12  H   UNL     1      10.926   3.899  21.969  0.00  0.00    +0.142 HD
ENDBRANCH   4  10
ENDBRANCH   1   7
BRANCH   1  13
ATOM     13  N   UNL     1       8.018  -2.050  24.684  0.00  0.00    -0.199 N 
ATOM     14  H   UNL     1       7.203  -1.495  24.440  0.00  0.00    +0.175 HD
BRANCH  13  15
ATOM     15  C   UNL     1       7.624  -3.279  25.237  0.00  0.00    +0.138 A 
ATOM     16  N   UNL     1       6.621  -3.857  24.558  0.00  0.00    -0.239 NA
ATOM     17  C   UNL     1       6.179  -5.038  25.044  0.00  0.00    +0.113 A 
ATOM     18  C   UNL     1       6.684  -5.645  26.184  0.00  0.00    +0.020 A 
ATOM     19  C   UNL     1       7.722  -5.012  26.861  0.00  0.00    +0.005 A 
ATOM     20  C   UNL     1       8.217  -3.806  26.371  0.00  0.00    +0.045 A 
ENDBRANCH  13  15
ENDBRANCH   1  13
TORSDOF 4
ENDMDL
MODEL 3
REMARK VINA RESULT:      -6.1      0.153      1.179
REMARK  Name = 
REMARK  4 active torsions:
REMARK  status: ('A' for Active; 'I' for Inactive)
REMARK    1  A    between atoms: N_1  and  C_2
REMARK    2  A    between atoms: C_5  and  S_8
REMARK    3  A    between atoms: S_8  and  N_11
REMARK    4  A    between atoms: N_11  and  C_12
REMARK                            x       y       z     vdW  Elec       q    Type
REMARK                         _______ _______ _______ _____ _____    ______ ____
ROOT
ATOM      1  S   UNL     1       8.963  -2.238  23.661  0.00  0.00    +0.073 S 
ATOM      2  O   UNL     1       8.026  -2.274  24.767  0.00  0.00    -0.150 OA
ATOM      3  O   UNL     1      10.177  -3.028  23.700  0.00  0.00    -0.150 OA
ENDROOT
BRANCH   1   7
ATOM      4  C   UNL     1      10.437   2.058  23.041  0.00  0.00    +0.025 A 
ATOM      5  C   UNL     1       9.860   1.349  21.981  0.00  0.00    +0.024 A 
ATOM      6  C   UNL     1       9.379   0.047  22.167  0.00  0.00    +0.030 A 
ATOM      7  C   UNL     1       9.423  -0.530  23.439  0.00  0.00    +0.109 A 
ATOM      8  C   UNL     1       9.940   0.191  24.521  0.00  0.00    +0.030 A 
ATOM      9  C   UNL     1      10.418   1.491  24.319  0.00  0.00    +0.024 A 
BRANCH   4  10
ATOM     10  N   UNL     1      10.828   3.392  22.866  0.00  0.00    -0.358 N 
ATOM     11  H   UNL     1      10.071   4.005  22.574  0.00  0.00    +0.142 HD
ATOM     12  H   UNL     1      11.649   3.501  22.277  0.00  0.00    +0.142 HD
ENDBRANCH   4  10
ENDBRANCH   1   7
BRANCH   1  13
ATOM     13  N   UNL     1       8.079  -2.638  22.286  0.00  0.00    -0.199 N 
ATOM     14  H   UNL     1       8.703  -2.868  21.517  0.00  0.00    +0.175 HD
BRANCH  13  15
ATOM     15  C   UNL     1       7.104  -3.638  22.439  0.00  0.00    +0.138 A 
ATOM     16  N   UNL     1       5.867  -3.139  22.584  0.00  0.00    -0.239 NA
ATOM     17  C   UNL     1       4.878  -4.045  22.752  0.00  0.00    +0.113 A 
ATOM     18  C   UNL     1       5.084  -5.416  22.802  0.00  0.00    +0.020 A 
ATOM     19  C   UNL     1       6.382  -5.893  22.651  0.00  0.00    +0.005 A 
ATOM     20  C   UNL     1       7.420  -4.985  22.450  0.00  0.00    +0.045 A 
ENDBRANCH  13  15
ENDBRANCH   1  13
TORSDOF 4
ENDMDL
MODEL 4
REMARK VINA RESULT:      -6.0      1.739      6.222
REMARK  Name = 
REMARK  4 active torsions:
REMARK  status: ('A' for Active; 'I' for Inactive)
REMARK    1  A    between atoms: N_1  and  C_2
REMARK    2  A    between atoms: C_5  and  S_8
REMARK    3  A    between atoms: S_8  and  N_11
REMARK    4  A    between atoms: N_11  and  C_12
REMARK                            x       y       z     vdW  Elec       q    Type
REMARK                         _______ _______ _______ _____ _____    ______ ____
ROOT
ATOM      1  S   UNL     1       8.343  -2.138  24.731  0.00  0.00    +0.073 S 
ATOM      2  O   UNL     1       8.665  -2.836  25.961  0.00  0.00    -0.150 OA
ATOM      3  O   UNL     1       7.517  -0.948  24.756  0.00  0.00    -0.150 OA
ENDROOT
BRANCH   1   7
ATOM      4  C   UNL     1       6.559  -5.145  21.767  0.00  0.00    +0.025 A 
ATOM      5  C   UNL     1       7.413  -5.579  22.787  0.00  0.00    +0.024 A 
ATOM      6  C   UNL     1       7.940  -4.674  23.715  0.00  0.00    +0.030 A 
ATOM      7  C   UNL     1       7.563  -3.330  23.660  0.00  0.00    +0.109 A 
ATOM      8  C   UNL     1       6.659  -2.893  22.684  0.00  0.00    +0.030 A 
ATOM      9  C   UNL     1       6.143  -3.810  21.762  0.00  0.00    +0.024 A 
BRANCH   4  10
ATOM     10  N   UNL     1       5.964  -6.073  20.902  0.00  0.00    -0.358 N 
ATOM     11  H   UNL     1       5.827  -5.723  19.958  0.00  0.00    +0.142 HD
ATOM     12  H   UNL     1       5.116  -6.491  21.276  0.00  0.00    +0.142 HD
ENDBRANCH   4  10
ENDBRANCH   1   7
BRANCH   1  13
ATOM     13  N   UNL     1       9.815  -1.782  23.996  0.00  0.00    -0.199 N 
ATOM     14  H   UNL     1      10.030  -2.472  23.281  0.00  0.00    +0.175 HD
BRANCH  13  15
ATOM     15  C   UNL     1       9.957  -0.484  23.480  0.00  0.00    +0.138 A 
ATOM     16  N   UNL     1      10.443   0.383  24.383  0.00  0.00    -0.239 NA
ATOM     17  C   UNL     1      10.592   1.658  23.960  0.00  0.00    +0.113 A 
ATOM     18  C   UNL     1      10.256   2.097  22.687  0.00  0.00    +0.020 A 
ATOM     19  C   UNL     1       9.754   1.167  21.782  0.00  0.00    +0.005 A 
ATOM     20  C   UNL     1       9.612  -0.160  22.180  0.00  0.00    +0.045 A 
ENDBRANCH  13  15
ENDBRANCH   1  13
TORSDOF 4
ENDMDL
MODEL 5
REMARK VINA RESULT:      -6.0      2.661      6.184
REMARK  Name = 
REMARK  4 active torsions:
REMARK  status: ('A' for Active; 'I' for Inactive)
REMARK    1  A    between atoms: N_1  and  C_2
REMARK    2  A    between atoms: C_5  and  S_8
REMARK    3  A    between atoms: S_8  and  N_11
REMARK    4  A    between atoms: N_11  and  C_12
REMARK                            x       y       z     vdW  Elec       q    Type
REMARK                         _______ _______ _______ _____ _____    ______ ____
ROOT
ATOM      1  S   UNL     1       9.081  -2.396  24.354  0.00  0.00    +0.073 S 
ATOM      2  O   UNL     1      10.251  -3.128  23.909  0.00  0.00    -0.150 OA
ATOM      3  O   UNL     1       9.219  -1.253  25.233  0.00  0.00    -0.150 OA
ENDROOT
BRANCH   1   7
ATOM      4  C   UNL     1       6.494  -5.665  26.259  0.00  0.00    +0.025 A 
ATOM      5  C   UNL     1       7.592  -5.141  26.950  0.00  0.00    +0.024 A 
ATOM      6  C   UNL     1       8.371  -4.121  26.390  0.00  0.00    +0.030 A 
ATOM      7  C   UNL     1       8.014  -3.581  25.153  0.00  0.00    +0.109 A 
ATOM      8  C   UNL     1       6.881  -4.052  24.480  0.00  0.00    +0.030 A 
ATOM      9  C   UNL     1       6.113  -5.072  25.051  0.00  0.00    +0.024 A 
BRANCH   4  10
ATOM     10  N   UNL     1       5.667  -6.618  26.869  0.00  0.00    -0.358 N 
ATOM     11  H   UNL     1       4.986  -6.219  27.509  0.00  0.00    +0.142 HD
ATOM     12  H   UNL     1       6.178  -7.387  27.295  0.00  0.00    +0.142 HD
ENDBRANCH   4  10
ENDBRANCH   1   7
BRANCH   1  13
ATOM     13  N   UNL     1       8.260  -1.934  22.960  0.00  0.00    -0.199 N 
ATOM     14  H   UNL     1       7.277  -2.185  23.027  0.00  0.00    +0.175 HD
BRANCH  13  15
ATOM     15  C   UNL     1       8.395  -0.591  22.572  0.00  0.00    +0.138 A 
ATOM     16  N   UNL     1       7.277   0.124  22.776  0.00  0.00    -0.239 NA
ATOM     17  C   UNL     1       7.330   1.424  22.410  0.00  0.00    +0.113 A 
ATOM     18  C   UNL     1       8.441   2.023  21.834  0.00  0.00    +0.020 A 
ATOM     19  C   UNL     1       9.578   1.246  21.636  0.00  0.00    +0.005 A 
ATOM     20  C   UNL     1       9.564  -0.091  22.026  0.00  0.00    +0.045 A 
ENDBRANCH  13  15
ENDBRANCH   1  13
TORSDOF 4
ENDMDL
MODEL 6
REMARK VINA RESULT:      -6.0      2.726      6.347
REMARK  Name = 
REMARK  4 active torsions:
REMARK  status: ('A' for Active; 'I' for Inactive)
REMARK    1  A    between atoms: N_1  and  C_2
REMARK    2  A    between atoms: C_5  and  S_8
REMARK    3  A    between atoms: S_8  and  N_11
REMARK    4  A    between atoms: N_11  and  C_12
REMARK                            x       y       z     vdW  Elec       q    Type
REMARK                         _______ _______ _______ _____ _____    ______ ____
ROOT
ATOM      1  S   UNL     1       7.751  -2.201  23.024  0.00  0.00    +0.073 S 
ATOM      2  O   UNL     1       7.171  -0.999  23.591  0.00  0.00    -0.150 OA
ATOM      3  O   UNL     1       7.166  -2.817  21.851  0.00  0.00    -0.150 OA
ENDROOT
BRANCH   1   7
ATOM      4  C   UNL     1       7.637  -5.140  26.540  0.00  0.00    +0.025 A 
ATOM      5  C   UNL     1       6.788  -5.319  25.441  0.00  0.00    +0.024 A 
ATOM      6  C   UNL     1       6.836  -4.445  24.349  0.00  0.00    +0.030 A 
ATOM      7  C   UNL     1       7.781  -3.416  24.329  0.00  0.00    +0.109 A 
ATOM      8  C   UNL     1       8.677  -3.264  25.393  0.00  0.00    +0.030 A 
ATOM      9  C   UNL     1       8.617  -4.145  26.478  0.00  0.00    +0.024 A 
BRANCH   4  10
ATOM     10  N   UNL     1       7.645  -6.075  27.583  0.00  0.00    -0.358 N 
ATOM     11  H   UNL     1       6.820  -6.669  27.608  0.00  0.00    +0.142 HD
ATOM     12  H   UNL     1       7.842  -5.667  28.494  0.00  0.00    +0.142 HD
ENDBRANCH   4  10
ENDBRANCH   1   7
BRANCH   1  13
ATOM     13  N   UNL     1       9.367  -1.842  22.721  0.00  0.00    -0.199 N 
ATOM     14  H   UNL     1       9.622  -2.122  21.778  0.00  0.00    +0.175 HD
BRANCH  13  15
ATOM     15  C   UNL     1       9.768  -0.517  22.961  0.00  0.00    +0.138 A 
ATOM     16  N   UNL     1       9.605   0.277  21.892  0.00  0.00    -0.239 NA
ATOM     17  C   UNL     1       9.986   1.565  22.046  0.00  0.00    +0.113 A 
ATOM     18  C   UNL     1      10.537   2.076  23.212  0.00  0.00    +0.020 A 
ATOM     19  C   UNL     1      10.692   1.218  24.297  0.00  0.00    +0.005 A 
ATOM     20  C   UNL     1      10.285  -0.108  24.178  0.00  0.00    +0.045 A 
ENDBRANCH  13  15
ENDBRANCH   1  13
TORSDOF 4
ENDMDL
MODEL 7
REMARK VINA RESULT:      -5.9      2.823      6.331
REMARK  Name = 
REMARK  4 active torsions:
REMARK  status: ('A' for Active; 'I' for Inactive)
REMARK    1  A    between atoms: N_1  and  C_2
REMARK    2  A    between atoms: C_5  and  S_8
REMARK    3  A    between atoms: S_8  and  N_11
REMARK    4  A    between atoms: N_11  and  C_12
REMARK                            x       y       z     vdW  Elec       q    Type
REMARK                         _______ _______ _______ _____ _____    ______ ____
ROOT
ATOM      1  S   UNL     1       8.531  -2.472  23.121  0.00  0.00    +0.073 S 
ATOM      2  O   UNL     1       7.741  -2.988  22.020  0.00  0.00    -0.150 OA
ATOM      3  O   UNL     1       9.973  -2.384  23.014  0.00  0.00    -0.150 OA
ENDROOT
BRANCH   1   7
ATOM      4  C   UNL     1       7.646  -5.303  26.616  0.00  0.00    +0.025 A 
ATOM      5  C   UNL     1       8.826  -4.551  26.597  0.00  0.00    +0.024 A 
ATOM      6  C   UNL     1       9.093  -3.661  25.550  0.00  0.00    +0.030 A 
ATOM      7  C   UNL     1       8.143  -3.478  24.541  0.00  0.00    +0.109 A 
ATOM      8  C   UNL     1       6.931  -4.176  24.581  0.00  0.00    +0.030 A 
ATOM      9  C   UNL     1       6.680  -5.063  25.633  0.00  0.00    +0.024 A 
BRANCH   4  10
ATOM     10  N   UNL     1       7.347  -6.118  27.715  0.00  0.00    -0.358 N 
ATOM     11  H   UNL     1       6.508  -6.678  27.594  0.00  0.00    +0.142 HD
ATOM     12  H   UNL     1       7.342  -5.620  28.601  0.00  0.00    +0.142 HD
ENDBRANCH   4  10
ENDBRANCH   1   7
BRANCH   1  13
ATOM     13  N   UNL     1       7.903  -0.951  23.475  0.00  0.00    -0.199 N 
ATOM     14  H   UNL     1       7.512  -0.938  24.413  0.00  0.00    +0.175 HD
BRANCH  13  15
ATOM     15  C   UNL     1       8.768   0.140  23.291  0.00  0.00    +0.138 A 
ATOM     16  N   UNL     1       9.259   0.614  24.447  0.00  0.00    -0.239 NA
ATOM     17  C   UNL     1      10.089   1.677  24.348  0.00  0.00    +0.113 A 
ATOM     18  C   UNL     1      10.424   2.289  23.149  0.00  0.00    +0.020 A 
ATOM     19  C   UNL     1       9.891   1.769  21.973  0.00  0.00    +0.005 A 
ATOM     20  C   UNL     1       9.053   0.658  22.040  0.00  0.00    +0.045 A 
ENDBRANCH  13  15
ENDBRANCH   1  13
TORSDOF 4
ENDMDL
MODEL 8
REMARK VINA RESULT:      -5.8      2.985      6.548
REMARK  Name = 
REMARK  4 active torsions:
REMARK  status: ('A' for Active; 'I' for Inactive)
REMARK    1  A    between atoms: N_1  and  C_2
REMARK    2  A    between atoms: C_5  and  S_8
REMARK    3  A    between atoms: S_8  and  N_11
REMARK    4  A    between atoms: N_11  and  C_12
REMARK                            x       y       z     vdW  Elec       q    Type
REMARK                         _______ _______ _______ _____ _____    ______ ____
ROOT
ATOM      1  S   UNL     1       9.489  -1.778  23.741  0.00  0.00    +0.073 S 
ATOM      2  O   UNL     1       8.272  -1.231  23.173  0.00  0.00    -0.150 OA
ATOM      3  O   UNL     1      10.508  -2.349  22.884  0.00  0.00    -0.150 OA
ENDROOT
BRANCH   1   7
ATOM      4  C   UNL     1       7.967  -5.062  26.554  0.00  0.00    +0.025 A 
ATOM      5  C   UNL     1       9.008  -5.326  25.656  0.00  0.00    +0.024 A 
ATOM      6  C   UNL     1       9.500  -4.323  24.814  0.00  0.00    +0.030 A 
ATOM      7  C   UNL     1       8.987  -3.027  24.911  0.00  0.00    +0.109 A 
ATOM      8  C   UNL     1       7.990  -2.733  25.848  0.00  0.00    +0.030 A 
ATOM      9  C   UNL     1       7.507  -3.747  26.682  0.00  0.00    +0.024 A 
BRANCH   4  10
ATOM     10  N   UNL     1       7.548  -6.048  27.457  0.00  0.00    -0.358 N 
ATOM     11  H   UNL     1       7.421  -6.963  27.034  0.00  0.00    +0.142 HD
ATOM     12  H   UNL     1       6.740  -5.774  28.011  0.00  0.00    +0.142 HD
ENDBRANCH   4  10
ENDBRANCH   1   7
BRANCH   1  13
ATOM     13  N   UNL     1      10.164  -0.549  24.672  0.00  0.00    -0.199 N 
ATOM     14  H   UNL     1      11.176  -0.633  24.690  0.00  0.00    +0.175 HD
BRANCH  13  15
ATOM     15  C   UNL     1       9.789   0.763  24.341  0.00  0.00    +0.138 A 
ATOM     16  N   UNL     1      10.491   1.260  23.310  0.00  0.00    -0.239 NA
ATOM     17  C   UNL     1      10.194   2.527  22.946  0.00  0.00    +0.113 A 
ATOM     18  C   UNL     1       9.245   3.314  23.582  0.00  0.00    +0.020 A 
ATOM     19  C   UNL     1       8.540   2.763  24.648  0.00  0.00    +0.005 A 
ATOM     20  C   UNL     1       8.806   1.450  25.031  0.00  0.00    +0.045 A 
ENDBRANCH  13  15
ENDBRANCH   1  13
TORSDOF 4
ENDMDL
MODEL 9
REMARK VINA RESULT:      -5.8      1.982      6.637
REMARK  Name = 
REMARK  4 active torsions:
REMARK  status: ('A' for Active; 'I' for Inactive)
REMARK    1  A    between atoms: N_1  and  C_2
REMARK    2  A    between atoms: C_5  and  S_8
REMARK    3  A    between atoms: S_8  and  N_11
REMARK    4  A    between atoms: N_11  and  C_12
REMARK                            x       y       z     vdW  Elec       q    Type
REMARK                         _______ _______ _______ _____ _____    ______ ____
ROOT
ATOM      1  S   UNL     1       8.838  -2.874  23.575  0.00  0.00    +0.073 S 
ATOM      2  O   UNL     1       8.762  -2.275  22.257  0.00  0.00    -0.150 OA
ATOM      3  O   UNL     1      10.088  -3.424  24.062  0.00  0.00    -0.150 OA
ENDROOT
BRANCH   1   7
ATOM      4  C   UNL     1       5.468  -5.980  23.652  0.00  0.00    +0.025 A 
ATOM      5  C   UNL     1       6.152  -5.709  22.461  0.00  0.00    +0.024 A 
ATOM      6  C   UNL     1       7.203  -4.784  22.433  0.00  0.00    +0.030 A 
ATOM      7  C   UNL     1       7.612  -4.168  23.618  0.00  0.00    +0.109 A 
ATOM      8  C   UNL     1       6.978  -4.477  24.827  0.00  0.00    +0.030 A 
ATOM      9  C   UNL     1       5.928  -5.402  24.839  0.00  0.00    +0.024 A 
BRANCH   4  10
ATOM     10  N   UNL     1       4.482  -6.975  23.687  0.00  0.00    -0.358 N 
ATOM     11  H   UNL     1       3.826  -6.928  22.912  0.00  0.00    +0.142 HD
ATOM     12  H   UNL     1       4.005  -7.043  24.582  0.00  0.00    +0.142 HD
ENDBRANCH   4  10
ENDBRANCH   1   7
BRANCH   1  13
ATOM     13  N   UNL     1       8.284  -1.706  24.653  0.00  0.00    -0.199 N 
ATOM     14  H   UNL     1       8.390  -2.029  25.611  0.00  0.00    +0.175 HD
BRANCH  13  15
ATOM     15  C   UNL     1       8.824  -0.417  24.509  0.00  0.00    +0.138 A 
ATOM     16  N   UNL     1       7.905   0.494  24.153  0.00  0.00    -0.239 NA
ATOM     17  C   UNL     1       8.357   1.756  23.980  0.00  0.00    +0.113 A 
ATOM     18  C   UNL     1       9.685   2.131  24.129  0.00  0.00    +0.020 A 
ATOM     19  C   UNL     1      10.606   1.155  24.497  0.00  0.00    +0.005 A 
ATOM     20  C   UNL     1      10.167  -0.150  24.707  0.00  0.00    +0.045 A 
ENDBRANCH  13  15
ENDBRANCH   1  13
TORSDOF 4
ENDMDL
