MODEL 1
REMARK VINA RESULT:      -6.4      0.000      0.000
REMARK  Name = 
REMARK  9 active torsions:
REMARK  status: ('A' for Active; 'I' for Inactive)
REMARK    1  A    between atoms: C_2  and  C_3
REMARK    2  A    between atoms: C_2  and  C_7
REMARK    3  A    between atoms: C_2  and  C_12
REMARK    4  A    between atoms: C_3  and  C_4
REMARK    5  A    between atoms: C_4  and  C_5
REMARK    6  A    between atoms: C_5  and  C_6
REMARK    7  A    between atoms: C_7  and  N_8
REMARK    8  A    between atoms: N_8  and  O_9
REMARK    9  A    between atoms: C_18  and  C_20
REMARK                            x       y       z     vdW  Elec       q    Type
REMARK                         _______ _______ _______ _____ _____    ______ ____
ROOT
ATOM      1  C   UNL     1       6.521  -5.076  25.300  0.00  0.00    +0.221 C 
ATOM      2  N   UNL     1       6.445  -4.965  23.928  0.00  0.00    -0.290 N 
ATOM      3  C   UNL     1       7.656  -4.934  23.104  0.00  0.00    +0.162 C 
ATOM      4  C   UNL     1       7.207  -5.498  21.741  0.00  0.00    +0.033 C 
ATOM      5  C   UNL     1       5.702  -5.739  21.862  0.00  0.00    +0.021 C 
ATOM      6  C   UNL     1       5.272  -4.940  23.075  0.00  0.00    +0.108 C 
ATOM      7  O   UNL     1       7.614  -5.104  25.868  0.00  0.00    -0.275 OA
ENDROOT
BRANCH   3   8
ATOM      8  C   UNL     1       8.162  -3.526  22.959  0.00  0.00    +0.217 A 
ATOM      9  O   UNL     1       8.959  -3.048  23.968  0.00  0.00    -0.438 OA
ATOM     10  C   UNL     1       9.335  -1.812  23.531  0.00  0.00    +0.155 A 
ATOM     11  C   UNL     1      10.161  -0.900  24.177  0.00  0.00    +0.048 A 
ATOM     12  C   UNL     1      10.418   0.289  23.483  0.00  0.00    +0.004 A 
ATOM     13  C   UNL     1       9.869   0.526  22.215  0.00  0.00    +0.002 A 
ATOM     14  C   UNL     1       9.030  -0.416  21.601  0.00  0.00    +0.031 A 
ATOM     15  C   UNL     1       8.761  -1.607  22.287  0.00  0.00    +0.110 A 
ATOM     16  N   UNL     1       7.999  -2.693  21.942  0.00  0.00    -0.212 NA
ENDBRANCH   3   8
BRANCH   1  17
ATOM     17  C   UNL     1       5.213  -5.222  26.087  0.00  0.00    +0.095 C 
BRANCH  17  18
ATOM     18  C   UNL     1       5.236  -6.434  27.038  0.00  0.00    +0.152 C 
BRANCH  18  19
ATOM     19  N   UNL     1       5.818  -6.199  28.354  0.00  0.00    -0.186 N 
ATOM     20  C   UNL     1       5.204  -6.753  29.468  0.00  0.00    +0.352 C 
ATOM     21  O   UNL     1       4.065  -7.202  29.519  0.00  0.00    -0.277 OA
BRANCH  19  22
ATOM     22  O   UNL     1       7.225  -6.348  28.382  0.00  0.00    -0.293 OA
ATOM     23  H   UNL     1       7.486  -5.514  28.818  0.00  0.00    +0.242 HD
ENDBRANCH  19  22
ENDBRANCH  18  19
ENDBRANCH  17  18
BRANCH  17  24
ATOM     24  C   UNL     1       4.862  -3.935  26.867  0.00  0.00    +0.014 C 
BRANCH  24  25
ATOM     25  C   UNL     1       4.199  -2.843  26.022  0.00  0.00    +0.001 C 
BRANCH  25  26
ATOM     26  C   UNL     1       5.049  -1.574  25.990  0.00  0.00    -0.003 C 
ATOM     27  C   UNL     1       5.745  -1.415  24.648  0.00  0.00    +0.004 C 
ENDBRANCH  25  26
ENDBRANCH  24  25
ENDBRANCH  17  24
ENDBRANCH   1  17
TORSDOF 8
ENDMDL
MODEL 2
REMARK VINA RESULT:      -6.3      3.257      7.463
REMARK  Name = 
REMARK  9 active torsions:
REMARK  status: ('A' for Active; 'I' for Inactive)
REMARK    1  A    between atoms: C_2  and  C_3
REMARK    2  A    between atoms: C_2  and  C_7
REMARK    3  A    between atoms: C_2  and  C_12
REMARK    4  A    between atoms: C_3  and  C_4
REMARK    5  A    between atoms: C_4  and  C_5
REMARK    6  A    between atoms: C_5  and  C_6
REMARK    7  A    between atoms: C_7  and  N_8
REMARK    8  A    between atoms: N_8  and  O_9
REMARK    9  A    between atoms: C_18  and  C_20
REMARK                            x       y       z     vdW  Elec       q    Type
REMARK                         _______ _______ _______ _____ _____    ______ ____
ROOT
ATOM      1  C   UNL     1       9.540  -0.368  23.703  0.00  0.00    +0.221 C 
ATOM      2  N   UNL     1       8.725  -0.857  24.703  0.00  0.00    -0.290 N 
ATOM      3  C   UNL     1       8.926  -2.200  25.252  0.00  0.00    +0.162 C 
ATOM      4  C   UNL     1       8.377  -2.113  26.690  0.00  0.00    +0.033 C 
ATOM      5  C   UNL     1       7.806  -0.702  26.836  0.00  0.00    +0.021 C 
ATOM      6  C   UNL     1       7.653  -0.191  25.418  0.00  0.00    +0.108 C 
ATOM      7  O   UNL     1      10.426  -1.071  23.216  0.00  0.00    -0.275 OA
ENDROOT
BRANCH   3   8
ATOM      8  C   UNL     1       8.165  -3.219  24.451  0.00  0.00    +0.217 A 
ATOM      9  O   UNL     1       6.852  -3.423  24.798  0.00  0.00    -0.438 OA
ATOM     10  C   UNL     1       6.402  -4.310  23.865  0.00  0.00    +0.155 A 
ATOM     11  C   UNL     1       5.123  -4.843  23.752  0.00  0.00    +0.048 A 
ATOM     12  C   UNL     1       4.917  -5.708  22.670  0.00  0.00    +0.004 A 
ATOM     13  C   UNL     1       5.946  -6.004  21.766  0.00  0.00    +0.002 A 
ATOM     14  C   UNL     1       7.227  -5.452  21.921  0.00  0.00    +0.031 A 
ATOM     15  C   UNL     1       7.449  -4.589  23.002  0.00  0.00    +0.110 A 
ATOM     16  N   UNL     1       8.571  -3.910  23.396  0.00  0.00    -0.212 NA
ENDBRANCH   3   8
BRANCH   1  17
ATOM     17  C   UNL     1       9.346   1.087  23.260  0.00  0.00    +0.095 C 
BRANCH  17  18
ATOM     18  C   UNL     1      10.448   2.015  23.808  0.00  0.00    +0.152 C 
BRANCH  18  19
ATOM     19  N   UNL     1      10.344   3.419  23.426  0.00  0.00    -0.186 N 
ATOM     20  C   UNL     1       9.555   4.265  24.191  0.00  0.00    +0.352 C 
ATOM     21  O   UNL     1       8.706   3.925  25.007  0.00  0.00    -0.277 OA
BRANCH  19  22
ATOM     22  O   UNL     1      11.587   4.001  23.082  0.00  0.00    -0.293 OA
ATOM     23  H   UNL     1      12.190   3.252  23.247  0.00  0.00    +0.242 HD
ENDBRANCH  19  22
ENDBRANCH  18  19
ENDBRANCH  17  18
BRANCH  17  24
ATOM     24  C   UNL     1       9.252   1.215  21.724  0.00  0.00    +0.014 C 
BRANCH  24  25
ATOM     25  C   UNL     1       7.942   1.827  21.218  0.00  0.00    +0.001 C 
BRANCH  25  26
ATOM     26  C   UNL     1       6.936   2.000  22.355  0.00  0.00    -0.003 C 
ATOM     27  C   UNL     1       6.343   3.400  22.351  0.00  0.00    +0.004 C 
ENDBRANCH  25  26
ENDBRANCH  24  25
ENDBRANCH  17  24
ENDBRANCH   1  17
TORSDOF 8
ENDMDL
MODEL 3
REMARK VINA RESULT:      -6.2      3.709      6.374
REMARK  Name = 
REMARK  9 active torsions:
REMARK  status: ('A' for Active; 'I' for Inactive)
REMARK    1  A    between atoms: C_2  and  C_3
REMARK    2  A    between atoms: C_2  and  C_7
REMARK    3  A    between atoms: C_2  and  C_12
REMARK    4  A    between atoms: C_3  and  C_4
REMARK    5  A    between atoms: C_4  and  C_5
REMARK    6  A    between atoms: C_5  and  C_6
REMARK    7  A    between atoms: C_7  and  N_8
REMARK    8  A    between atoms: N_8  and  O_9
REMARK    9  A    between atoms: C_18  and  C_20
REMARK                            x       y       z     vdW  Elec       q    Type
REMARK                         _______ _______ _______ _____ _____    ______ ____
ROOT
ATOM      1  C   UNL     1       7.325  -1.153  23.820  0.00  0.00    +0.221 C 
ATOM      2  N   UNL     1       7.754  -0.482  24.946  0.00  0.00    -0.290 N 
ATOM      3  C   UNL     1       6.985   0.636  25.497  0.00  0.00    +0.162 C 
ATOM      4  C   UNL     1       7.334   0.638  26.999  0.00  0.00    +0.033 C 
ATOM      5  C   UNL     1       8.378  -0.463  27.188  0.00  0.00    +0.021 C 
ATOM      6  C   UNL     1       8.896  -0.757  25.795  0.00  0.00    +0.108 C 
ATOM      7  O   UNL     1       6.308  -0.793  23.224  0.00  0.00    -0.275 OA
ENDROOT
BRANCH   3   8
ATOM      8  C   UNL     1       7.395   1.931  24.853  0.00  0.00    +0.217 A 
ATOM      9  O   UNL     1       6.668   2.337  23.763  0.00  0.00    -0.438 OA
ATOM     10  C   UNL     1       7.194   3.556  23.453  0.00  0.00    +0.155 A 
ATOM     11  C   UNL     1       6.806   4.410  22.428  0.00  0.00    +0.048 A 
ATOM     12  C   UNL     1       7.493   5.629  22.357  0.00  0.00    +0.004 A 
ATOM     13  C   UNL     1       8.504   5.951  23.273  0.00  0.00    +0.002 A 
ATOM     14  C   UNL     1       8.873   5.056  24.289  0.00  0.00    +0.031 A 
ATOM     15  C   UNL     1       8.198   3.831  24.368  0.00  0.00    +0.110 A 
ATOM     16  N   UNL     1       8.334   2.782  25.239  0.00  0.00    -0.212 NA
ENDBRANCH   3   8
BRANCH   1  17
ATOM     17  C   UNL     1       8.116  -2.386  23.368  0.00  0.00    +0.095 C 
BRANCH  17  18
ATOM     18  C   UNL     1       7.236  -3.650  23.299  0.00  0.00    +0.152 C 
BRANCH  18  19
ATOM     19  N   UNL     1       6.668  -3.958  21.992  0.00  0.00    -0.186 N 
ATOM     20  C   UNL     1       6.655  -5.276  21.560  0.00  0.00    +0.352 C 
ATOM     21  O   UNL     1       7.312  -6.199  22.028  0.00  0.00    -0.277 OA
BRANCH  19  22
ATOM     22  O   UNL     1       5.444  -3.295  21.739  0.00  0.00    -0.293 OA
ATOM     23  H   UNL     1       5.703  -2.716  20.997  0.00  0.00    +0.242 HD
ENDBRANCH  19  22
ENDBRANCH  18  19
ENDBRANCH  17  18
BRANCH  17  24
ATOM     24  C   UNL     1       8.827  -2.153  22.017  0.00  0.00    +0.014 C 
BRANCH  24  25
ATOM     25  C   UNL     1       9.902  -1.061  22.047  0.00  0.00    +0.001 C 
BRANCH  25  26
ATOM     26  C   UNL     1       9.410   0.217  21.370  0.00  0.00    -0.003 C 
ATOM     27  C   UNL     1       9.940   1.451  22.084  0.00  0.00    +0.004 C 
ENDBRANCH  25  26
ENDBRANCH  24  25
ENDBRANCH  17  24
ENDBRANCH   1  17
TORSDOF 8
ENDMDL
MODEL 4
REMARK VINA RESULT:      -6.2      1.884      2.287
REMARK  Name = 
REMARK  9 active torsions:
REMARK  status: ('A' for Active; 'I' for Inactive)
REMARK    1  A    between atoms: C_2  and  C_3
REMARK    2  A    between atoms: C_2  and  C_7
REMARK    3  A    between atoms: C_2  and  C_12
REMARK    4  A    between atoms: C_3  and  C_4
REMARK    5  A    between atoms: C_4  and  C_5
REMARK    6  A    between atoms: C_5  and  C_6
REMARK    7  A    between atoms: C_7  and  N_8
REMARK    8  A    between atoms: N_8  and  O_9
REMARK    9  A    between atoms: C_18  and  C_20
REMARK                            x       y       z     vdW  Elec       q    Type
REMARK                         _______ _______ _______ _____ _____    ______ ____
ROOT
ATOM      1  C   UNL     1       5.980  -5.314  25.144  0.00  0.00    +0.221 C 
ATOM      2  N   UNL     1       6.225  -5.149  23.797  0.00  0.00    -0.290 N 
ATOM      3  C   UNL     1       7.583  -5.252  23.258  0.00  0.00    +0.162 C 
ATOM      4  C   UNL     1       7.383  -5.706  21.798  0.00  0.00    +0.033 C 
ATOM      5  C   UNL     1       5.870  -5.750  21.576  0.00  0.00    +0.021 C 
ATOM      6  C   UNL     1       5.283  -4.941  22.714  0.00  0.00    +0.108 C 
ATOM      7  O   UNL     1       6.908  -5.505  25.932  0.00  0.00    -0.275 OA
ENDROOT
BRANCH   3   8
ATOM      8  C   UNL     1       8.277  -3.919  23.311  0.00  0.00    +0.217 A 
ATOM      9  O   UNL     1       8.205  -3.139  22.185  0.00  0.00    -0.438 OA
ATOM     10  C   UNL     1       8.828  -1.982  22.548  0.00  0.00    +0.155 A 
ATOM     11  C   UNL     1       9.022  -0.845  21.772  0.00  0.00    +0.048 A 
ATOM     12  C   UNL     1       9.663   0.226  22.409  0.00  0.00    +0.004 A 
ATOM     13  C   UNL     1      10.073   0.139  23.746  0.00  0.00    +0.002 A 
ATOM     14  C   UNL     1       9.868  -1.032  24.492  0.00  0.00    +0.031 A 
ATOM     15  C   UNL     1       9.234  -2.112  23.866  0.00  0.00    +0.110 A 
ATOM     16  N   UNL     1       8.899  -3.355  24.336  0.00  0.00    -0.212 NA
ENDBRANCH   3   8
BRANCH   1  17
ATOM     17  C   UNL     1       4.523  -5.311  25.619  0.00  0.00    +0.095 C 
BRANCH  17  18
ATOM     18  C   UNL     1       4.119  -6.647  26.274  0.00  0.00    +0.152 C 
BRANCH  18  19
ATOM     19  N   UNL     1       3.273  -7.519  25.468  0.00  0.00    -0.186 N 
ATOM     20  C   UNL     1       1.914  -7.254  25.392  0.00  0.00    +0.352 C 
ATOM     21  O   UNL     1       1.275  -6.524  26.142  0.00  0.00    -0.277 OA
BRANCH  19  22
ATOM     22  O   UNL     1       3.833  -7.838  24.208  0.00  0.00    -0.293 OA
ATOM     23  H   UNL     1       4.685  -8.228  24.482  0.00  0.00    +0.242 HD
ENDBRANCH  19  22
ENDBRANCH  18  19
ENDBRANCH  17  18
BRANCH  17  24
ATOM     24  C   UNL     1       4.230  -4.135  26.577  0.00  0.00    +0.014 C 
BRANCH  24  25
ATOM     25  C   UNL     1       3.870  -2.821  25.876  0.00  0.00    +0.001 C 
BRANCH  25  26
ATOM     26  C   UNL     1       5.017  -1.816  25.960  0.00  0.00    -0.003 C 
ATOM     27  C   UNL     1       5.662  -1.608  24.599  0.00  0.00    +0.004 C 
ENDBRANCH  25  26
ENDBRANCH  24  25
ENDBRANCH  17  24
ENDBRANCH   1  17
TORSDOF 8
ENDMDL
MODEL 5
REMARK VINA RESULT:      -6.1      4.004      8.385
REMARK  Name = 
REMARK  9 active torsions:
REMARK  status: ('A' for Active; 'I' for Inactive)
REMARK    1  A    between atoms: C_2  and  C_3
REMARK    2  A    between atoms: C_2  and  C_7
REMARK    3  A    between atoms: C_2  and  C_12
REMARK    4  A    between atoms: C_3  and  C_4
REMARK    5  A    between atoms: C_4  and  C_5
REMARK    6  A    between atoms: C_5  and  C_6
REMARK    7  A    between atoms: C_7  and  N_8
REMARK    8  A    between atoms: N_8  and  O_9
REMARK    9  A    between atoms: C_18  and  C_20
REMARK                            x       y       z     vdW  Elec       q    Type
REMARK                         _______ _______ _______ _____ _____    ______ ____
ROOT
ATOM      1  C   UNL     1       9.579   1.426  24.439  0.00  0.00    +0.221 C 
ATOM      2  N   UNL     1       8.310   1.334  24.970  0.00  0.00    -0.290 N 
ATOM      3  C   UNL     1       8.065   0.612  26.220  0.00  0.00    +0.162 C 
ATOM      4  C   UNL     1       6.813   1.288  26.814  0.00  0.00    +0.033 C 
ATOM      5  C   UNL     1       6.369   2.327  25.785  0.00  0.00    +0.021 C 
ATOM      6  C   UNL     1       7.077   1.938  24.503  0.00  0.00    +0.108 C 
ATOM      7  O   UNL     1      10.529   0.860  24.982  0.00  0.00    -0.275 OA
ENDROOT
BRANCH   3   8
ATOM      8  C   UNL     1       7.807  -0.844  25.949  0.00  0.00    +0.217 A 
ATOM      9  O   UNL     1       8.749  -1.734  26.400  0.00  0.00    -0.438 OA
ATOM     10  C   UNL     1       8.217  -2.954  26.102  0.00  0.00    +0.155 A 
ATOM     11  C   UNL     1       8.768  -4.203  26.360  0.00  0.00    +0.048 A 
ATOM     12  C   UNL     1       7.986  -5.303  25.982  0.00  0.00    +0.004 A 
ATOM     13  C   UNL     1       6.730  -5.135  25.385  0.00  0.00    +0.002 A 
ATOM     14  C   UNL     1       6.213  -3.855  25.133  0.00  0.00    +0.031 A 
ATOM     15  C   UNL     1       6.986  -2.746  25.500  0.00  0.00    +0.110 A 
ATOM     16  N   UNL     1       6.744  -1.402  25.386  0.00  0.00    -0.212 NA
ENDBRANCH   3   8
BRANCH   1  17
ATOM     17  C   UNL     1       9.780   2.296  23.193  0.00  0.00    +0.095 C 
BRANCH  17  18
ATOM     18  C   UNL     1      10.841   3.393  23.411  0.00  0.00    +0.152 C 
BRANCH  18  19
ATOM     19  N   UNL     1      10.329   4.709  23.775  0.00  0.00    -0.186 N 
ATOM     20  C   UNL     1      11.207   5.782  23.821  0.00  0.00    +0.352 C 
ATOM     21  O   UNL     1      12.430   5.716  23.854  0.00  0.00    -0.277 OA
BRANCH  19  22
ATOM     22  O   UNL     1       9.110   5.035  23.135  0.00  0.00    -0.293 OA
ATOM     23  H   UNL     1       9.432   5.281  22.247  0.00  0.00    +0.242 HD
ENDBRANCH  19  22
ENDBRANCH  18  19
ENDBRANCH  17  18
BRANCH  17  24
ATOM     24  C   UNL     1      10.132   1.451  21.948  0.00  0.00    +0.014 C 
BRANCH  24  25
ATOM     25  C   UNL     1       9.083   0.396  21.582  0.00  0.00    +0.001 C 
BRANCH  25  26
ATOM     26  C   UNL     1       9.677  -1.011  21.620  0.00  0.00    -0.003 C 
ATOM     27  C   UNL     1       8.794  -1.956  22.419  0.00  0.00    +0.004 C 
ENDBRANCH  25  26
ENDBRANCH  24  25
ENDBRANCH  17  24
ENDBRANCH   1  17
TORSDOF 8
ENDMDL
MODEL 6
REMARK VINA RESULT:      -6.0      3.132      4.823
REMARK  Name = 
REMARK  9 active torsions:
REMARK  status: ('A' for Active; 'I' for Inactive)
REMARK    1  A    between atoms: C_2  and  C_3
REMARK    2  A    between atoms: C_2  and  C_7
REMARK    3  A    between atoms: C_2  and  C_12
REMARK    4  A    between atoms: C_3  and  C_4
REMARK    5  A    between atoms: C_4  and  C_5
REMARK    6  A    between atoms: C_5  and  C_6
REMARK    7  A    between atoms: C_7  and  N_8
REMARK    8  A    between atoms: N_8  and  O_9
REMARK    9  A    between atoms: C_18  and  C_20
REMARK                            x       y       z     vdW  Elec       q    Type
REMARK                         _______ _______ _______ _____ _____    ______ ____
ROOT
ATOM      1  C   UNL     1       8.628  -1.363  25.447  0.00  0.00    +0.221 C 
ATOM      2  N   UNL     1       8.738  -1.073  24.103  0.00  0.00    -0.290 N 
ATOM      3  C   UNL     1       9.745  -0.128  23.615  0.00  0.00    +0.162 C 
ATOM      4  C   UNL     1      10.028  -0.583  22.169  0.00  0.00    +0.033 C 
ATOM      5  C   UNL     1       9.070  -1.743  21.899  0.00  0.00    +0.021 C 
ATOM      6  C   UNL     1       8.015  -1.642  22.982  0.00  0.00    +0.108 C 
ATOM      7  O   UNL     1       9.344  -0.794  26.273  0.00  0.00    -0.275 OA
ENDROOT
BRANCH   3   8
ATOM      8  C   UNL     1       9.207   1.276  23.636  0.00  0.00    +0.217 A 
ATOM      9  O   UNL     1       8.468   1.672  22.550  0.00  0.00    -0.438 OA
ATOM     10  C   UNL     1       8.045   2.925  22.882  0.00  0.00    +0.155 A 
ATOM     11  C   UNL     1       7.246   3.776  22.127  0.00  0.00    +0.048 A 
ATOM     12  C   UNL     1       6.927   5.002  22.725  0.00  0.00    +0.004 A 
ATOM     13  C   UNL     1       7.390   5.331  24.006  0.00  0.00    +0.002 A 
ATOM     14  C   UNL     1       8.203   4.447  24.732  0.00  0.00    +0.031 A 
ATOM     15  C   UNL     1       8.535   3.221  24.143  0.00  0.00    +0.110 A 
ATOM     16  N   UNL     1       9.292   2.176  24.605  0.00  0.00    -0.212 NA
ENDBRANCH   3   8
BRANCH   1  17
ATOM     17  C   UNL     1       7.633  -2.449  25.873  0.00  0.00    +0.095 C 
BRANCH  17  18
ATOM     18  C   UNL     1       8.310  -3.579  26.674  0.00  0.00    +0.152 C 
BRANCH  18  19
ATOM     19  N   UNL     1       8.272  -4.902  26.062  0.00  0.00    -0.186 N 
ATOM     20  C   UNL     1       9.287  -5.268  25.190  0.00  0.00    +0.352 C 
ATOM     21  O   UNL     1      10.086  -4.511  24.650  0.00  0.00    -0.277 OA
BRANCH  19  22
ATOM     22  O   UNL     1       7.945  -5.934  26.973  0.00  0.00    -0.293 OA
ATOM     23  H   UNL     1       8.797  -6.042  27.437  0.00  0.00    +0.242 HD
ENDBRANCH  19  22
ENDBRANCH  18  19
ENDBRANCH  17  18
BRANCH  17  24
ATOM     24  C   UNL     1       6.446  -1.865  26.670  0.00  0.00    +0.014 C 
BRANCH  24  25
ATOM     25  C   UNL     1       5.272  -1.395  25.804  0.00  0.00    +0.001 C 
BRANCH  25  26
ATOM     26  C   UNL     1       5.034   0.105  25.960  0.00  0.00    -0.003 C 
ATOM     27  C   UNL     1       5.697   0.883  24.834  0.00  0.00    +0.004 C 
ENDBRANCH  25  26
ENDBRANCH  24  25
ENDBRANCH  17  24
ENDBRANCH   1  17
TORSDOF 8
ENDMDL
MODEL 7
REMARK VINA RESULT:      -5.9      2.607      7.054
REMARK  Name = 
REMARK  9 active torsions:
REMARK  status: ('A' for Active; 'I' for Inactive)
REMARK    1  A    between atoms: C_2  and  C_3
REMARK    2  A    between atoms: C_2  and  C_7
REMARK    3  A    between atoms: C_2  and  C_12
REMARK    4  A    between atoms: C_3  and  C_4
REMARK    5  A    between atoms: C_4  and  C_5
REMARK    6  A    between atoms: C_5  and  C_6
REMARK    7  A    between atoms: C_7  and  N_8
REMARK    8  A    between atoms: N_8  and  O_9
REMARK    9  A    between atoms: C_18  and  C_20
REMARK                            x       y       z     vdW  Elec       q    Type
REMARK                         _______ _______ _______ _____ _____    ______ ____
ROOT
ATOM      1  C   UNL     1       7.923  -2.415  23.573  0.00  0.00    +0.221 C 
ATOM      2  N   UNL     1       7.984  -3.331  24.601  0.00  0.00    -0.290 N 
ATOM      3  C   UNL     1       8.032  -4.770  24.329  0.00  0.00    +0.162 C 
ATOM      4  C   UNL     1       8.769  -5.366  25.545  0.00  0.00    +0.033 C 
ATOM      5  C   UNL     1       9.023  -4.196  26.496  0.00  0.00    +0.021 C 
ATOM      6  C   UNL     1       8.088  -3.099  26.029  0.00  0.00    +0.108 C 
ATOM      7  O   UNL     1       7.858  -2.789  22.401  0.00  0.00    -0.275 OA
ENDROOT
BRANCH   3   8
ATOM      8  C   UNL     1       6.643  -5.334  24.218  0.00  0.00    +0.217 A 
ATOM      9  O   UNL     1       6.133  -5.946  25.335  0.00  0.00    -0.438 OA
ATOM     10  C   UNL     1       4.857  -6.270  24.977  0.00  0.00    +0.155 A 
ATOM     11  C   UNL     1       3.895  -6.903  25.755  0.00  0.00    +0.048 A 
ATOM     12  C   UNL     1       2.643  -7.080  25.151  0.00  0.00    +0.004 A 
ATOM     13  C   UNL     1       2.395  -6.639  23.844  0.00  0.00    +0.002 A 
ATOM     14  C   UNL     1       3.398  -6.013  23.088  0.00  0.00    +0.031 A 
ATOM     15  C   UNL     1       4.656  -5.834  23.678  0.00  0.00    +0.110 A 
ATOM     16  N   UNL     1       5.803  -5.261  23.195  0.00  0.00    -0.212 NA
ENDBRANCH   3   8
BRANCH   1  17
ATOM     17  C   UNL     1       7.995  -0.925  23.927  0.00  0.00    +0.095 C 
BRANCH  17  18
ATOM     18  C   UNL     1       9.340  -0.292  23.518  0.00  0.00    +0.152 C 
BRANCH  18  19
ATOM     19  N   UNL     1       9.403   0.247  22.164  0.00  0.00    -0.186 N 
ATOM     20  C   UNL     1       9.994   1.485  21.962  0.00  0.00    +0.352 C 
ATOM     21  O   UNL     1      10.238   2.321  22.824  0.00  0.00    -0.277 OA
BRANCH  19  22
ATOM     22  O   UNL     1       9.800  -0.707  21.197  0.00  0.00    -0.293 OA
ATOM     23  H   UNL     1      10.398  -0.167  20.646  0.00  0.00    +0.242 HD
ENDBRANCH  19  22
ENDBRANCH  18  19
ENDBRANCH  17  18
BRANCH  17  24
ATOM     24  C   UNL     1       6.820  -0.128  23.318  0.00  0.00    +0.014 C 
BRANCH  24  25
ATOM     25  C   UNL     1       6.220   0.929  24.250  0.00  0.00    +0.001 C 
BRANCH  25  26
ATOM     26  C   UNL     1       6.663   2.335  23.851  0.00  0.00    -0.003 C 
ATOM     27  C   UNL     1       6.468   2.568  22.362  0.00  0.00    +0.004 C 
ENDBRANCH  25  26
ENDBRANCH  24  25
ENDBRANCH  17  24
ENDBRANCH   1  17
TORSDOF 8
ENDMDL
MODEL 8
REMARK VINA RESULT:      -5.9      2.893      6.877
REMARK  Name = 
REMARK  9 active torsions:
REMARK  status: ('A' for Active; 'I' for Inactive)
REMARK    1  A    between atoms: C_2  and  C_3
REMARK    2  A    between atoms: C_2  and  C_7
REMARK    3  A    between atoms: C_2  and  C_12
REMARK    4  A    between atoms: C_3  and  C_4
REMARK    5  A    between atoms: C_4  and  C_5
REMARK    6  A    between atoms: C_5  and  C_6
REMARK    7  A    between atoms: C_7  and  N_8
REMARK    8  A    between atoms: N_8  and  O_9
REMARK    9  A    between atoms: C_18  and  C_20
REMARK                            x       y       z     vdW  Elec       q    Type
REMARK                         _______ _______ _______ _____ _____    ______ ____
ROOT
ATOM      1  C   UNL     1       7.262  -2.473  23.422  0.00  0.00    +0.221 C 
ATOM      2  N   UNL     1       6.911  -3.764  23.088  0.00  0.00    -0.290 N 
ATOM      3  C   UNL     1       5.719  -4.038  22.282  0.00  0.00    +0.162 C 
ATOM      4  C   UNL     1       6.038  -5.366  21.566  0.00  0.00    +0.033 C 
ATOM      5  C   UNL     1       7.400  -5.813  22.096  0.00  0.00    +0.021 C 
ATOM      6  C   UNL     1       7.615  -5.003  23.359  0.00  0.00    +0.108 C 
ATOM      7  O   UNL     1       6.552  -1.524  23.091  0.00  0.00    -0.275 OA
ENDROOT
BRANCH   3   8
ATOM      8  C   UNL     1       4.508  -4.183  23.161  0.00  0.00    +0.217 A 
ATOM      9  O   UNL     1       3.559  -5.090  22.761  0.00  0.00    -0.438 OA
ATOM     10  C   UNL     1       2.645  -5.074  23.772  0.00  0.00    +0.155 A 
ATOM     11  C   UNL     1       1.480  -5.826  23.872  0.00  0.00    +0.048 A 
ATOM     12  C   UNL     1       0.735  -5.644  25.045  0.00  0.00    +0.004 A 
ATOM     13  C   UNL     1       1.155  -4.756  26.044  0.00  0.00    +0.002 A 
ATOM     14  C   UNL     1       2.333  -4.007  25.900  0.00  0.00    +0.031 A 
ATOM     15  C   UNL     1       3.085  -4.176  24.730  0.00  0.00    +0.110 A 
ATOM     16  N   UNL     1       4.258  -3.597  24.322  0.00  0.00    -0.212 NA
ENDBRANCH   3   8
BRANCH   1  17
ATOM     17  C   UNL     1       8.585  -2.253  24.166  0.00  0.00    +0.095 C 
BRANCH  17  18
ATOM     18  C   UNL     1       9.379  -1.057  23.604  0.00  0.00    +0.152 C 
BRANCH  18  19
ATOM     19  N   UNL     1       9.602  -1.064  22.163  0.00  0.00    -0.186 N 
ATOM     20  C   UNL     1       9.348   0.092  21.439  0.00  0.00    +0.352 C 
ATOM     21  O   UNL     1       8.695   1.057  21.820  0.00  0.00    -0.277 OA
BRANCH  19  22
ATOM     22  O   UNL     1      10.818  -1.682  21.785  0.00  0.00    -0.293 OA
ATOM     23  H   UNL     1      11.323  -0.909  21.469  0.00  0.00    +0.242 HD
ENDBRANCH  19  22
ENDBRANCH  18  19
ENDBRANCH  17  18
BRANCH  17  24
ATOM     24  C   UNL     1       8.372  -2.088  25.687  0.00  0.00    +0.014 C 
BRANCH  24  25
ATOM     25  C   UNL     1       8.410  -3.399  26.478  0.00  0.00    +0.001 C 
BRANCH  25  26
ATOM     26  C   UNL     1       7.006  -3.841  26.887  0.00  0.00    -0.003 C 
ATOM     27  C   UNL     1       6.950  -5.343  27.113  0.00  0.00    +0.004 C 
ENDBRANCH  25  26
ENDBRANCH  24  25
ENDBRANCH  17  24
ENDBRANCH   1  17
TORSDOF 8
ENDMDL
MODEL 9
REMARK VINA RESULT:      -5.8      2.357      6.861
REMARK  Name = 
REMARK  9 active torsions:
REMARK  status: ('A' for Active; 'I' for Inactive)
REMARK    1  A    between atoms: C_2  and  C_3
REMARK    2  A    between atoms: C_2  and  C_7
REMARK    3  A    between atoms: C_2  and  C_12
REMARK    4  A    between atoms: C_3  and  C_4
REMARK    5  A    between atoms: C_4  and  C_5
REMARK    6  A    between atoms: C_5  and  C_6
REMARK    7  A    between atoms: C_7  and  N_8
REMARK    8  A    between atoms: N_8  and  O_9
REMARK    9  A    between atoms: C_18  and  C_20
REMARK                            x       y       z     vdW  Elec       q    Type
REMARK                         _______ _______ _______ _____ _____    ______ ____
ROOT
ATOM      1  C   UNL     1       8.514  -2.454  23.673  0.00  0.00    +0.221 C 
ATOM      2  N   UNL     1       8.474  -3.453  24.622  0.00  0.00    -0.290 N 
ATOM      3  C   UNL     1       8.267  -4.851  24.238  0.00  0.00    +0.162 C 
ATOM      4  C   UNL     1       8.956  -5.662  25.355  0.00  0.00    +0.033 C 
ATOM      5  C   UNL     1       9.450  -4.635  26.374  0.00  0.00    +0.021 C 
ATOM      6  C   UNL     1       8.689  -3.365  26.054  0.00  0.00    +0.108 C 
ATOM      7  O   UNL     1       8.328  -2.710  22.483  0.00  0.00    -0.275 OA
ENDROOT
BRANCH   3   8
ATOM      8  C   UNL     1       6.799  -5.171  24.175  0.00  0.00    +0.217 A 
ATOM      9  O   UNL     1       6.211  -5.607  25.335  0.00  0.00    -0.438 OA
ATOM     10  C   UNL     1       4.892  -5.727  25.008  0.00  0.00    +0.155 A 
ATOM     11  C   UNL     1       3.848  -6.127  25.834  0.00  0.00    +0.048 A 
ATOM     12  C   UNL     1       2.575  -6.125  25.251  0.00  0.00    +0.004 A 
ATOM     13  C   UNL     1       2.384  -5.738  23.917  0.00  0.00    +0.002 A 
ATOM     14  C   UNL     1       3.466  -5.349  23.114  0.00  0.00    +0.031 A 
ATOM     15  C   UNL     1       4.746  -5.352  23.683  0.00  0.00    +0.110 A 
ATOM     16  N   UNL     1       5.967  -5.023  23.155  0.00  0.00    -0.212 NA
ENDBRANCH   3   8
BRANCH   1  17
ATOM     17  C   UNL     1       8.853  -1.031  24.135  0.00  0.00    +0.095 C 
BRANCH  17  18
ATOM     18  C   UNL     1       9.947  -0.381  23.266  0.00  0.00    +0.152 C 
BRANCH  18  19
ATOM     19  N   UNL     1       9.479   0.347  22.093  0.00  0.00    -0.186 N 
ATOM     20  C   UNL     1       9.928   1.643  21.884  0.00  0.00    +0.352 C 
ATOM     21  O   UNL     1      10.470   2.365  22.714  0.00  0.00    -0.277 OA
BRANCH  19  22
ATOM     22  O   UNL     1       9.491  -0.426  20.908  0.00  0.00    -0.293 OA
ATOM     23  H   UNL     1       9.190   0.236  20.257  0.00  0.00    +0.242 HD
ENDBRANCH  19  22
ENDBRANCH  18  19
ENDBRANCH  17  18
BRANCH  17  24
ATOM     24  C   UNL     1       7.601  -0.127  24.185  0.00  0.00    +0.014 C 
BRANCH  24  25
ATOM     25  C   UNL     1       6.927  -0.055  25.559  0.00  0.00    +0.001 C 
BRANCH  25  26
ATOM     26  C   UNL     1       5.445  -0.414  25.469  0.00  0.00    -0.003 C 
ATOM     27  C   UNL     1       5.256  -1.908  25.260  0.00  0.00    +0.004 C 
ENDBRANCH  25  26
ENDBRANCH  24  25
ENDBRANCH  17  24
ENDBRANCH   1  17
TORSDOF 8
ENDMDL
