MODEL 1
REMARK VINA RESULT:       0.4      0.000      0.000
REMARK  Name = 
REMARK  28 active torsions:
REMARK  status: ('A' for Active; 'I' for Inactive)
REMARK    1  A    between atoms: CG_4  and  OD_6
REMARK    2  A    between atoms: CA_11  and  CB_85
REMARK    3  A    between atoms: CA_16  and  N_61
REMARK    4  A    between atoms: C_18  and  N_57
REMARK    5  A    between atoms: C_25  and  O_27
REMARK    6  A    between atoms: C_28  and  C_30
REMARK    7  A    between atoms: CA_35  and  C_37
REMARK    8  A    between atoms: C_37  and  O_38
REMARK    9  A    between atoms: CA_42  and  C_47
REMARK   10  A    between atoms: C_47  and  O_49
REMARK   11  A    between atoms: C_47  and  C_50
REMARK   12  A    between atoms: C_50  and  C_51
REMARK   13  A    between atoms: N_57  and  C_58
REMARK   14  A    between atoms: C_58  and  C_59
REMARK   15  A    between atoms: C_59  and  N_60
REMARK   16  A    between atoms: C_62  and  C_64
REMARK   17  A    between atoms: C_67  and  C_70
REMARK   18  A    between atoms: C_73  and  O_74
REMARK   19  A    between atoms: O_74  and  C_75
REMARK   20  A    between atoms: C_75  and  C_76
REMARK   21  A    between atoms: C_76  and  C_77
REMARK   22  A    between atoms: C_77  and  C_78
REMARK   23  A    between atoms: C_78  and  C_79
REMARK   24  A    between atoms: C_79  and  C_80
REMARK   25  A    between atoms: C_80  and  C_81
REMARK   26  A    between atoms: C_81  and  C_82
REMARK   27  A    between atoms: CB_85  and  CG2_87
REMARK   28  A    between atoms: CB_85  and  OG1_88
REMARK                            x       y       z     vdW  Elec       q    Type
REMARK                         _______ _______ _______ _____ _____    ______ ____
ROOT
ATOM      1  CA  HYP A   3       9.490   1.399  23.473  0.00  0.00    +0.164 C 
ATOM      2  C   HYP A   3       8.914   0.720  22.170  0.00  0.00    +0.234 C 
ATOM      3  O   HYP A   3       9.663   0.317  21.279  0.00  0.00    -0.274 OA
ATOM      4  N   UNK A   1       7.530   0.628  21.966  0.00  0.00    -0.300 N 
ATOM      5  H   UNK A   1       7.299   0.234  21.062  0.00  0.00    +0.150 HD
ATOM      6  C   UNK A   1       6.378   0.818  22.931  0.00  0.00    +0.188 C 
ATOM      7  C   UNK A   1       7.079   0.696  24.219  0.00  0.00    +0.237 C 
ATOM      8  O   UNK A   1       7.606  -0.432  24.364  0.00  0.00    -0.274 OA
ATOM      9  N   UNK A   2       7.573   1.574  25.101  0.00  0.00    -0.300 N 
ATOM     10  H   UNK A   2       8.436   1.117  25.175  0.00  0.00    +0.150 HD
ATOM     11  C   UNK A   2       7.964   2.752  26.018  0.00  0.00    +0.185 C 
ATOM     12  C   UNK A   2       8.105   4.005  25.263  0.00  0.00    +0.239 C 
ATOM     13  O   UNK A   2       8.996   4.824  25.463  0.00  0.00    -0.273 OA
ATOM     14  N   UNK A   2       7.034   4.156  24.443  0.00  0.00    -0.285 N 
ATOM     15  C   UNK A   2       5.928   4.959  24.955  0.00  0.00    +0.190 C 
ATOM     16  C   UNK A   2       5.760   6.014  23.849  0.00  0.00    +0.148 C 
ATOM     17  C   UNK A   2       6.164   5.254  22.573  0.00  0.00    +0.034 C 
ATOM     18  C   UNK A   2       6.551   6.066  21.357  0.00  0.00    +0.012 C 
ATOM     19  C   UNK A   2       4.673   4.059  25.136  0.00  0.00    +0.236 C 
ATOM     20  O   UNK A   2       4.172   3.492  24.157  0.00  0.00    -0.274 OA
ATOM     21  N   UNK A   2       4.142   3.759  26.370  0.00  0.00    -0.312 N 
ATOM     22  H   UNK A   2       3.355   3.123  26.277  0.00  0.00    +0.149 HD
ATOM     23  C   UNK A   2       4.407   4.297  27.695  0.00  0.00    +0.123 C 
ATOM     24  C   UNK A   2       4.058   3.440  28.983  0.00  0.00    +0.073 C 
ATOM     25  C   UNK A   2       4.515   1.938  29.194  0.00  0.00    +0.052 C 
ATOM     26  C   UNK A   2       4.059   0.887  28.193  0.00  0.00    +0.161 C 
ATOM     27  C   UNK A   2       4.890   0.778  26.927  0.00  0.00    +0.234 C 
ATOM     28  O   UNK A   2       4.281   1.155  25.900  0.00  0.00    -0.274 OA
ATOM     29  N   UNK A   2       6.138   0.356  26.653  0.00  0.00    -0.300 N 
ATOM     30  H   UNK A   2       5.955   0.202  25.682  0.00  0.00    +0.150 HD
ATOM     31  C   UNK A   2       7.636  -0.353  26.898  0.00  0.00    +0.187 C 
ATOM     32  C   UNK A   2       9.385  -0.042  26.232  0.00  0.00    +0.239 C 
ATOM     33  O   UNK A   2      10.284  -0.412  27.011  0.00  0.00    -0.273 OA
ATOM     34  C   UNK A   2       7.354   4.473  23.056  0.00  0.00    +0.114 C 
ATOM     35  N   HYP A   3       9.937   0.652  24.905  0.00  0.00    -0.286 N 
ATOM     36  CD  HYP A   3      11.415   0.871  24.931  0.00  0.00    +0.140 C 
ATOM     37  CG  HYP A   3      11.861   1.747  23.714  0.00  0.00    +0.134 C 
ATOM     38  CB  HYP A   3      10.619   2.390  23.173  0.00  0.00    +0.065 C 
ENDROOT
BRANCH  26  39
ATOM     39  N   UNK A   2       3.898  -0.473  28.696  0.00  0.00    -0.300 N 
ATOM     40  H   UNK A   1       4.303  -1.223  28.139  0.00  0.00    +0.150 HD
ATOM     41  C   UNK A   0       2.940  -0.776  29.649  0.00  0.00    +0.245 C 
ATOM     42  O   UNK A   0       2.331   0.064  30.297  0.00  0.00    -0.270 OA
BRANCH  41  43
ATOM     43  C   UNK A   0       2.702  -2.227  29.888  0.00  0.00    +0.037 A 
ATOM     44  C   UNK A   0       1.457  -2.712  30.300  0.00  0.00    +0.013 A 
ATOM     45  C   UNK A   0       1.211  -4.084  30.359  0.00  0.00    +0.009 A 
ATOM     46  C   UNK A   0       2.209  -5.010  30.021  0.00  0.00    -0.018 A 
ATOM     47  C   UNK A   0       3.486  -4.500  29.701  0.00  0.00    +0.009 A 
ATOM     48  C   UNK A   0       3.738  -3.126  29.652  0.00  0.00    +0.013 A 
BRANCH  46  49
ATOM     49  C   UNK A   0       1.936  -6.460  29.951  0.00  0.00    -0.018 A 
ATOM     50  C   UNK A   0       0.769  -7.039  30.485  0.00  0.00    +0.012 A 
ATOM     51  C   UNK A   0       0.457  -8.388  30.266  0.00  0.00    +0.046 A 
ATOM     52  C   UNK A   0       1.301  -9.182  29.496  0.00  0.00    +0.121 A 
ATOM     53  C   UNK A   0       2.499  -8.638  29.031  0.00  0.00    +0.046 A 
ATOM     54  C   UNK A   0       2.815  -7.305  29.265  0.00  0.00    +0.012 A 
BRANCH  52  55
ATOM     55  O   UNK A   0       0.872 -10.460  29.229  0.00  0.00    -0.492 OA
BRANCH  55  56
ATOM     56  C   UNK A   0       0.458 -10.637  27.875  0.00  0.00    +0.229 C 
BRANCH  56  57
ATOM     57  C   UNK A   0       0.451  -9.329  27.109  0.00  0.00    +0.041 C 
BRANCH  57  58
ATOM     58  C   UNK A   0       1.267  -9.517  25.831  0.00  0.00    +0.003 C 
BRANCH  58  59
ATOM     59  C   UNK A   0       0.803  -8.575  24.734  0.00  0.00    +0.000 C 
BRANCH  59  60
ATOM     60  C   UNK A   0       0.982  -7.118  25.154  0.00  0.00    -0.000 C 
BRANCH  60  61
ATOM     61  C   UNK A   0       2.431  -6.863  25.560  0.00  0.00    -0.000 C 
BRANCH  61  62
ATOM     62  C   UNK A   0       3.141  -5.962  24.556  0.00  0.00    -0.003 C 
ATOM     63  C   UNK A   0       2.137  -5.191  23.716  0.00  0.00    +0.004 C 
ENDBRANCH  61  62
ENDBRANCH  60  61
ENDBRANCH  59  60
ENDBRANCH  58  59
ENDBRANCH  57  58
ENDBRANCH  56  57
ENDBRANCH  55  56
ENDBRANCH  52  55
ENDBRANCH  46  49
ENDBRANCH  41  43
ENDBRANCH  26  39
BRANCH  37  64
ATOM     64  OD  HYP A   3      12.806   2.756  24.084  0.00  0.00    -0.390 OA
ATOM     65  HD  HYP A   3      13.719   2.423  24.000  0.00  0.00    +0.210 HD
ENDBRANCH  37  64
BRANCH  31  66
ATOM     66  C   UNK A   2       7.276  -1.860  26.665  0.00  0.00    +0.141 C 
ATOM     67  C   UNK A   2       8.396  -2.829  26.932  0.00  0.00    +0.040 C 
BRANCH  66  68
ATOM     68  O   UNK A   2       6.153  -2.267  27.486  0.00  0.00    -0.390 OA
ATOM     69  H   UNK A   2       5.373  -1.810  27.109  0.00  0.00    +0.210 HD
ENDBRANCH  66  68
ENDBRANCH  31  66
BRANCH  24  70
ATOM     70  N   UNK A   2       4.633   4.104  30.190  0.00  0.00    -0.311 NA
ATOM     71  H   UNK A   2       5.393   3.518  30.543  0.00  0.00    +0.122 HD
BRANCH  70  72
ATOM     72  C   UNK A   2       5.183   5.449  29.980  0.00  0.00    +0.096 C 
BRANCH  72  73
ATOM     73  C   UNK A   2       6.649   5.538  30.450  0.00  0.00    +0.092 C 
BRANCH  73  74
ATOM     74  N   UNK A   2       7.405   4.326  30.113  0.00  0.00    -0.329 NA
ATOM     75  H   UNK A   2       7.242   4.097  29.133  0.00  0.00    +0.118 HD
ATOM     76  H   UNK A   2       8.401   4.529  30.176  0.00  0.00    +0.118 HD
ENDBRANCH  73  74
ENDBRANCH  72  73
ENDBRANCH  70  72
ENDBRANCH  24  70
BRANCH  16  77
ATOM     77  O   UNK A   2       6.670   7.107  24.039  0.00  0.00    -0.389 OA
ATOM     78  H   UNK A   2       6.433   7.597  24.845  0.00  0.00    +0.210 HD
ENDBRANCH  16  77
BRANCH  11  79
ATOM     79  C   UNK A   2       7.301   2.891  27.359  0.00  0.00    +0.187 C 
BRANCH  79  80
ATOM     80  O   UNK A   2       7.753   1.981  28.353  0.00  0.00    -0.393 OA
ATOM     81  H   UNK A   2       7.403   2.222  29.232  0.00  0.00    +0.209 HD
ENDBRANCH  79  80
ENDBRANCH  11  79
BRANCH   6  82
ATOM     82  C   UNK A   1       5.294  -0.375  22.879  0.00  0.00    +0.148 C 
BRANCH  82  83
ATOM     83  O   UNK A   1       5.029  -0.873  24.197  0.00  0.00    -0.389 OA
ATOM     84  H   UNK A   1       4.253  -0.419  24.591  0.00  0.00    +0.210 HD
ENDBRANCH  82  83
BRANCH  82  85
ATOM     85  C   UNK A   1       5.618  -1.673  22.055  0.00  0.00    +0.068 C 
BRANCH  85  86
ATOM     86  C   UNK A   1       6.430  -2.792  22.736  0.00  0.00    -0.045 A 
ATOM     87  C   UNK A   1       5.758  -3.963  23.144  0.00  0.00    +0.004 A 
ATOM     88  C   UNK A   1       6.446  -5.040  23.719  0.00  0.00    +0.000 A 
ATOM     89  C   UNK A   1       7.824  -4.975  23.897  0.00  0.00    +0.000 A 
ATOM     90  C   UNK A   1       8.507  -3.827  23.506  0.00  0.00    +0.000 A 
ATOM     91  C   UNK A   1       7.818  -2.746  22.938  0.00  0.00    +0.004 A 
ENDBRANCH  85  86
ENDBRANCH  82  85
ENDBRANCH   6  82
TORSDOF 25
ENDMDL
MODEL 2
REMARK VINA RESULT:       2.3      2.846     10.584
REMARK  Name = 
REMARK  28 active torsions:
REMARK  status: ('A' for Active; 'I' for Inactive)
REMARK    1  A    between atoms: CG_4  and  OD_6
REMARK    2  A    between atoms: CA_11  and  CB_85
REMARK    3  A    between atoms: CA_16  and  N_61
REMARK    4  A    between atoms: C_18  and  N_57
REMARK    5  A    between atoms: C_25  and  O_27
REMARK    6  A    between atoms: C_28  and  C_30
REMARK    7  A    between atoms: CA_35  and  C_37
REMARK    8  A    between atoms: C_37  and  O_38
REMARK    9  A    between atoms: CA_42  and  C_47
REMARK   10  A    between atoms: C_47  and  O_49
REMARK   11  A    between atoms: C_47  and  C_50
REMARK   12  A    between atoms: C_50  and  C_51
REMARK   13  A    between atoms: N_57  and  C_58
REMARK   14  A    between atoms: C_58  and  C_59
REMARK   15  A    between atoms: C_59  and  N_60
REMARK   16  A    between atoms: C_62  and  C_64
REMARK   17  A    between atoms: C_67  and  C_70
REMARK   18  A    between atoms: C_73  and  O_74
REMARK   19  A    between atoms: O_74  and  C_75
REMARK   20  A    between atoms: C_75  and  C_76
REMARK   21  A    between atoms: C_76  and  C_77
REMARK   22  A    between atoms: C_77  and  C_78
REMARK   23  A    between atoms: C_78  and  C_79
REMARK   24  A    between atoms: C_79  and  C_80
REMARK   25  A    between atoms: C_80  and  C_81
REMARK   26  A    between atoms: C_81  and  C_82
REMARK   27  A    between atoms: CB_85  and  CG2_87
REMARK   28  A    between atoms: CB_85  and  OG1_88
REMARK                            x       y       z     vdW  Elec       q    Type
REMARK                         _______ _______ _______ _____ _____    ______ ____
ROOT
ATOM      1  CA  HYP A   3       3.829  -6.280  24.830  0.00  0.00    +0.164 C 
ATOM      2  C   HYP A   3       5.235  -6.943  25.103  0.00  0.00    +0.234 C 
ATOM      3  O   HYP A   3       5.661  -7.849  24.386  0.00  0.00    -0.274 OA
ATOM      4  N   UNK A   1       5.998  -6.564  26.217  0.00  0.00    -0.300 N 
ATOM      5  H   UNK A   1       6.843  -7.115  26.311  0.00  0.00    +0.150 HD
ATOM      6  C   UNK A   1       5.869  -5.369  27.138  0.00  0.00    +0.188 C 
ATOM      7  C   UNK A   1       5.023  -4.486  26.321  0.00  0.00    +0.237 C 
ATOM      8  O   UNK A   1       5.578  -4.166  25.243  0.00  0.00    -0.274 OA
ATOM      9  N   UNK A   2       3.711  -4.222  26.281  0.00  0.00    -0.300 N 
ATOM     10  H   UNK A   2       3.650  -4.324  25.310  0.00  0.00    +0.150 HD
ATOM     11  C   UNK A   2       2.199  -3.994  26.489  0.00  0.00    +0.185 C 
ATOM     12  C   UNK A   2       1.565  -5.133  27.170  0.00  0.00    +0.239 C 
ATOM     13  O   UNK A   2       0.467  -5.583  26.865  0.00  0.00    -0.273 OA
ATOM     14  N   UNK A   2       2.316  -5.485  28.244  0.00  0.00    -0.285 N 
ATOM     15  C   UNK A   2       1.929  -4.909  29.528  0.00  0.00    +0.190 C 
ATOM     16  C   UNK A   2       1.753  -6.164  30.400  0.00  0.00    +0.148 C 
ATOM     17  C   UNK A   2       2.787  -7.145  29.821  0.00  0.00    +0.034 C 
ATOM     18  C   UNK A   2       2.610  -8.617  30.117  0.00  0.00    +0.012 C 
ATOM     19  C   UNK A   2       3.057  -3.967  30.036  0.00  0.00    +0.236 C 
ATOM     20  O   UNK A   2       4.185  -4.420  30.266  0.00  0.00    -0.274 OA
ATOM     21  N   UNK A   2       2.899  -2.603  30.139  0.00  0.00    -0.312 N 
ATOM     22  H   UNK A   2       3.762  -2.164  30.446  0.00  0.00    +0.149 HD
ATOM     23  C   UNK A   2       1.722  -1.755  30.040  0.00  0.00    +0.123 C 
ATOM     24  C   UNK A   2       1.880  -0.219  29.678  0.00  0.00    +0.073 C 
ATOM     25  C   UNK A   2       2.715   0.314  28.441  0.00  0.00    +0.052 C 
ATOM     26  C   UNK A   2       4.201  -0.005  28.369  0.00  0.00    +0.161 C 
ATOM     27  C   UNK A   2       4.555  -1.366  27.797  0.00  0.00    +0.234 C 
ATOM     28  O   UNK A   2       5.040  -2.149  28.645  0.00  0.00    -0.274 OA
ATOM     29  N   UNK A   2       4.476  -1.924  26.575  0.00  0.00    -0.300 N 
ATOM     30  H   UNK A   2       5.152  -2.634  26.772  0.00  0.00    +0.150 HD
ATOM     31  C   UNK A   2       4.249  -2.031  24.918  0.00  0.00    +0.187 C 
ATOM     32  C   UNK A   2       3.595  -3.370  23.745  0.00  0.00    +0.239 C 
ATOM     33  O   UNK A   2       3.103  -2.912  22.696  0.00  0.00    -0.273 OA
ATOM     34  C   UNK A   2       2.628  -6.906  28.344  0.00  0.00    +0.114 C 
ATOM     35  N   HYP A   3       3.493  -4.959  23.855  0.00  0.00    -0.286 N 
ATOM     36  CD  HYP A   3       2.681  -5.570  22.759  0.00  0.00    +0.140 C 
ATOM     37  CG  HYP A   3       2.432  -7.088  23.043  0.00  0.00    +0.134 C 
ATOM     38  CB  HYP A   3       2.746  -7.309  24.492  0.00  0.00    +0.065 C 
ENDROOT
BRANCH  26  39
ATOM     39  N   UNK A   2       5.047   0.963  27.679  0.00  0.00    -0.300 N 
ATOM     40  H   UNK A   1       6.048   0.775  27.668  0.00  0.00    +0.150 HD
ATOM     41  C   UNK A   0       4.592   2.239  27.395  0.00  0.00    +0.245 C 
ATOM     42  O   UNK A   0       3.420   2.581  27.477  0.00  0.00    -0.270 OA
BRANCH  41  43
ATOM     43  C   UNK A   0       5.625   3.205  26.927  0.00  0.00    +0.037 A 
ATOM     44  C   UNK A   0       6.857   3.339  27.576  0.00  0.00    +0.013 A 
ATOM     45  C   UNK A   0       7.870   4.126  27.027  0.00  0.00    +0.009 A 
ATOM     46  C   UNK A   0       7.673   4.814  25.821  0.00  0.00    -0.018 A 
ATOM     47  C   UNK A   0       6.390   4.742  25.234  0.00  0.00    +0.009 A 
ATOM     48  C   UNK A   0       5.371   3.962  25.787  0.00  0.00    +0.013 A 
BRANCH  46  49
ATOM     49  C   UNK A   0       8.767   5.549  25.154  0.00  0.00    -0.018 A 
ATOM     50  C   UNK A   0       9.879   6.054  25.856  0.00  0.00    +0.012 A 
ATOM     51  C   UNK A   0      10.978   6.605  25.183  0.00  0.00    +0.046 A 
ATOM     52  C   UNK A   0      10.994   6.648  23.793  0.00  0.00    +0.121 A 
ATOM     53  C   UNK A   0       9.864   6.224  23.093  0.00  0.00    +0.046 A 
ATOM     54  C   UNK A   0       8.767   5.695  23.763  0.00  0.00    +0.012 A 
BRANCH  52  55
ATOM     55  O   UNK A   0      12.152   7.094  23.202  0.00  0.00    -0.492 OA
BRANCH  55  56
ATOM     56  C   UNK A   0      13.075   6.043  22.922  0.00  0.00    +0.229 C 
BRANCH  56  57
ATOM     57  C   UNK A   0      12.419   4.897  22.179  0.00  0.00    +0.041 C 
BRANCH  57  58
ATOM     58  C   UNK A   0      12.061   3.810  23.192  0.00  0.00    +0.003 C 
BRANCH  58  59
ATOM     59  C   UNK A   0      10.813   3.053  22.774  0.00  0.00    +0.000 C 
BRANCH  59  60
ATOM     60  C   UNK A   0      10.264   2.224  23.933  0.00  0.00    -0.000 C 
BRANCH  60  61
ATOM     61  C   UNK A   0       9.158   1.297  23.438  0.00  0.00    -0.000 C 
BRANCH  61  62
ATOM     62  C   UNK A   0       9.380   0.892  21.984  0.00  0.00    -0.003 C 
ATOM     63  C   UNK A   0       8.054   0.709  21.265  0.00  0.00    +0.004 C 
ENDBRANCH  61  62
ENDBRANCH  60  61
ENDBRANCH  59  60
ENDBRANCH  58  59
ENDBRANCH  57  58
ENDBRANCH  56  57
ENDBRANCH  55  56
ENDBRANCH  52  55
ENDBRANCH  46  49
ENDBRANCH  41  43
ENDBRANCH  26  39
BRANCH  37  64
ATOM     64  OD  HYP A   3       1.082  -7.480  22.776  0.00  0.00    -0.390 OA
ATOM     65  HD  HYP A   3       1.056  -8.229  22.151  0.00  0.00    +0.210 HD
ENDBRANCH  37  64
BRANCH  31  66
ATOM     66  C   UNK A   2       5.657  -1.569  24.411  0.00  0.00    +0.141 C 
ATOM     67  C   UNK A   2       5.845  -1.629  22.919  0.00  0.00    +0.040 C 
BRANCH  66  68
ATOM     68  O   UNK A   2       5.947  -0.210  24.824  0.00  0.00    -0.390 OA
ATOM     69  H   UNK A   2       5.075   0.233  24.896  0.00  0.00    +0.210 HD
ENDBRANCH  66  68
ENDBRANCH  31  66
BRANCH  24  70
ATOM     70  N   UNK A   2       0.534   0.368  29.410  0.00  0.00    -0.311 NA
ATOM     71  H   UNK A   2      -0.061   0.180  30.220  0.00  0.00    +0.122 HD
BRANCH  70  72
ATOM     72  C   UNK A   2       0.503   1.817  29.175  0.00  0.00    +0.096 C 
BRANCH  72  73
ATOM     73  C   UNK A   2       1.738   2.514  29.779  0.00  0.00    +0.092 C 
BRANCH  73  74
ATOM     74  N   UNK A   2       1.666   3.974  29.636  0.00  0.00    -0.329 NA
ATOM     75  H   UNK A   2       0.955   4.202  28.942  0.00  0.00    +0.118 HD
ATOM     76  H   UNK A   2       1.327   4.375  30.508  0.00  0.00    +0.118 HD
ENDBRANCH  73  74
ENDBRANCH  72  73
ENDBRANCH  70  72
ENDBRANCH  24  70
BRANCH  16  77
ATOM     77  O   UNK A   2       0.443  -6.725  30.233  0.00  0.00    -0.389 OA
ATOM     78  H   UNK A   2       0.461  -7.401  29.534  0.00  0.00    +0.210 HD
ENDBRANCH  16  77
BRANCH  11  79
ATOM     79  C   UNK A   2       1.712  -2.643  26.929  0.00  0.00    +0.187 C 
BRANCH  79  80
ATOM     80  O   UNK A   2       1.567  -1.685  25.889  0.00  0.00    -0.393 OA
ATOM     81  H   UNK A   2       1.923  -0.817  26.160  0.00  0.00    +0.209 HD
ENDBRANCH  79  80
ENDBRANCH  11  79
BRANCH   6  82
ATOM     82  C   UNK A   1       7.261  -4.588  27.374  0.00  0.00    +0.148 C 
BRANCH  82  83
ATOM     83  O   UNK A   1       7.088  -3.178  27.174  0.00  0.00    -0.389 OA
ATOM     84  H   UNK A   1       6.553  -3.004  26.370  0.00  0.00    +0.210 HD
ENDBRANCH  82  83
BRANCH  82  85
ATOM     85  C   UNK A   1       8.500  -4.937  26.475  0.00  0.00    +0.068 C 
BRANCH  85  86
ATOM     86  C   UNK A   1       8.599  -4.291  25.079  0.00  0.00    -0.045 A 
ATOM     87  C   UNK A   1       9.491  -3.214  24.894  0.00  0.00    +0.004 A 
ATOM     88  C   UNK A   1       9.670  -2.618  23.637  0.00  0.00    +0.000 A 
ATOM     89  C   UNK A   1       8.965  -3.087  22.534  0.00  0.00    +0.000 A 
ATOM     90  C   UNK A   1       8.076  -4.146  22.694  0.00  0.00    +0.000 A 
ATOM     91  C   UNK A   1       7.891  -4.737  23.953  0.00  0.00    +0.004 A 
ENDBRANCH  85  86
ENDBRANCH  82  85
ENDBRANCH   6  82
TORSDOF 25
ENDMDL
