MODEL 1
REMARK VINA RESULT:      -7.7      0.000      0.000
REMARK  Name = 
REMARK  8 active torsions:
REMARK  status: ('A' for Active; 'I' for Inactive)
REMARK    1  A    between atoms: C_2  and  C_3
REMARK    2  A    between atoms: C_3  and  C_4
REMARK    3  A    between atoms: C_16  and  O_17
REMARK    4  A    between atoms: O_17  and  S_18
REMARK    5  A    between atoms: S_18  and  N_19
REMARK    6  A    between atoms: C_22  and  O_23
REMARK    7  A    between atoms: O_23  and  C_24
REMARK    8  A    between atoms: C_31  and  C_32
REMARK                            x       y       z     vdW  Elec       q    Type
REMARK                         _______ _______ _______ _____ _____    ______ ____
ROOT
ATOM      1  C   UNL     1       8.305   6.434  23.983  0.00  0.00    +0.009 C 
ATOM      2  C   UNL     1       7.807   4.738  23.580  0.00  0.00    -0.025 C 
ATOM      3  C   UNL     1       6.778   4.235  24.616  0.00  0.00    +0.012 C 
ATOM      4  C   UNL     1       9.216   4.080  23.420  0.00  0.00    -0.001 C 
ATOM      5  C   UNL     1       9.295   2.570  23.630  0.00  0.00    +0.000 C 
ATOM      6  C   UNL     1       8.544   1.719  22.543  0.00  0.00    +0.023 C 
ATOM      7  C   UNL     1       7.178   2.432  22.208  0.00  0.00    +0.009 C 
ATOM      8  C   UNL     1       8.701   0.187  22.933  0.00  0.00    -0.037 A 
ATOM      9  C   UNL     1       9.796  -0.180  23.761  0.00  0.00    -0.040 A 
ATOM     10  C   UNL     1      10.025  -1.499  24.191  0.00  0.00    +0.056 A 
ATOM     11  C   UNL     1       9.250  -2.557  23.765  0.00  0.00    +0.199 A 
ATOM     12  C   UNL     1       8.235  -2.285  22.835  0.00  0.00    +0.165 A 
ATOM     13  C   UNL     1      10.829   0.781  24.276  0.00  0.00    +0.036 C 
ATOM     14  C   UNL     1       7.960  -0.916  22.439  0.00  0.00    +0.053 A 
ATOM     15  C   UNL     1      10.753   2.115  23.601  0.00  0.00    +0.009 C 
ATOM     16  C   UNL     1      10.176   4.988  24.170  0.00  0.00    +0.005 C 
ATOM     17  C   UNL     1       7.192   4.099  22.210  0.00  0.00    +0.008 C 
ATOM     18  C   UNL     1       9.783   6.368  23.663  0.00  0.00    +0.005 C 
ENDROOT
BRANCH  12  19
ATOM     19  O   UNL     1       7.444  -3.233  22.214  0.00  0.00    -0.491 OA
ATOM     20  C   UNL     1       6.027  -3.035  22.170  0.00  0.00    +0.277 C 
ENDBRANCH  12  19
BRANCH  11  21
ATOM     21  O   UNL     1       9.569  -3.837  24.157  0.00  0.00    -0.330 OA
BRANCH  21  22
ATOM     22  S   UNL     1       8.774  -4.599  25.362  0.00  0.00    +0.189 S 
ATOM     23  O   UNL     1       7.535  -5.116  24.865  0.00  0.00    -0.119 OA
ATOM     24  O   UNL     1       8.883  -3.836  26.579  0.00  0.00    -0.119 OA
BRANCH  22  25
ATOM     25  N   UNL     1       9.738  -5.958  25.647  0.00  0.00    -0.174 NA
ATOM     26  H   UNL     1      10.027  -6.422  24.789  0.00  0.00    +0.147 HD
ATOM     27  H   UNL     1      10.457  -5.790  26.346  0.00  0.00    +0.147 HD
ENDBRANCH  22  25
ENDBRANCH  21  22
ENDBRANCH  11  21
BRANCH   1  28
ATOM     28  C   UNL     1       8.186   6.957  25.543  0.00  0.00    +0.122 C 
BRANCH  28  29
ATOM     29  C   UNL     1       8.221   6.841  27.057  0.00  0.00    +0.063 C 
ATOM     30  N   UNL     1       8.249   6.744  28.314  0.00  0.00    -0.197 NA
ENDBRANCH  28  29
ENDBRANCH   1  28
TORSDOF 6
ENDMDL
MODEL 2
REMARK VINA RESULT:      -7.1      2.856      3.937
REMARK  Name = 
REMARK  8 active torsions:
REMARK  status: ('A' for Active; 'I' for Inactive)
REMARK    1  A    between atoms: C_2  and  C_3
REMARK    2  A    between atoms: C_3  and  C_4
REMARK    3  A    between atoms: C_16  and  O_17
REMARK    4  A    between atoms: O_17  and  S_18
REMARK    5  A    between atoms: S_18  and  N_19
REMARK    6  A    between atoms: C_22  and  O_23
REMARK    7  A    between atoms: O_23  and  C_24
REMARK    8  A    between atoms: C_31  and  C_32
REMARK                            x       y       z     vdW  Elec       q    Type
REMARK                         _______ _______ _______ _____ _____    ______ ____
ROOT
ATOM      1  C   UNL     1       8.851   4.015  23.064  0.00  0.00    +0.009 C 
ATOM      2  C   UNL     1       8.672   2.282  22.564  0.00  0.00    -0.025 C 
ATOM      3  C   UNL     1       7.472   2.138  21.600  0.00  0.00    +0.012 C 
ATOM      4  C   UNL     1       8.697   1.597  23.968  0.00  0.00    -0.001 C 
ATOM      5  C   UNL     1       8.028   0.229  24.075  0.00  0.00    +0.000 C 
ATOM      6  C   UNL     1       8.747  -0.915  23.274  0.00  0.00    +0.023 C 
ATOM      7  C   UNL     1       9.210  -0.333  21.883  0.00  0.00    +0.009 C 
ATOM      8  C   UNL     1       7.905  -2.248  23.470  0.00  0.00    -0.037 A 
ATOM      9  C   UNL     1       7.068  -2.344  24.614  0.00  0.00    -0.040 A 
ATOM     10  C   UNL     1       6.259  -3.462  24.882  0.00  0.00    +0.056 A 
ATOM     11  C   UNL     1       6.286  -4.595  24.096  0.00  0.00    +0.199 A 
ATOM     12  C   UNL     1       7.195  -4.622  23.026  0.00  0.00    +0.165 A 
ATOM     13  C   UNL     1       6.941  -1.278  25.664  0.00  0.00    +0.036 C 
ATOM     14  C   UNL     1       7.984  -3.445  22.714  0.00  0.00    +0.053 A 
ATOM     15  C   UNL     1       7.996  -0.223  25.535  0.00  0.00    +0.009 C 
ATOM     16  C   UNL     1       8.326   2.688  24.959  0.00  0.00    +0.005 C 
ATOM     17  C   UNL     1       9.733   1.249  21.878  0.00  0.00    +0.008 C 
ATOM     18  C   UNL     1       9.218   3.841  24.523  0.00  0.00    +0.005 C 
ENDROOT
BRANCH  12  19
ATOM     19  O   UNL     1       7.440  -5.712  22.212  0.00  0.00    -0.491 OA
ATOM     20  C   UNL     1       6.577  -5.952  21.095  0.00  0.00    +0.277 C 
ENDBRANCH  12  19
BRANCH  11  21
ATOM     21  O   UNL     1       5.531  -5.689  24.450  0.00  0.00    -0.330 OA
BRANCH  21  22
ATOM     22  S   UNL     1       3.940  -5.796  24.100  0.00  0.00    +0.189 S 
ATOM     23  O   UNL     1       3.689  -5.189  22.828  0.00  0.00    -0.119 OA
ATOM     24  O   UNL     1       3.160  -5.517  25.279  0.00  0.00    -0.119 OA
BRANCH  22  25
ATOM     25  N   UNL     1       3.721  -7.454  23.851  0.00  0.00    -0.174 NA
ATOM     26  H   UNL     1       4.429  -8.018  24.315  0.00  0.00    +0.147 HD
ATOM     27  H   UNL     1       2.753  -7.743  23.963  0.00  0.00    +0.147 HD
ENDBRANCH  22  25
ENDBRANCH  21  22
ENDBRANCH  11  21
BRANCH   1  28
ATOM     28  C   UNL     1       7.531   5.003  23.029  0.00  0.00    +0.122 C 
BRANCH  28  29
ATOM     29  C   UNL     1       6.057   5.355  22.916  0.00  0.00    +0.063 C 
ATOM     30  N   UNL     1       4.834   5.648  22.823  0.00  0.00    -0.197 NA
ENDBRANCH  28  29
ENDBRANCH   1  28
TORSDOF 6
ENDMDL
MODEL 3
REMARK VINA RESULT:      -6.9      2.523      3.466
REMARK  Name = 
REMARK  8 active torsions:
REMARK  status: ('A' for Active; 'I' for Inactive)
REMARK    1  A    between atoms: C_2  and  C_3
REMARK    2  A    between atoms: C_3  and  C_4
REMARK    3  A    between atoms: C_16  and  O_17
REMARK    4  A    between atoms: O_17  and  S_18
REMARK    5  A    between atoms: S_18  and  N_19
REMARK    6  A    between atoms: C_22  and  O_23
REMARK    7  A    between atoms: O_23  and  C_24
REMARK    8  A    between atoms: C_31  and  C_32
REMARK                            x       y       z     vdW  Elec       q    Type
REMARK                         _______ _______ _______ _____ _____    ______ ____
ROOT
ATOM      1  C   UNL     1       8.497   4.000  22.812  0.00  0.00    +0.009 C 
ATOM      2  C   UNL     1       8.385   2.207  22.575  0.00  0.00    -0.025 C 
ATOM      3  C   UNL     1       6.953   1.825  22.137  0.00  0.00    +0.012 C 
ATOM      4  C   UNL     1       8.998   1.721  23.928  0.00  0.00    -0.001 C 
ATOM      5  C   UNL     1       8.599   0.326  24.400  0.00  0.00    +0.000 C 
ATOM      6  C   UNL     1       9.134  -0.846  23.499  0.00  0.00    +0.023 C 
ATOM      7  C   UNL     1       8.992  -0.417  21.988  0.00  0.00    +0.009 C 
ATOM      8  C   UNL     1       8.603  -2.211  24.113  0.00  0.00    -0.037 A 
ATOM      9  C   UNL     1       8.246  -2.228  25.488  0.00  0.00    -0.040 A 
ATOM     10  C   UNL     1       7.742  -3.369  26.137  0.00  0.00    +0.056 A 
ATOM     11  C   UNL     1       7.640  -4.590  25.504  0.00  0.00    +0.199 A 
ATOM     12  C   UNL     1       8.105  -4.678  24.183  0.00  0.00    +0.165 A 
ATOM     13  C   UNL     1       8.358  -1.046  26.408  0.00  0.00    +0.036 C 
ATOM     14  C   UNL     1       8.568  -3.487  23.495  0.00  0.00    +0.053 A 
ATOM     15  C   UNL     1       9.148   0.073  25.804  0.00  0.00    +0.009 C 
ATOM     16  C   UNL     1       8.860   2.898  24.881  0.00  0.00    +0.005 C 
ATOM     17  C   UNL     1       9.263   1.192  21.646  0.00  0.00    +0.008 C 
ATOM     18  C   UNL     1       9.377   4.058  24.043  0.00  0.00    +0.005 C 
ENDROOT
BRANCH  12  19
ATOM     19  O   UNL     1       8.189  -5.840  23.440  0.00  0.00    -0.491 OA
ATOM     20  C   UNL     1       7.361  -5.985  22.282  0.00  0.00    +0.277 C 
ENDBRANCH  12  19
BRANCH  11  21
ATOM     21  O   UNL     1       7.213  -5.691  26.211  0.00  0.00    -0.330 OA
BRANCH  21  22
ATOM     22  S   UNL     1       6.006  -5.604  27.306  0.00  0.00    +0.189 S 
ATOM     23  O   UNL     1       5.002  -4.695  26.841  0.00  0.00    -0.119 OA
ATOM     24  O   UNL     1       6.555  -5.564  28.638  0.00  0.00    -0.119 OA
BRANCH  22  25
ATOM     25  N   UNL     1       5.296  -7.135  27.206  0.00  0.00    -0.174 NA
ATOM     26  H   UNL     1       5.976  -7.889  27.270  0.00  0.00    +0.147 HD
ATOM     27  H   UNL     1       4.459  -7.219  27.776  0.00  0.00    +0.147 HD
ENDBRANCH  22  25
ENDBRANCH  21  22
ENDBRANCH  11  21
BRANCH   1  28
ATOM     28  C   UNL     1       7.130   4.850  23.173  0.00  0.00    +0.122 C 
BRANCH  28  29
ATOM     29  C   UNL     1       5.681   5.283  23.031  0.00  0.00    +0.063 C 
ATOM     30  N   UNL     1       4.478   5.642  22.912  0.00  0.00    -0.197 NA
ENDBRANCH  28  29
ENDBRANCH   1  28
TORSDOF 6
ENDMDL
MODEL 4
REMARK VINA RESULT:      -6.8      2.743      3.950
REMARK  Name = 
REMARK  8 active torsions:
REMARK  status: ('A' for Active; 'I' for Inactive)
REMARK    1  A    between atoms: C_2  and  C_3
REMARK    2  A    between atoms: C_3  and  C_4
REMARK    3  A    between atoms: C_16  and  O_17
REMARK    4  A    between atoms: O_17  and  S_18
REMARK    5  A    between atoms: S_18  and  N_19
REMARK    6  A    between atoms: C_22  and  O_23
REMARK    7  A    between atoms: O_23  and  C_24
REMARK    8  A    between atoms: C_31  and  C_32
REMARK                            x       y       z     vdW  Elec       q    Type
REMARK                         _______ _______ _______ _____ _____    ______ ____
ROOT
ATOM      1  C   UNL     1       9.382   4.671  23.854  0.00  0.00    +0.009 C 
ATOM      2  C   UNL     1       9.569   2.875  23.708  0.00  0.00    -0.025 C 
ATOM      3  C   UNL     1       9.341   2.443  22.242  0.00  0.00    +0.012 C 
ATOM      4  C   UNL     1       8.625   2.415  24.866  0.00  0.00    -0.001 C 
ATOM      5  C   UNL     1       8.043   1.009  24.759  0.00  0.00    +0.000 C 
ATOM      6  C   UNL     1       9.100  -0.147  24.885  0.00  0.00    +0.023 C 
ATOM      7  C   UNL     1      10.392   0.272  24.083  0.00  0.00    +0.009 C 
ATOM      8  C   UNL     1       8.333  -1.528  24.720  0.00  0.00    -0.037 A 
ATOM      9  C   UNL     1       6.940  -1.552  25.001  0.00  0.00    -0.040 A 
ATOM     10  C   UNL     1       6.150  -2.708  24.868  0.00  0.00    +0.056 A 
ATOM     11  C   UNL     1       6.689  -3.934  24.539  0.00  0.00    +0.199 A 
ATOM     12  C   UNL     1       8.082  -4.010  24.383  0.00  0.00    +0.165 A 
ATOM     13  C   UNL     1       6.147  -0.364  25.465  0.00  0.00    +0.036 C 
ATOM     14  C   UNL     1       8.888  -2.806  24.460  0.00  0.00    +0.053 A 
ATOM     15  C   UNL     1       7.023   0.780  25.874  0.00  0.00    +0.009 C 
ATOM     16  C   UNL     1       7.694   3.590  25.121  0.00  0.00    +0.005 C 
ATOM     17  C   UNL     1      10.800   1.887  24.124  0.00  0.00    +0.008 C 
ATOM     18  C   UNL     1       8.659   4.764  25.181  0.00  0.00    +0.005 C 
ENDROOT
BRANCH  12  19
ATOM     19  O   UNL     1       8.801  -5.172  24.172  0.00  0.00    -0.491 OA
ATOM     20  C   UNL     1       9.543  -5.735  25.258  0.00  0.00    +0.277 C 
ENDBRANCH  12  19
BRANCH  11  21
ATOM     21  O   UNL     1       5.880  -5.046  24.500  0.00  0.00    -0.330 OA
BRANCH  21  22
ATOM     22  S   UNL     1       5.243  -5.607  23.106  0.00  0.00    +0.189 S 
ATOM     23  O   UNL     1       6.296  -5.869  22.171  0.00  0.00    -0.119 OA
ATOM     24  O   UNL     1       4.057  -4.861  22.774  0.00  0.00    -0.119 OA
BRANCH  22  25
ATOM     25  N   UNL     1       4.655  -7.130  23.548  0.00  0.00    -0.174 NA
ATOM     26  H   UNL     1       4.776  -7.825  22.816  0.00  0.00    +0.147 HD
ATOM     27  H   UNL     1       4.929  -7.398  24.489  0.00  0.00    +0.147 HD
ENDBRANCH  22  25
ENDBRANCH  21  22
ENDBRANCH  11  21
BRANCH   1  28
ATOM     28  C   UNL     1       8.450   5.475  22.756  0.00  0.00    +0.122 C 
BRANCH  28  29
ATOM     29  C   UNL     1       7.253   6.269  22.262  0.00  0.00    +0.063 C 
ATOM     30  N   UNL     1       6.258   6.927  21.853  0.00  0.00    -0.197 NA
ENDBRANCH  28  29
ENDBRANCH   1  28
TORSDOF 6
ENDMDL
MODEL 5
REMARK VINA RESULT:      -6.6      3.518      5.357
REMARK  Name = 
REMARK  8 active torsions:
REMARK  status: ('A' for Active; 'I' for Inactive)
REMARK    1  A    between atoms: C_2  and  C_3
REMARK    2  A    between atoms: C_3  and  C_4
REMARK    3  A    between atoms: C_16  and  O_17
REMARK    4  A    between atoms: O_17  and  S_18
REMARK    5  A    between atoms: S_18  and  N_19
REMARK    6  A    between atoms: C_22  and  O_23
REMARK    7  A    between atoms: O_23  and  C_24
REMARK    8  A    between atoms: C_31  and  C_32
REMARK                            x       y       z     vdW  Elec       q    Type
REMARK                         _______ _______ _______ _____ _____    ______ ____
ROOT
ATOM      1  C   UNL     1       9.878   1.363  23.277  0.00  0.00    +0.009 C 
ATOM      2  C   UNL     1       8.763  -0.052  23.077  0.00  0.00    -0.025 C 
ATOM      3  C   UNL     1       7.295   0.427  23.136  0.00  0.00    +0.012 C 
ATOM      4  C   UNL     1       9.365  -1.018  24.147  0.00  0.00    -0.001 C 
ATOM      5  C   UNL     1       8.430  -2.083  24.713  0.00  0.00    +0.000 C 
ATOM      6  C   UNL     1       7.980  -3.176  23.678  0.00  0.00    +0.023 C 
ATOM      7  C   UNL     1       7.680  -2.465  22.303  0.00  0.00    +0.009 C 
ATOM      8  C   UNL     1       6.995  -4.174  24.423  0.00  0.00    -0.037 A 
ATOM      9  C   UNL     1       7.081  -4.261  25.839  0.00  0.00    -0.040 A 
ATOM     10  C   UNL     1       6.246  -5.090  26.609  0.00  0.00    +0.056 A 
ATOM     11  C   UNL     1       5.336  -5.954  26.036  0.00  0.00    +0.199 A 
ATOM     12  C   UNL     1       5.295  -6.019  24.635  0.00  0.00    +0.165 A 
ATOM     13  C   UNL     1       8.057  -3.489  26.678  0.00  0.00    +0.036 C 
ATOM     14  C   UNL     1       6.113  -5.120  23.842  0.00  0.00    +0.053 A 
ATOM     15  C   UNL     1       9.120  -2.830  25.854  0.00  0.00    +0.009 C 
ATOM     16  C   UNL     1      10.149  -0.131  25.100  0.00  0.00    +0.005 C 
ATOM     17  C   UNL     1       8.663  -1.180  21.902  0.00  0.00    +0.008 C 
ATOM     18  C   UNL     1      10.951   0.742  24.147  0.00  0.00    +0.005 C 
ENDROOT
BRANCH  12  19
ATOM     19  O   UNL     1       4.535  -6.907  23.898  0.00  0.00    -0.491 OA
ATOM     20  C   UNL     1       3.432  -6.408  23.135  0.00  0.00    +0.277 C 
ENDBRANCH  12  19
BRANCH  11  21
ATOM     21  O   UNL     1       4.601  -6.798  26.837  0.00  0.00    -0.330 OA
BRANCH  21  22
ATOM     22  S   UNL     1       3.001  -6.586  27.083  0.00  0.00    +0.189 S 
ATOM     23  O   UNL     1       2.578  -5.371  26.454  0.00  0.00    -0.119 OA
ATOM     24  O   UNL     1       2.665  -6.935  28.440  0.00  0.00    -0.119 OA
BRANCH  22  25
ATOM     25  N   UNL     1       2.312  -7.825  26.162  0.00  0.00    -0.174 NA
ATOM     26  H   UNL     1       2.390  -7.662  25.162  0.00  0.00    +0.147 HD
ATOM     27  H   UNL     1       2.562  -8.751  26.500  0.00  0.00    +0.147 HD
ENDBRANCH  22  25
ENDBRANCH  21  22
ENDBRANCH  11  21
BRANCH   1  28
ATOM     28  C   UNL     1       9.343   2.702  24.077  0.00  0.00    +0.122 C 
BRANCH  28  29
ATOM     29  C   UNL     1       8.432   3.510  24.986  0.00  0.00    +0.063 C 
ATOM     30  N   UNL     1       7.675   4.181  25.740  0.00  0.00    -0.197 NA
ENDBRANCH  28  29
ENDBRANCH   1  28
TORSDOF 6
ENDMDL
MODEL 6
REMARK VINA RESULT:      -6.5      4.739      8.520
REMARK  Name = 
REMARK  8 active torsions:
REMARK  status: ('A' for Active; 'I' for Inactive)
REMARK    1  A    between atoms: C_2  and  C_3
REMARK    2  A    between atoms: C_3  and  C_4
REMARK    3  A    between atoms: C_16  and  O_17
REMARK    4  A    between atoms: O_17  and  S_18
REMARK    5  A    between atoms: S_18  and  N_19
REMARK    6  A    between atoms: C_22  and  O_23
REMARK    7  A    between atoms: O_23  and  C_24
REMARK    8  A    between atoms: C_31  and  C_32
REMARK                            x       y       z     vdW  Elec       q    Type
REMARK                         _______ _______ _______ _____ _____    ______ ____
ROOT
ATOM      1  C   UNL     1       7.008  -4.222  24.421  0.00  0.00    +0.009 C 
ATOM      2  C   UNL     1       6.894  -2.416  24.505  0.00  0.00    -0.025 C 
ATOM      3  C   UNL     1       6.215  -1.874  23.227  0.00  0.00    +0.012 C 
ATOM      4  C   UNL     1       8.375  -2.073  24.868  0.00  0.00    -0.001 C 
ATOM      5  C   UNL     1       8.867  -0.677  24.497  0.00  0.00    +0.000 C 
ATOM      6  C   UNL     1       8.183   0.490  25.296  0.00  0.00    +0.023 C 
ATOM      7  C   UNL     1       6.645   0.169  25.429  0.00  0.00    +0.009 C 
ATOM      8  C   UNL     1       8.786   1.861  24.764  0.00  0.00    -0.037 A 
ATOM      9  C   UNL     1      10.061   1.828  24.138  0.00  0.00    -0.040 A 
ATOM     10  C   UNL     1      10.685   2.970  23.607  0.00  0.00    +0.056 A 
ATOM     11  C   UNL     1      10.142   4.232  23.735  0.00  0.00    +0.199 A 
ATOM     12  C   UNL     1       8.949   4.355  24.464  0.00  0.00    +0.165 A 
ATOM     13  C   UNL     1      10.890   0.588  23.966  0.00  0.00    +0.036 C 
ATOM     14  C   UNL     1       8.275   3.169  24.958  0.00  0.00    +0.053 A 
ATOM     15  C   UNL     1      10.367  -0.563  24.768  0.00  0.00    +0.009 C 
ATOM     16  C   UNL     1       9.187  -3.287  24.446  0.00  0.00    +0.005 C 
ATOM     17  C   UNL     1       6.238  -1.435  25.632  0.00  0.00    +0.008 C 
ATOM     18  C   UNL     1       8.379  -4.438  25.026  0.00  0.00    +0.005 C 
ENDROOT
BRANCH  12  19
ATOM     19  O   UNL     1       8.330   5.547  24.790  0.00  0.00    -0.491 OA
ATOM     20  C   UNL     1       8.310   5.965  26.159  0.00  0.00    +0.277 C 
ENDBRANCH  12  19
BRANCH  11  21
ATOM     21  O   UNL     1      10.835   5.323  23.264  0.00  0.00    -0.330 OA
BRANCH  21  22
ATOM     22  S   UNL     1      12.466   5.375  23.250  0.00  0.00    +0.189 S 
ATOM     23  O   UNL     1      12.914   6.008  22.046  0.00  0.00    -0.119 OA
ATOM     24  O   UNL     1      13.001   4.128  23.735  0.00  0.00    -0.119 OA
BRANCH  22  25
ATOM     25  N   UNL     1      12.818   6.476  24.485  0.00  0.00    -0.174 NA
ATOM     26  H   UNL     1      12.883   7.434  24.151  0.00  0.00    +0.147 HD
ATOM     27  H   UNL     1      12.265   6.315  25.323  0.00  0.00    +0.147 HD
ENDBRANCH  22  25
ENDBRANCH  21  22
ENDBRANCH  11  21
BRANCH   1  28
ATOM     28  C   UNL     1       7.026  -4.959  22.946  0.00  0.00    +0.122 C 
BRANCH  28  29
ATOM     29  C   UNL     1       6.503  -5.333  21.569  0.00  0.00    +0.063 C 
ATOM     30  N   UNL     1       6.068  -5.642  20.426  0.00  0.00    -0.197 NA
ENDBRANCH  28  29
ENDBRANCH   1  28
TORSDOF 6
ENDMDL
MODEL 7
REMARK VINA RESULT:      -6.4      4.855      8.781
REMARK  Name = 
REMARK  8 active torsions:
REMARK  status: ('A' for Active; 'I' for Inactive)
REMARK    1  A    between atoms: C_2  and  C_3
REMARK    2  A    between atoms: C_3  and  C_4
REMARK    3  A    between atoms: C_16  and  O_17
REMARK    4  A    between atoms: O_17  and  S_18
REMARK    5  A    between atoms: S_18  and  N_19
REMARK    6  A    between atoms: C_22  and  O_23
REMARK    7  A    between atoms: O_23  and  C_24
REMARK    8  A    between atoms: C_31  and  C_32
REMARK                            x       y       z     vdW  Elec       q    Type
REMARK                         _______ _______ _______ _____ _____    ______ ____
ROOT
ATOM      1  C   UNL     1       6.760  -4.976  24.465  0.00  0.00    +0.009 C 
ATOM      2  C   UNL     1       6.928  -3.255  25.010  0.00  0.00    -0.025 C 
ATOM      3  C   UNL     1       5.529  -2.630  25.207  0.00  0.00    +0.012 C 
ATOM      4  C   UNL     1       7.928  -2.731  23.928  0.00  0.00    -0.001 C 
ATOM      5  C   UNL     1       7.920  -1.230  23.658  0.00  0.00    +0.000 C 
ATOM      6  C   UNL     1       8.429  -0.347  24.855  0.00  0.00    +0.023 C 
ATOM      7  C   UNL     1       7.850  -0.945  26.195  0.00  0.00    +0.009 C 
ATOM      8  C   UNL     1       8.323   1.175  24.415  0.00  0.00    -0.037 A 
ATOM      9  C   UNL     1       8.317   1.467  23.024  0.00  0.00    -0.040 A 
ATOM     10  C   UNL     1       8.204   2.772  22.514  0.00  0.00    +0.056 A 
ATOM     11  C   UNL     1       8.181   3.882  23.332  0.00  0.00    +0.199 A 
ATOM     12  C   UNL     1       8.322   3.675  24.713  0.00  0.00    +0.165 A 
ATOM     13  C   UNL     1       8.428   0.433  21.940  0.00  0.00    +0.036 C 
ATOM     14  C   UNL     1       8.377   2.325  25.242  0.00  0.00    +0.053 A 
ATOM     15  C   UNL     1       8.827  -0.909  22.471  0.00  0.00    +0.009 C 
ATOM     16  C   UNL     1       7.809  -3.700  22.763  0.00  0.00    +0.005 C 
ATOM     17  C   UNL     1       7.728  -2.605  26.275  0.00  0.00    +0.008 C 
ATOM     18  C   UNL     1       7.885  -5.053  23.454  0.00  0.00    +0.005 C 
ENDROOT
BRANCH  12  19
ATOM     19  O   UNL     1       8.438   4.672  25.663  0.00  0.00    -0.491 OA
ATOM     20  C   UNL     1       7.342   4.916  26.550  0.00  0.00    +0.277 C 
ENDBRANCH  12  19
BRANCH  11  21
ATOM     21  O   UNL     1       8.147   5.140  22.774  0.00  0.00    -0.330 OA
BRANCH  21  22
ATOM     22  S   UNL     1       6.798   6.058  22.782  0.00  0.00    +0.189 S 
ATOM     23  O   UNL     1       6.936   7.103  23.750  0.00  0.00    -0.119 OA
ATOM     24  O   UNL     1       5.632   5.215  22.686  0.00  0.00    -0.119 OA
BRANCH  22  25
ATOM     25  N   UNL     1       6.862   6.834  21.281  0.00  0.00    -0.174 NA
ATOM     26  H   UNL     1       6.156   7.558  21.182  0.00  0.00    +0.147 HD
ATOM     27  H   UNL     1       7.811   7.072  21.002  0.00  0.00    +0.147 HD
ENDBRANCH  22  25
ENDBRANCH  21  22
ENDBRANCH  11  21
BRANCH   1  28
ATOM     28  C   UNL     1       5.388  -5.439  23.676  0.00  0.00    +0.122 C 
BRANCH  28  29
ATOM     29  C   UNL     1       3.919  -5.392  23.292  0.00  0.00    +0.063 C 
ATOM     30  N   UNL     1       2.699  -5.353  22.973  0.00  0.00    -0.197 NA
ENDBRANCH  28  29
ENDBRANCH   1  28
TORSDOF 6
ENDMDL
MODEL 8
REMARK VINA RESULT:      -6.1      2.217      2.942
REMARK  Name = 
REMARK  8 active torsions:
REMARK  status: ('A' for Active; 'I' for Inactive)
REMARK    1  A    between atoms: C_2  and  C_3
REMARK    2  A    between atoms: C_3  and  C_4
REMARK    3  A    between atoms: C_16  and  O_17
REMARK    4  A    between atoms: O_17  and  S_18
REMARK    5  A    between atoms: S_18  and  N_19
REMARK    6  A    between atoms: C_22  and  O_23
REMARK    7  A    between atoms: O_23  and  C_24
REMARK    8  A    between atoms: C_31  and  C_32
REMARK                            x       y       z     vdW  Elec       q    Type
REMARK                         _______ _______ _______ _____ _____    ______ ____
ROOT
ATOM      1  C   UNL     1       7.347   5.852  23.751  0.00  0.00    +0.009 C 
ATOM      2  C   UNL     1       6.815   4.280  24.479  0.00  0.00    -0.025 C 
ATOM      3  C   UNL     1       7.579   4.031  25.799  0.00  0.00    +0.012 C 
ATOM      4  C   UNL     1       6.974   3.345  23.237  0.00  0.00    -0.001 C 
ATOM      5  C   UNL     1       7.174   1.859  23.520  0.00  0.00    +0.000 C 
ATOM      6  C   UNL     1       5.932   1.142  24.161  0.00  0.00    +0.023 C 
ATOM      7  C   UNL     1       5.302   2.106  25.238  0.00  0.00    +0.009 C 
ATOM      8  C   UNL     1       6.324  -0.377  24.414  0.00  0.00    -0.037 A 
ATOM      9  C   UNL     1       7.377  -0.930  23.636  0.00  0.00    -0.040 A 
ATOM     10  C   UNL     1       7.829  -2.253  23.787  0.00  0.00    +0.056 A 
ATOM     11  C   UNL     1       7.220  -3.145  24.644  0.00  0.00    +0.199 A 
ATOM     12  C   UNL     1       6.085  -2.704  25.342  0.00  0.00    +0.165 A 
ATOM     13  C   UNL     1       8.130  -0.183  22.573  0.00  0.00    +0.036 C 
ATOM     14  C   UNL     1       5.657  -1.322  25.233  0.00  0.00    +0.053 A 
ATOM     15  C   UNL     1       7.475   1.116  22.218  0.00  0.00    +0.009 C 
ATOM     16  C   UNL     1       7.938   4.064  22.308  0.00  0.00    +0.005 C 
ATOM     17  C   UNL     1       5.331   3.734  24.884  0.00  0.00    +0.008 C 
ATOM     18  C   UNL     1       7.374   5.477  22.284  0.00  0.00    +0.005 C 
ENDROOT
BRANCH  12  19
ATOM     19  O   UNL     1       5.285  -3.493  26.147  0.00  0.00    -0.491 OA
ATOM     20  C   UNL     1       5.341  -3.317  27.567  0.00  0.00    +0.277 C 
ENDBRANCH  12  19
BRANCH  11  21
ATOM     21  O   UNL     1       7.656  -4.450  24.692  0.00  0.00    -0.330 OA
BRANCH  21  22
ATOM     22  S   UNL     1       8.437  -5.056  25.991  0.00  0.00    +0.189 S 
ATOM     23  O   UNL     1       7.604  -6.023  26.641  0.00  0.00    -0.119 OA
ATOM     24  O   UNL     1       9.117  -3.997  26.692  0.00  0.00    -0.119 OA
BRANCH  22  25
ATOM     25  N   UNL     1       9.690  -5.950  25.292  0.00  0.00    -0.174 NA
ATOM     26  H   UNL     1      10.610  -5.649  25.605  0.00  0.00    +0.147 HD
ATOM     27  H   UNL     1       9.506  -6.950  25.291  0.00  0.00    +0.147 HD
ENDBRANCH  22  25
ENDBRANCH  21  22
ENDBRANCH  11  21
BRANCH   1  28
ATOM     28  C   UNL     1       8.844   6.441  24.112  0.00  0.00    +0.122 C 
BRANCH  28  29
ATOM     29  C   UNL     1      10.352   6.395  24.293  0.00  0.00    +0.063 C 
ATOM     30  N   UNL     1      11.604   6.355  24.444  0.00  0.00    -0.197 NA
ENDBRANCH  28  29
ENDBRANCH   1  28
TORSDOF 6
ENDMDL
MODEL 9
REMARK VINA RESULT:      -6.1      4.720      8.963
REMARK  Name = 
REMARK  8 active torsions:
REMARK  status: ('A' for Active; 'I' for Inactive)
REMARK    1  A    between atoms: C_2  and  C_3
REMARK    2  A    between atoms: C_3  and  C_4
REMARK    3  A    between atoms: C_16  and  O_17
REMARK    4  A    between atoms: O_17  and  S_18
REMARK    5  A    between atoms: S_18  and  N_19
REMARK    6  A    between atoms: C_22  and  O_23
REMARK    7  A    between atoms: O_23  and  C_24
REMARK    8  A    between atoms: C_31  and  C_32
REMARK                            x       y       z     vdW  Elec       q    Type
REMARK                         _______ _______ _______ _____ _____    ______ ____
ROOT
ATOM      1  C   UNL     1       4.880  -6.778  26.800  0.00  0.00    +0.009 C 
ATOM      2  C   UNL     1       6.155  -5.527  26.491  0.00  0.00    -0.025 C 
ATOM      3  C   UNL     1       6.097  -4.439  27.586  0.00  0.00    +0.012 C 
ATOM      4  C   UNL     1       5.858  -5.211  24.989  0.00  0.00    -0.001 C 
ATOM      5  C   UNL     1       6.303  -3.846  24.475  0.00  0.00    +0.000 C 
ATOM      6  C   UNL     1       7.861  -3.642  24.424  0.00  0.00    +0.023 C 
ATOM      7  C   UNL     1       8.488  -4.275  25.725  0.00  0.00    +0.009 C 
ATOM      8  C   UNL     1       8.141  -2.169  23.900  0.00  0.00    -0.037 A 
ATOM      9  C   UNL     1       7.128  -1.530  23.135  0.00  0.00    -0.040 A 
ATOM     10  C   UNL     1       7.251  -0.221  22.639  0.00  0.00    +0.056 A 
ATOM     11  C   UNL     1       8.410   0.514  22.782  0.00  0.00    +0.199 A 
ATOM     12  C   UNL     1       9.501  -0.108  23.408  0.00  0.00    +0.165 A 
ATOM     13  C   UNL     1       5.816  -2.164  22.769  0.00  0.00    +0.036 C 
ATOM     14  C   UNL     1       9.353  -1.436  23.973  0.00  0.00    +0.053 A 
ATOM     15  C   UNL     1       5.796  -3.635  23.048  0.00  0.00    +0.009 C 
ATOM     16  C   UNL     1       4.426  -5.666  24.754  0.00  0.00    +0.005 C 
ATOM     17  C   UNL     1       7.769  -5.668  26.293  0.00  0.00    +0.008 C 
ATOM     18  C   UNL     1       4.417  -7.051  25.384  0.00  0.00    +0.005 C 
ENDROOT
BRANCH  12  19
ATOM     19  O   UNL     1      10.767   0.431  23.530  0.00  0.00    -0.491 OA
ATOM     20  C   UNL     1      11.261   0.754  24.834  0.00  0.00    +0.277 C 
ENDBRANCH  12  19
BRANCH  11  21
ATOM     21  O   UNL     1       8.501   1.761  22.207  0.00  0.00    -0.330 OA
BRANCH  21  22
ATOM     22  S   UNL     1       8.374   3.132  23.084  0.00  0.00    +0.189 S 
ATOM     23  O   UNL     1       9.682   3.627  23.388  0.00  0.00    -0.119 OA
ATOM     24  O   UNL     1       7.332   2.988  24.069  0.00  0.00    -0.119 OA
BRANCH  22  25
ATOM     25  N   UNL     1       7.732   4.231  21.971  0.00  0.00    -0.174 NA
ATOM     26  H   UNL     1       7.788   5.194  22.293  0.00  0.00    +0.147 HD
ATOM     27  H   UNL     1       8.030   4.044  21.018  0.00  0.00    +0.147 HD
ENDBRANCH  22  25
ENDBRANCH  21  22
ENDBRANCH  11  21
BRANCH   1  28
ATOM     28  C   UNL     1       3.536  -6.361  27.660  0.00  0.00    +0.122 C 
BRANCH  28  29
ATOM     29  C   UNL     1       2.572  -5.427  28.371  0.00  0.00    +0.063 C 
ATOM     30  N   UNL     1       1.772  -4.651  28.962  0.00  0.00    -0.197 NA
ENDBRANCH  28  29
ENDBRANCH   1  28
TORSDOF 6
ENDMDL
