MODEL 1
REMARK VINA RESULT:      -6.2      0.000      0.000
REMARK  Name = 
REMARK  10 active torsions:
REMARK  status: ('A' for Active; 'I' for Inactive)
REMARK    1  A    between atoms: C_2  and  C_3
REMARK    2  A    between atoms: C_2  and  N_10
REMARK    3  A    between atoms: C_2  and  C_21
REMARK    4  A    between atoms: C_3  and  C_4
REMARK    5  A    between atoms: C_11  and  O_13
REMARK    6  A    between atoms: O_13  and  C_14
REMARK    7  A    between atoms: C_14  and  C_15
REMARK    8  A    between atoms: C_21  and  O_23
REMARK    9  A    between atoms: C_21  and  C_24
REMARK   10  A    between atoms: C_24  and  O_25
REMARK                            x       y       z     vdW  Elec       q    Type
REMARK                         _______ _______ _______ _____ _____    ______ ____
ROOT
ATOM      1  C   UNL     1       8.074  -2.689  25.214  0.00  0.00    +0.120 C 
ENDROOT
BRANCH   1   2
ATOM      2  N   UNL     1       7.705  -3.480  24.011  0.00  0.00    -0.275 N 
ATOM      3  H   UNL     1       8.179  -4.374  23.972  0.00  0.00    +0.152 HD
ATOM      4  C   UNL     1       7.863  -2.926  22.760  0.00  0.00    +0.401 C 
ATOM      5  O   UNL     1       7.017  -3.022  21.886  0.00  0.00    -0.226 OA
BRANCH   4   6
ATOM      6  O   UNL     1       9.104  -2.413  22.610  0.00  0.00    -0.446 OA
BRANCH   6   7
ATOM      7  C   UNL     1       9.251  -1.338  21.673  0.00  0.00    +0.269 C 
BRANCH   7   8
ATOM      8  C   UNL     1       9.739  -0.129  22.426  0.00  0.00    -0.010 A 
ATOM      9  C   UNL     1      10.332  -0.284  23.687  0.00  0.00    +0.007 A 
ATOM     10  C   UNL     1      10.819   0.825  24.380  0.00  0.00    +0.000 A 
ATOM     11  C   UNL     1      10.720   2.096  23.818  0.00  0.00    +0.000 A 
ATOM     12  C   UNL     1      10.137   2.261  22.563  0.00  0.00    +0.000 A 
ATOM     13  C   UNL     1       9.651   1.153  21.866  0.00  0.00    +0.007 A 
ENDBRANCH   7   8
ENDBRANCH   6   7
ENDBRANCH   4   6
ENDBRANCH   1   2
BRANCH   1  14
ATOM     14  C   UNL     1       8.528  -3.617  26.366  0.00  0.00    +0.243 C 
BRANCH  14  15
ATOM     15  C   UNL     1       9.208  -4.882  25.836  0.00  0.00    +0.335 C 
ATOM     16  O   UNL     1      10.137  -4.915  25.049  0.00  0.00    -0.248 OA
BRANCH  15  17
ATOM     17  O   UNL     1       8.648  -5.999  26.373  0.00  0.00    -0.479 OA
ATOM     18  H   UNL     1       7.890  -5.726  26.942  0.00  0.00    +0.295 HD
ENDBRANCH  15  17
ENDBRANCH  14  15
BRANCH  14  19
ATOM     19  O   UNL     1       7.432  -4.001  27.218  0.00  0.00    -0.379 OA
ATOM     20  H   UNL     1       6.707  -4.314  26.642  0.00  0.00    +0.211 HD
ENDBRANCH  14  19
ENDBRANCH   1  14
BRANCH   1  21
ATOM     21  C   UNL     1       6.839  -1.830  25.602  0.00  0.00    +0.060 C 
BRANCH  21  22
ATOM     22  C   UNL     1       6.952  -0.366  25.251  0.00  0.00    -0.046 A 
ATOM     23  C   UNL     1       6.433   0.114  24.038  0.00  0.00    +0.004 A 
ATOM     24  C   UNL     1       6.462   1.477  23.742  0.00  0.00    +0.000 A 
ATOM     25  C   UNL     1       7.036   2.371  24.643  0.00  0.00    +0.000 A 
ATOM     26  C   UNL     1       7.587   1.901  25.835  0.00  0.00    +0.000 A 
ATOM     27  C   UNL     1       7.541   0.539  26.142  0.00  0.00    +0.004 A 
ENDBRANCH  21  22
ENDBRANCH   1  21
TORSDOF 10
ENDMDL
MODEL 2
REMARK VINA RESULT:      -5.8      1.039      1.591
REMARK  Name = 
REMARK  10 active torsions:
REMARK  status: ('A' for Active; 'I' for Inactive)
REMARK    1  A    between atoms: C_2  and  C_3
REMARK    2  A    between atoms: C_2  and  N_10
REMARK    3  A    between atoms: C_2  and  C_21
REMARK    4  A    between atoms: C_3  and  C_4
REMARK    5  A    between atoms: C_11  and  O_13
REMARK    6  A    between atoms: O_13  and  C_14
REMARK    7  A    between atoms: C_14  and  C_15
REMARK    8  A    between atoms: C_21  and  O_23
REMARK    9  A    between atoms: C_21  and  C_24
REMARK   10  A    between atoms: C_24  and  O_25
REMARK                            x       y       z     vdW  Elec       q    Type
REMARK                         _______ _______ _______ _____ _____    ______ ____
ROOT
ATOM      1  C   UNL     1       7.380  -3.145  25.534  0.00  0.00    +0.120 C 
ENDROOT
BRANCH   1   2
ATOM      2  N   UNL     1       7.605  -4.110  24.425  0.00  0.00    -0.275 N 
ATOM      3  H   UNL     1       8.309  -4.803  24.648  0.00  0.00    +0.152 HD
ATOM      4  C   UNL     1       7.936  -3.640  23.173  0.00  0.00    +0.401 C 
ATOM      5  O   UNL     1       7.431  -4.077  22.152  0.00  0.00    -0.226 OA
BRANCH   4   6
ATOM      6  O   UNL     1       8.965  -2.768  23.240  0.00  0.00    -0.446 OA
BRANCH   6   7
ATOM      7  C   UNL     1       9.058  -1.795  22.191  0.00  0.00    +0.269 C 
BRANCH   7   8
ATOM      8  C   UNL     1       9.595  -0.520  22.786  0.00  0.00    -0.010 A 
ATOM      9  C   UNL     1      10.118  -0.523  24.086  0.00  0.00    +0.007 A 
ATOM     10  C   UNL     1      10.650   0.643  24.637  0.00  0.00    +0.000 A 
ATOM     11  C   UNL     1      10.667   1.821  23.892  0.00  0.00    +0.000 A 
ATOM     12  C   UNL     1      10.153   1.834  22.596  0.00  0.00    +0.000 A 
ATOM     13  C   UNL     1       9.623   0.668  22.042  0.00  0.00    +0.007 A 
ENDBRANCH   7   8
ENDBRANCH   6   7
ENDBRANCH   4   6
ENDBRANCH   1   2
BRANCH   1  14
ATOM     14  C   UNL     1       7.096  -3.888  26.861  0.00  0.00    +0.243 C 
BRANCH  14  15
ATOM     15  C   UNL     1       7.162  -5.406  26.683  0.00  0.00    +0.335 C 
ATOM     16  O   UNL     1       6.218  -6.137  26.442  0.00  0.00    -0.248 OA
BRANCH  15  17
ATOM     17  O   UNL     1       8.438  -5.858  26.814  0.00  0.00    -0.479 OA
ATOM     18  H   UNL     1       8.459  -6.530  27.536  0.00  0.00    +0.295 HD
ENDBRANCH  15  17
ENDBRANCH  14  15
BRANCH  14  19
ATOM     19  O   UNL     1       5.812  -3.540  27.414  0.00  0.00    -0.379 OA
ATOM     20  H   UNL     1       5.967  -3.153  28.298  0.00  0.00    +0.211 HD
ENDBRANCH  14  19
ENDBRANCH   1  14
BRANCH   1  21
ATOM     21  C   UNL     1       6.205  -2.220  25.113  0.00  0.00    +0.060 C 
BRANCH  21  22
ATOM     22  C   UNL     1       6.515  -0.743  25.161  0.00  0.00    -0.046 A 
ATOM     23  C   UNL     1       7.090  -0.177  26.309  0.00  0.00    +0.004 A 
ATOM     24  C   UNL     1       7.452   1.171  26.331  0.00  0.00    +0.000 A 
ATOM     25  C   UNL     1       7.215   1.972  25.217  0.00  0.00    +0.000 A 
ATOM     26  C   UNL     1       6.611   1.428  24.084  0.00  0.00    +0.000 A 
ATOM     27  C   UNL     1       6.266   0.075  24.053  0.00  0.00    +0.004 A 
ENDBRANCH  21  22
ENDBRANCH   1  21
TORSDOF 10
ENDMDL
MODEL 3
REMARK VINA RESULT:      -5.7      1.743      4.198
REMARK  Name = 
REMARK  10 active torsions:
REMARK  status: ('A' for Active; 'I' for Inactive)
REMARK    1  A    between atoms: C_2  and  C_3
REMARK    2  A    between atoms: C_2  and  N_10
REMARK    3  A    between atoms: C_2  and  C_21
REMARK    4  A    between atoms: C_3  and  C_4
REMARK    5  A    between atoms: C_11  and  O_13
REMARK    6  A    between atoms: O_13  and  C_14
REMARK    7  A    between atoms: C_14  and  C_15
REMARK    8  A    between atoms: C_21  and  O_23
REMARK    9  A    between atoms: C_21  and  C_24
REMARK   10  A    between atoms: C_24  and  O_25
REMARK                            x       y       z     vdW  Elec       q    Type
REMARK                         _______ _______ _______ _____ _____    ______ ____
ROOT
ATOM      1  C   UNL     1       8.177  -2.187  23.312  0.00  0.00    +0.120 C 
ENDROOT
BRANCH   1   2
ATOM      2  N   UNL     1       8.098  -2.595  24.739  0.00  0.00    -0.275 N 
ATOM      3  H   UNL     1       7.320  -3.216  24.925  0.00  0.00    +0.152 HD
ATOM      4  C   UNL     1       8.040  -1.629  25.719  0.00  0.00    +0.401 C 
ATOM      5  O   UNL     1       8.696  -1.693  26.746  0.00  0.00    -0.226 OA
BRANCH   4   6
ATOM      6  O   UNL     1       7.077  -0.721  25.447  0.00  0.00    -0.446 OA
BRANCH   6   7
ATOM      7  C   UNL     1       7.266   0.599  25.972  0.00  0.00    +0.269 C 
BRANCH   7   8
ATOM      8  C   UNL     1       7.105   1.577  24.839  0.00  0.00    -0.010 A 
ATOM      9  C   UNL     1       7.498   2.913  25.009  0.00  0.00    +0.007 A 
ATOM     10  C   UNL     1       7.386   3.822  23.957  0.00  0.00    +0.000 A 
ATOM     11  C   UNL     1       6.884   3.404  22.725  0.00  0.00    +0.000 A 
ATOM     12  C   UNL     1       6.494   2.079  22.544  0.00  0.00    +0.000 A 
ATOM     13  C   UNL     1       6.608   1.166  23.595  0.00  0.00    +0.007 A 
ENDBRANCH   7   8
ENDBRANCH   6   7
ENDBRANCH   4   6
ENDBRANCH   1   2
BRANCH   1  14
ATOM     14  C   UNL     1       7.594  -3.286  22.392  0.00  0.00    +0.243 C 
BRANCH  14  15
ATOM     15  C   UNL     1       6.080  -3.139  22.226  0.00  0.00    +0.335 C 
ATOM     16  O   UNL     1       5.376  -3.806  21.489  0.00  0.00    -0.248 OA
BRANCH  15  17
ATOM     17  O   UNL     1       5.594  -2.157  23.031  0.00  0.00    -0.479 OA
ATOM     18  H   UNL     1       5.720  -2.432  23.970  0.00  0.00    +0.295 HD
ENDBRANCH  15  17
ENDBRANCH  14  15
BRANCH  14  19
ATOM     19  O   UNL     1       7.882  -4.611  22.880  0.00  0.00    -0.379 OA
ATOM     20  H   UNL     1       8.034  -5.184  22.102  0.00  0.00    +0.211 HD
ENDBRANCH  14  19
ENDBRANCH   1  14
BRANCH   1  21
ATOM     21  C   UNL     1       9.667  -1.883  22.996  0.00  0.00    +0.060 C 
BRANCH  21  22
ATOM     22  C   UNL     1      10.027  -0.417  22.989  0.00  0.00    -0.046 A 
ATOM     23  C   UNL     1       9.787   0.365  21.848  0.00  0.00    +0.004 A 
ATOM     24  C   UNL     1      10.043   1.737  21.861  0.00  0.00    +0.000 A 
ATOM     25  C   UNL     1      10.567   2.335  23.004  0.00  0.00    +0.000 A 
ATOM     26  C   UNL     1      10.843   1.561  24.131  0.00  0.00    +0.000 A 
ATOM     27  C   UNL     1      10.569   0.191  24.127  0.00  0.00    +0.004 A 
ENDBRANCH  21  22
ENDBRANCH   1  21
TORSDOF 10
ENDMDL
MODEL 4
REMARK VINA RESULT:      -5.7      2.509      6.065
REMARK  Name = 
REMARK  10 active torsions:
REMARK  status: ('A' for Active; 'I' for Inactive)
REMARK    1  A    between atoms: C_2  and  C_3
REMARK    2  A    between atoms: C_2  and  N_10
REMARK    3  A    between atoms: C_2  and  C_21
REMARK    4  A    between atoms: C_3  and  C_4
REMARK    5  A    between atoms: C_11  and  O_13
REMARK    6  A    between atoms: O_13  and  C_14
REMARK    7  A    between atoms: C_14  and  C_15
REMARK    8  A    between atoms: C_21  and  O_23
REMARK    9  A    between atoms: C_21  and  C_24
REMARK   10  A    between atoms: C_24  and  O_25
REMARK                            x       y       z     vdW  Elec       q    Type
REMARK                         _______ _______ _______ _____ _____    ______ ____
ROOT
ATOM      1  C   UNL     1       8.356  -1.124  23.198  0.00  0.00    +0.120 C 
ENDROOT
BRANCH   1   2
ATOM      2  N   UNL     1       7.579   0.088  23.568  0.00  0.00    -0.275 N 
ATOM      3  H   UNL     1       8.171   0.877  23.795  0.00  0.00    +0.152 HD
ATOM      4  C   UNL     1       6.655   0.017  24.587  0.00  0.00    +0.401 C 
ATOM      5  O   UNL     1       5.545   0.517  24.506  0.00  0.00    -0.226 OA
BRANCH   4   6
ATOM      6  O   UNL     1       7.198  -0.537  25.694  0.00  0.00    -0.446 OA
BRANCH   6   7
ATOM      7  C   UNL     1       6.322  -1.308  26.527  0.00  0.00    +0.269 C 
BRANCH   7   8
ATOM      8  C   UNL     1       6.882  -2.702  26.625  0.00  0.00    -0.010 A 
ATOM      9  C   UNL     1       8.223  -2.941  26.292  0.00  0.00    +0.007 A 
ATOM     10  C   UNL     1       8.764  -4.221  26.410  0.00  0.00    +0.000 A 
ATOM     11  C   UNL     1       7.971  -5.273  26.866  0.00  0.00    +0.000 A 
ATOM     12  C   UNL     1       6.639  -5.047  27.204  0.00  0.00    +0.000 A 
ATOM     13  C   UNL     1       6.095  -3.765  27.089  0.00  0.00    +0.007 A 
ENDBRANCH   7   8
ENDBRANCH   6   7
ENDBRANCH   4   6
ENDBRANCH   1   2
BRANCH   1  14
ATOM     14  C   UNL     1       9.738  -0.736  22.620  0.00  0.00    +0.243 C 
BRANCH  14  15
ATOM     15  C   UNL     1       9.796   0.746  22.241  0.00  0.00    +0.335 C 
ATOM     16  O   UNL     1      10.325   1.628  22.894  0.00  0.00    -0.248 OA
BRANCH  15  17
ATOM     17  O   UNL     1       9.182   0.969  21.048  0.00  0.00    -0.479 OA
ATOM     18  H   UNL     1       9.835   0.809  20.326  0.00  0.00    +0.295 HD
ENDBRANCH  15  17
ENDBRANCH  14  15
BRANCH  14  19
ATOM     19  O   UNL     1      10.084  -1.525  21.465  0.00  0.00    -0.379 OA
ATOM     20  H   UNL     1      10.628  -0.964  20.877  0.00  0.00    +0.211 HD
ENDBRANCH  14  19
ENDBRANCH   1  14
BRANCH   1  21
ATOM     21  C   UNL     1       7.501  -1.935  22.187  0.00  0.00    +0.060 C 
BRANCH  21  22
ATOM     22  C   UNL     1       6.810  -3.145  22.770  0.00  0.00    -0.046 A 
ATOM     23  C   UNL     1       5.467  -3.069  23.170  0.00  0.00    +0.004 A 
ATOM     24  C   UNL     1       4.799  -4.203  23.635  0.00  0.00    +0.000 A 
ATOM     25  C   UNL     1       5.475  -5.416  23.733  0.00  0.00    +0.000 A 
ATOM     26  C   UNL     1       6.821  -5.494  23.372  0.00  0.00    +0.000 A 
ATOM     27  C   UNL     1       7.485  -4.365  22.887  0.00  0.00    +0.004 A 
ENDBRANCH  21  22
ENDBRANCH   1  21
TORSDOF 10
ENDMDL
MODEL 5
REMARK VINA RESULT:      -5.6      1.664      3.904
REMARK  Name = 
REMARK  10 active torsions:
REMARK  status: ('A' for Active; 'I' for Inactive)
REMARK    1  A    between atoms: C_2  and  C_3
REMARK    2  A    between atoms: C_2  and  N_10
REMARK    3  A    between atoms: C_2  and  C_21
REMARK    4  A    between atoms: C_3  and  C_4
REMARK    5  A    between atoms: C_11  and  O_13
REMARK    6  A    between atoms: O_13  and  C_14
REMARK    7  A    between atoms: C_14  and  C_15
REMARK    8  A    between atoms: C_21  and  O_23
REMARK    9  A    between atoms: C_21  and  C_24
REMARK   10  A    between atoms: C_24  and  O_25
REMARK                            x       y       z     vdW  Elec       q    Type
REMARK                         _______ _______ _______ _____ _____    ______ ____
ROOT
ATOM      1  C   UNL     1       8.294  -2.745  24.652  0.00  0.00    +0.120 C 
ENDROOT
BRANCH   1   2
ATOM      2  N   UNL     1       8.331  -2.461  26.111  0.00  0.00    -0.275 N 
ATOM      3  H   UNL     1       7.571  -2.904  26.614  0.00  0.00    +0.152 HD
ATOM      4  C   UNL     1       8.348  -1.155  26.548  0.00  0.00    +0.401 C 
ATOM      5  O   UNL     1       9.084  -0.770  27.441  0.00  0.00    -0.226 OA
BRANCH   4   6
ATOM      6  O   UNL     1       7.364  -0.436  25.964  0.00  0.00    -0.446 OA
BRANCH   6   7
ATOM      7  C   UNL     1       7.338   0.970  26.242  0.00  0.00    +0.269 C 
BRANCH   7   8
ATOM      8  C   UNL     1       7.157   1.698  24.938  0.00  0.00    -0.010 A 
ATOM      9  C   UNL     1       7.683   2.989  24.780  0.00  0.00    +0.007 A 
ATOM     10  C   UNL     1       7.552   3.662  23.565  0.00  0.00    +0.000 A 
ATOM     11  C   UNL     1       6.898   3.051  22.497  0.00  0.00    +0.000 A 
ATOM     12  C   UNL     1       6.375   1.767  22.641  0.00  0.00    +0.000 A 
ATOM     13  C   UNL     1       6.507   1.090  23.855  0.00  0.00    +0.007 A 
ENDBRANCH   7   8
ENDBRANCH   6   7
ENDBRANCH   4   6
ENDBRANCH   1   2
BRANCH   1  14
ATOM     14  C   UNL     1       7.905  -4.219  24.388  0.00  0.00    +0.243 C 
BRANCH  14  15
ATOM     15  C   UNL     1       8.572  -5.167  25.388  0.00  0.00    +0.335 C 
ATOM     16  O   UNL     1       8.182  -5.399  26.518  0.00  0.00    -0.248 OA
BRANCH  15  17
ATOM     17  O   UNL     1       9.676  -5.748  24.848  0.00  0.00    -0.479 OA
ATOM     18  H   UNL     1       9.408  -6.228  24.028  0.00  0.00    +0.295 HD
ENDBRANCH  15  17
ENDBRANCH  14  15
BRANCH  14  19
ATOM     19  O   UNL     1       8.246  -4.639  23.052  0.00  0.00    -0.379 OA
ATOM     20  H   UNL     1       7.693  -4.123  22.432  0.00  0.00    +0.211 HD
ENDBRANCH  14  19
ENDBRANCH   1  14
BRANCH   1  21
ATOM     21  C   UNL     1       9.691  -2.391  24.074  0.00  0.00    +0.060 C 
BRANCH  21  22
ATOM     22  C   UNL     1       9.756  -1.074  23.338  0.00  0.00    -0.046 A 
ATOM     23  C   UNL     1      10.363   0.042  23.935  0.00  0.00    +0.004 A 
ATOM     24  C   UNL     1      10.497   1.239  23.230  0.00  0.00    +0.000 A 
ATOM     25  C   UNL     1      10.001   1.341  21.933  0.00  0.00    +0.000 A 
ATOM     26  C   UNL     1       9.365   0.249  21.343  0.00  0.00    +0.000 A 
ATOM     27  C   UNL     1       9.247  -0.956  22.040  0.00  0.00    +0.004 A 
ENDBRANCH  21  22
ENDBRANCH   1  21
TORSDOF 10
ENDMDL
MODEL 6
REMARK VINA RESULT:      -5.6      2.180      4.908
REMARK  Name = 
REMARK  10 active torsions:
REMARK  status: ('A' for Active; 'I' for Inactive)
REMARK    1  A    between atoms: C_2  and  C_3
REMARK    2  A    between atoms: C_2  and  N_10
REMARK    3  A    between atoms: C_2  and  C_21
REMARK    4  A    between atoms: C_3  and  C_4
REMARK    5  A    between atoms: C_11  and  O_13
REMARK    6  A    between atoms: O_13  and  C_14
REMARK    7  A    between atoms: C_14  and  C_15
REMARK    8  A    between atoms: C_21  and  O_23
REMARK    9  A    between atoms: C_21  and  C_24
REMARK   10  A    between atoms: C_24  and  O_25
REMARK                            x       y       z     vdW  Elec       q    Type
REMARK                         _______ _______ _______ _____ _____    ______ ____
ROOT
ATOM      1  C   UNL     1       8.755  -3.408  24.530  0.00  0.00    +0.120 C 
ENDROOT
BRANCH   1   2
ATOM      2  N   UNL     1       8.354  -2.635  25.735  0.00  0.00    -0.275 N 
ATOM      3  H   UNL     1       8.325  -3.204  26.572  0.00  0.00    +0.152 HD
ATOM      4  C   UNL     1       7.169  -1.933  25.727  0.00  0.00    +0.401 C 
ATOM      5  O   UNL     1       7.074  -0.797  26.162  0.00  0.00    -0.226 OA
BRANCH   4   6
ATOM      6  O   UNL     1       6.145  -2.716  25.321  0.00  0.00    -0.446 OA
BRANCH   6   7
ATOM      7  C   UNL     1       5.560  -2.408  24.049  0.00  0.00    +0.269 C 
BRANCH   7   8
ATOM      8  C   UNL     1       5.720  -3.613  23.161  0.00  0.00    -0.010 A 
ATOM      9  C   UNL     1       5.391  -4.886  23.646  0.00  0.00    +0.007 A 
ATOM     10  C   UNL     1       5.503  -6.007  22.822  0.00  0.00    +0.000 A 
ATOM     11  C   UNL     1       5.939  -5.864  21.506  0.00  0.00    +0.000 A 
ATOM     12  C   UNL     1       6.264  -4.603  21.012  0.00  0.00    +0.000 A 
ATOM     13  C   UNL     1       6.152  -3.479  21.834  0.00  0.00    +0.007 A 
ENDBRANCH   7   8
ENDBRANCH   6   7
ENDBRANCH   4   6
ENDBRANCH   1   2
BRANCH   1  14
ATOM     14  C   UNL     1       8.922  -4.908  24.869  0.00  0.00    +0.243 C 
BRANCH  14  15
ATOM     15  C   UNL     1       8.353  -5.242  26.250  0.00  0.00    +0.335 C 
ATOM     16  O   UNL     1       7.259  -5.730  26.471  0.00  0.00    -0.248 OA
BRANCH  15  17
ATOM     17  O   UNL     1       9.242  -4.934  27.232  0.00  0.00    -0.479 OA
ATOM     18  H   UNL     1      10.099  -5.378  27.028  0.00  0.00    +0.295 HD
ENDBRANCH  15  17
ENDBRANCH  14  15
BRANCH  14  19
ATOM     19  O   UNL     1      10.301  -5.325  24.821  0.00  0.00    -0.379 OA
ATOM     20  H   UNL     1      10.790  -4.664  24.293  0.00  0.00    +0.211 HD
ENDBRANCH  14  19
ENDBRANCH   1  14
BRANCH   1  21
ATOM     21  C   UNL     1      10.067  -2.776  23.988  0.00  0.00    +0.060 C 
BRANCH  21  22
ATOM     22  C   UNL     1       9.884  -1.469  23.256  0.00  0.00    -0.046 A 
ATOM     23  C   UNL     1      10.305  -0.264  23.841  0.00  0.00    +0.004 A 
ATOM     24  C   UNL     1      10.212   0.937  23.137  0.00  0.00    +0.000 A 
ATOM     25  C   UNL     1       9.671   0.951  21.855  0.00  0.00    +0.000 A 
ATOM     26  C   UNL     1       9.216  -0.234  21.278  0.00  0.00    +0.000 A 
ATOM     27  C   UNL     1       9.326  -1.441  21.972  0.00  0.00    +0.004 A 
ENDBRANCH  21  22
ENDBRANCH   1  21
TORSDOF 10
ENDMDL
MODEL 7
REMARK VINA RESULT:      -5.5      1.927      4.575
REMARK  Name = 
REMARK  10 active torsions:
REMARK  status: ('A' for Active; 'I' for Inactive)
REMARK    1  A    between atoms: C_2  and  C_3
REMARK    2  A    between atoms: C_2  and  N_10
REMARK    3  A    between atoms: C_2  and  C_21
REMARK    4  A    between atoms: C_3  and  C_4
REMARK    5  A    between atoms: C_11  and  O_13
REMARK    6  A    between atoms: O_13  and  C_14
REMARK    7  A    between atoms: C_14  and  C_15
REMARK    8  A    between atoms: C_21  and  O_23
REMARK    9  A    between atoms: C_21  and  C_24
REMARK   10  A    between atoms: C_24  and  O_25
REMARK                            x       y       z     vdW  Elec       q    Type
REMARK                         _______ _______ _______ _____ _____    ______ ____
ROOT
ATOM      1  C   UNL     1       6.852  -3.763  23.165  0.00  0.00    +0.120 C 
ENDROOT
BRANCH   1   2
ATOM      2  N   UNL     1       7.523  -5.028  23.564  0.00  0.00    -0.275 N 
ATOM      3  H   UNL     1       6.866  -5.774  23.761  0.00  0.00    +0.152 HD
ATOM      4  C   UNL     1       8.402  -5.025  24.624  0.00  0.00    +0.401 C 
ATOM      5  O   UNL     1       9.476  -5.604  24.590  0.00  0.00    -0.226 OA
BRANCH   4   6
ATOM      6  O   UNL     1       7.852  -4.435  25.708  0.00  0.00    -0.446 OA
BRANCH   6   7
ATOM      7  C   UNL     1       8.655  -3.468  26.396  0.00  0.00    +0.269 C 
BRANCH   7   8
ATOM      8  C   UNL     1       7.865  -2.190  26.492  0.00  0.00    -0.010 A 
ATOM      9  C   UNL     1       6.501  -2.187  26.167  0.00  0.00    +0.007 A 
ATOM     10  C   UNL     1       5.750  -1.017  26.283  0.00  0.00    +0.000 A 
ATOM     11  C   UNL     1       6.353   0.158  26.728  0.00  0.00    +0.000 A 
ATOM     12  C   UNL     1       7.707   0.165  27.058  0.00  0.00    +0.000 A 
ATOM     13  C   UNL     1       8.461  -1.005  26.944  0.00  0.00    +0.007 A 
ENDBRANCH   7   8
ENDBRANCH   6   7
ENDBRANCH   4   6
ENDBRANCH   1   2
BRANCH   1  14
ATOM     14  C   UNL     1       5.501  -4.053  22.467  0.00  0.00    +0.243 C 
BRANCH  14  15
ATOM     15  C   UNL     1       5.164  -5.546  22.489  0.00  0.00    +0.335 C 
ATOM     16  O   UNL     1       4.641  -6.145  23.412  0.00  0.00    -0.248 OA
BRANCH  15  17
ATOM     17  O   UNL     1       5.513  -6.142  21.318  0.00  0.00    -0.479 OA
ATOM     18  H   UNL     1       5.434  -5.477  20.593  0.00  0.00    +0.295 HD
ENDBRANCH  15  17
ENDBRANCH  14  15
BRANCH  14  19
ATOM     19  O   UNL     1       5.485  -3.592  21.102  0.00  0.00    -0.379 OA
ATOM     20  H   UNL     1       5.319  -4.368  20.532  0.00  0.00    +0.211 HD
ENDBRANCH  14  19
ENDBRANCH   1  14
BRANCH   1  21
ATOM     21  C   UNL     1       7.834  -2.985  22.247  0.00  0.00    +0.060 C 
BRANCH  21  22
ATOM     22  C   UNL     1       8.363  -1.698  22.833  0.00  0.00    -0.046 A 
ATOM     23  C   UNL     1       9.694  -1.613  23.269  0.00  0.00    +0.004 A 
ATOM     24  C   UNL     1      10.212  -0.405  23.738  0.00  0.00    +0.000 A 
ATOM     25  C   UNL     1       9.396   0.722  23.803  0.00  0.00    +0.000 A 
ATOM     26  C   UNL     1       8.062   0.639  23.406  0.00  0.00    +0.000 A 
ATOM     27  C   UNL     1       7.547  -0.564  22.918  0.00  0.00    +0.004 A 
ENDBRANCH  21  22
ENDBRANCH   1  21
TORSDOF 10
ENDMDL
MODEL 8
REMARK VINA RESULT:      -5.5      2.839      6.480
REMARK  Name = 
REMARK  10 active torsions:
REMARK  status: ('A' for Active; 'I' for Inactive)
REMARK    1  A    between atoms: C_2  and  C_3
REMARK    2  A    between atoms: C_2  and  N_10
REMARK    3  A    between atoms: C_2  and  C_21
REMARK    4  A    between atoms: C_3  and  C_4
REMARK    5  A    between atoms: C_11  and  O_13
REMARK    6  A    between atoms: O_13  and  C_14
REMARK    7  A    between atoms: C_14  and  C_15
REMARK    8  A    between atoms: C_21  and  O_23
REMARK    9  A    between atoms: C_21  and  C_24
REMARK   10  A    between atoms: C_24  and  O_25
REMARK                            x       y       z     vdW  Elec       q    Type
REMARK                         _______ _______ _______ _____ _____    ______ ____
ROOT
ATOM      1  C   UNL     1       8.986  -2.012  23.754  0.00  0.00    +0.120 C 
ENDROOT
BRANCH   1   2
ATOM      2  N   UNL     1       8.629  -1.135  24.900  0.00  0.00    -0.275 N 
ATOM      3  H   UNL     1       9.385  -1.037  25.566  0.00  0.00    +0.152 HD
ATOM      4  C   UNL     1       7.512  -1.422  25.652  0.00  0.00    +0.401 C 
ATOM      5  O   UNL     1       6.718  -0.565  26.005  0.00  0.00    -0.226 OA
BRANCH   4   6
ATOM      6  O   UNL     1       7.511  -2.715  26.045  0.00  0.00    -0.446 OA
BRANCH   6   7
ATOM      7  C   UNL     1       6.378  -3.161  26.800  0.00  0.00    +0.269 C 
BRANCH   7   8
ATOM      8  C   UNL     1       5.548  -4.049  25.913  0.00  0.00    -0.010 A 
ATOM      9  C   UNL     1       5.671  -5.443  26.009  0.00  0.00    +0.007 A 
ATOM     10  C   UNL     1       4.884  -6.278  25.216  0.00  0.00    +0.000 A 
ATOM     11  C   UNL     1       3.964  -5.729  24.323  0.00  0.00    +0.000 A 
ATOM     12  C   UNL     1       3.831  -4.346  24.223  0.00  0.00    +0.000 A 
ATOM     13  C   UNL     1       4.616  -3.507  25.017  0.00  0.00    +0.007 A 
ENDBRANCH   7   8
ENDBRANCH   6   7
ENDBRANCH   4   6
ENDBRANCH   1   2
BRANCH   1  14
ATOM     14  C   UNL     1      10.204  -1.446  22.985  0.00  0.00    +0.243 C 
BRANCH  14  15
ATOM     15  C   UNL     1      10.420   0.039  23.285  0.00  0.00    +0.335 C 
ATOM     16  O   UNL     1      11.087   0.492  24.198  0.00  0.00    -0.248 OA
BRANCH  15  17
ATOM     17  O   UNL     1       9.773   0.819  22.378  0.00  0.00    -0.479 OA
ATOM     18  H   UNL     1       9.736   1.741  22.729  0.00  0.00    +0.295 HD
ENDBRANCH  15  17
ENDBRANCH  14  15
BRANCH  14  19
ATOM     19  O   UNL     1      10.074  -1.619  21.560  0.00  0.00    -0.379 OA
ATOM     20  H   UNL     1       9.225  -2.073  21.395  0.00  0.00    +0.211 HD
ENDBRANCH  14  19
ENDBRANCH   1  14
BRANCH   1  21
ATOM     21  C   UNL     1       7.727  -2.137  22.853  0.00  0.00    +0.060 C 
BRANCH  21  22
ATOM     22  C   UNL     1       7.315  -3.554  22.533  0.00  0.00    -0.046 A 
ATOM     23  C   UNL     1       6.321  -3.803  21.574  0.00  0.00    +0.004 A 
ATOM     24  C   UNL     1       5.992  -5.111  21.216  0.00  0.00    +0.000 A 
ATOM     25  C   UNL     1       6.632  -6.182  21.833  0.00  0.00    +0.000 A 
ATOM     26  C   UNL     1       7.596  -5.946  22.812  0.00  0.00    +0.000 A 
ATOM     27  C   UNL     1       7.942  -4.638  23.159  0.00  0.00    +0.004 A 
ENDBRANCH  21  22
ENDBRANCH   1  21
TORSDOF 10
ENDMDL
MODEL 9
REMARK VINA RESULT:      -5.4      3.866      6.701
REMARK  Name = 
REMARK  10 active torsions:
REMARK  status: ('A' for Active; 'I' for Inactive)
REMARK    1  A    between atoms: C_2  and  C_3
REMARK    2  A    between atoms: C_2  and  N_10
REMARK    3  A    between atoms: C_2  and  C_21
REMARK    4  A    between atoms: C_3  and  C_4
REMARK    5  A    between atoms: C_11  and  O_13
REMARK    6  A    between atoms: O_13  and  C_14
REMARK    7  A    between atoms: C_14  and  C_15
REMARK    8  A    between atoms: C_21  and  O_23
REMARK    9  A    between atoms: C_21  and  C_24
REMARK   10  A    between atoms: C_24  and  O_25
REMARK                            x       y       z     vdW  Elec       q    Type
REMARK                         _______ _______ _______ _____ _____    ______ ____
ROOT
ATOM      1  C   UNL     1       9.676   3.103  23.363  0.00  0.00    +0.120 C 
ENDROOT
BRANCH   1   2
ATOM      2  N   UNL     1       8.443   3.779  22.879  0.00  0.00    -0.275 N 
ATOM      3  H   UNL     1       8.192   4.582  23.444  0.00  0.00    +0.152 HD
ATOM      4  C   UNL     1       7.282   3.053  22.736  0.00  0.00    +0.401 C 
ATOM      5  O   UNL     1       6.555   3.161  21.762  0.00  0.00    -0.226 OA
BRANCH   4   6
ATOM      6  O   UNL     1       7.010   2.348  23.856  0.00  0.00    -0.446 OA
BRANCH   6   7
ATOM      7  C   UNL     1       6.284   1.124  23.690  0.00  0.00    +0.269 C 
BRANCH   7   8
ATOM      8  C   UNL     1       6.808   0.132  24.694  0.00  0.00    -0.010 A 
ATOM      9  C   UNL     1       6.503  -1.229  24.556  0.00  0.00    +0.007 A 
ATOM     10  C   UNL     1       7.010  -2.163  25.461  0.00  0.00    +0.000 A 
ATOM     11  C   UNL     1       7.829  -1.744  26.508  0.00  0.00    +0.000 A 
ATOM     12  C   UNL     1       8.142  -0.394  26.653  0.00  0.00    +0.000 A 
ATOM     13  C   UNL     1       7.638   0.542  25.747  0.00  0.00    +0.007 A 
ENDBRANCH   7   8
ENDBRANCH   6   7
ENDBRANCH   4   6
ENDBRANCH   1   2
BRANCH   1  14
ATOM     14  C   UNL     1      10.747   4.140  23.776  0.00  0.00    +0.243 C 
BRANCH  14  15
ATOM     15  C   UNL     1      10.128   5.512  24.053  0.00  0.00    +0.335 C 
ATOM     16  O   UNL     1       9.771   5.925  25.142  0.00  0.00    -0.248 OA
BRANCH  15  17
ATOM     17  O   UNL     1      10.033   6.244  22.912  0.00  0.00    -0.479 OA
ATOM     18  H   UNL     1      10.945   6.452  22.597  0.00  0.00    +0.295 HD
ENDBRANCH  15  17
ENDBRANCH  14  15
BRANCH  14  19
ATOM     19  O   UNL     1      11.774   4.287  22.775  0.00  0.00    -0.379 OA
ATOM     20  H   UNL     1      12.110   5.203  22.830  0.00  0.00    +0.211 HD
ENDBRANCH  14  19
ENDBRANCH   1  14
BRANCH   1  21
ATOM     21  C   UNL     1      10.169   2.166  22.226  0.00  0.00    +0.060 C 
BRANCH  21  22
ATOM     22  C   UNL     1       9.951   0.694  22.480  0.00  0.00    -0.046 A 
ATOM     23  C   UNL     1       9.234  -0.085  21.559  0.00  0.00    +0.004 A 
ATOM     24  C   UNL     1       9.098  -1.462  21.748  0.00  0.00    +0.000 A 
ATOM     25  C   UNL     1       9.651  -2.067  22.873  0.00  0.00    +0.000 A 
ATOM     26  C   UNL     1      10.335  -1.296  23.813  0.00  0.00    +0.000 A 
ATOM     27  C   UNL     1      10.490   0.079  23.616  0.00  0.00    +0.004 A 
ENDBRANCH  21  22
ENDBRANCH   1  21
TORSDOF 10
ENDMDL
