MODEL 1
REMARK VINA RESULT:      39.6      0.000      0.000
REMARK  Name = 
REMARK  28 active torsions:
REMARK  status: ('A' for Active; 'I' for Inactive)
REMARK    1  A    between atoms: N_1  and  C_2
REMARK    2  A    between atoms: C_2  and  C_3
REMARK    3  A    between atoms: C_3  and  C_4
REMARK    4  A    between atoms: C_4  and  C_5
REMARK    5  A    between atoms: C_5  and  C_6
REMARK    6  A    between atoms: C_6  and  N_8
REMARK    7  A    between atoms: C_6  and  C_87
REMARK    8  A    between atoms: C_9  and  C_11
REMARK    9  A    between atoms: C_17  and  C_19
REMARK   10  A    between atoms: C_25  and  N_27
REMARK   11  A    between atoms: C_28  and  C_30
REMARK   12  A    between atoms: C_30  and  N_31
REMARK   13  A    between atoms: C_32  and  C_34
REMARK   14  A    between atoms: C_34  and  N_35
REMARK   15  A    between atoms: C_36  and  C_38
REMARK   16  A    between atoms: C_38  and  N_39
REMARK   17  A    between atoms: C_43  and  C_45
REMARK   18  A    between atoms: C_45  and  C_46
REMARK   19  A    between atoms: C_49  and  O_50
REMARK   20  A    between atoms: C_56  and  C_58
REMARK   21  A    between atoms: C_58  and  C_59
REMARK   22  A    between atoms: C_68  and  C_70
REMARK   23  A    between atoms: C_70  and  C_71
REMARK   24  A    between atoms: C_71  and  C_72
REMARK   25  A    between atoms: C_78  and  C_80
REMARK   26  A    between atoms: C_80  and  C_81
REMARK   27  A    between atoms: N_89  and  C_90
REMARK   28  A    between atoms: C_90  and  C_91
REMARK                            x       y       z     vdW  Elec       q    Type
REMARK                         _______ _______ _______ _____ _____    ______ ____
ROOT
ATOM      1  C   UNL     1       8.689   0.904  24.335  0.00  0.00    +0.170 C 
ATOM      2  N   UNL     1       7.382  -0.860  25.036  0.00  0.00    -0.302 N 
ATOM      3  H   UNL     1       7.144  -1.100  24.101  0.00  0.00    +0.150 HD
ATOM      4  C   UNL     1       6.367  -2.622  25.951  0.00  0.00    +0.234 C 
ATOM      5  O   UNL     1       6.912  -3.651  25.328  0.00  0.00    -0.274 OA
ATOM      6  C   UNL     1       4.792  -4.204  26.728  0.00  0.00    +0.168 C 
ATOM      7  N   UNL     1       3.467  -5.702  26.201  0.00  0.00    -0.302 N 
ATOM      8  H   UNL     1       3.738  -6.649  26.694  0.00  0.00    +0.150 HD
ATOM      9  C   UNL     1       1.946  -6.674  26.495  0.00  0.00    +0.234 C 
ATOM     10  O   UNL     1       1.860  -7.675  27.295  0.00  0.00    -0.274 OA
ATOM     11  C   UNL     1       0.446  -6.408  25.887  0.00  0.00    +0.159 C 
ATOM     12  N   UNL     1       0.587  -5.234  26.752  0.00  0.00    -0.302 N 
ATOM     13  H   UNL     1       0.606  -5.316  27.763  0.00  0.00    +0.150 HD
ATOM     14  C   UNL     1       1.395  -4.257  26.343  0.00  0.00    +0.234 C 
ATOM     15  O   UNL     1       1.536  -4.197  25.121  0.00  0.00    -0.274 OA
ATOM     16  C   UNL     1       2.288  -3.470  27.373  0.00  0.00    +0.163 C 
ATOM     17  N   UNL     1       2.822  -2.639  26.333  0.00  0.00    -0.302 N 
ATOM     18  H   UNL     1       2.889  -3.211  25.473  0.00  0.00    +0.150 HD
ATOM     19  C   UNL     1       3.994  -2.011  26.446  0.00  0.00    +0.234 C 
ATOM     20  O   UNL     1       4.721  -2.117  27.448  0.00  0.00    -0.274 OA
ATOM     21  C   UNL     1       4.444  -1.316  25.180  0.00  0.00    +0.163 C 
ATOM     22  N   UNL     1       5.175  -0.366  26.020  0.00  0.00    -0.302 N 
ATOM     23  H   UNL     1       5.774  -0.719  26.783  0.00  0.00    +0.150 HD
ATOM     24  C   UNL     1       5.770   0.597  25.353  0.00  0.00    +0.235 C 
ATOM     25  O   UNL     1       5.414   0.785  24.182  0.00  0.00    -0.274 OA
ATOM     26  C   UNL     1       7.081   1.118  26.055  0.00  0.00    +0.169 C 
ATOM     27  C   UNL     1       6.942   2.357  25.056  0.00  0.00    +0.112 C 
ATOM     28  S   UNL     1       7.186   3.726  26.132  0.00  0.00    -0.091 S 
ATOM     29  S   UNL     1       8.532   4.189  24.799  0.00  0.00    -0.091 S 
ATOM     30  C   UNL     1       9.466   2.378  25.384  0.00  0.00    +0.112 C 
ENDROOT
BRANCH   1  33
ATOM     31  C   UNL     1      12.234   5.159  21.350  0.00  0.00    +0.162 C 
ATOM     32  N   UNL     1      11.645   3.984  22.907  0.00  0.00    -0.288 N 
ATOM     33  C   UNL     1      10.084   2.510  23.309  0.00  0.00    +0.237 C 
ATOM     34  O   UNL     1       9.576   2.786  22.204  0.00  0.00    -0.274 OA
ATOM     35  C   UNL     1      13.251   5.091  23.308  0.00  0.00    +0.109 C 
ATOM     36  C   UNL     1      14.406   6.487  22.348  0.00  0.00    +0.021 C 
ATOM     37  C   UNL     1      13.352   6.927  21.431  0.00  0.00    +0.033 C 
BRANCH  31  40
ATOM     38  N   UNL     1      14.309   6.203  19.189  0.00  0.00    -0.302 N 
ATOM     39  H   UNL     1      13.830   7.067  18.958  0.00  0.00    +0.150 HD
ATOM     40  C   UNL     1      13.844   5.142  20.187  0.00  0.00    +0.234 C 
ATOM     41  O   UNL     1      14.823   4.390  20.416  0.00  0.00    -0.274 OA
BRANCH  38  42
ATOM     42  C   UNL     1      15.508   5.930  18.140  0.00  0.00    +0.159 C 
BRANCH  42  43
ATOM     43  C   UNL     1      16.164   4.458  17.883  0.00  0.00    +0.234 C 
ATOM     44  N   UNL     1      15.867   3.808  16.684  0.00  0.00    -0.305 N 
ATOM     45  H   UNL     1      15.186   4.192  16.040  0.00  0.00    +0.149 HD
ATOM     46  O   UNL     1      16.968   3.953  18.669  0.00  0.00    -0.274 OA
BRANCH  44  47
ATOM     47  C   UNL     1      16.438   2.500  16.289  0.00  0.00    +0.199 C 
BRANCH  47  48
ATOM     48  C   UNL     1      17.119   2.522  14.912  0.00  0.00    +0.228 C 
ATOM     49  O   UNL     1      16.641   3.091  13.935  0.00  0.00    -0.274 OA
ATOM     50  N   UNL     1      18.337   1.914  14.830  0.00  0.00    -0.328 N 
ATOM     51  H   UNL     1      18.830   1.945  13.946  0.00  0.00    +0.145 HD
ATOM     52  H   UNL     1      18.794   1.505  15.638  0.00  0.00    +0.145 HD
ENDBRANCH  47  48
ENDBRANCH  44  47
ENDBRANCH  42  43
BRANCH  42  53
ATOM     53  C   UNL     1      16.628   6.779  18.757  0.00  0.00    +0.032 C 
BRANCH  53  54
ATOM     54  C   UNL     1      17.986   6.117  18.912  0.00  0.00    +0.003 C 
BRANCH  54  55
ATOM     55  C   UNL     1      19.091   7.107  18.542  0.00  0.00    +0.015 C 
BRANCH  55  56
ATOM     56  C   UNL     1      20.457   6.491  18.816  0.00  0.00    +0.077 C 
BRANCH  56  57
ATOM     57  N   UNL     1      20.668   6.378  20.251  0.00  0.00    -0.330 NA
ATOM     58  H   UNL     1      20.178   5.556  20.602  0.00  0.00    +0.118 HD
ATOM     59  H   UNL     1      21.658   6.227  20.436  0.00  0.00    +0.118 HD
ENDBRANCH  56  57
ENDBRANCH  55  56
ENDBRANCH  54  55
ENDBRANCH  53  54
ENDBRANCH  42  53
ENDBRANCH  38  42
ENDBRANCH  31  40
ENDBRANCH   1  33
BRANCH  26  60
ATOM     60  N   UNL     1       8.644   0.149  26.383  0.00  0.00    -0.302 N 
ATOM     61  H   UNL     1       9.440   0.410  25.825  0.00  0.00    +0.150 HD
ATOM     62  C   UNL     1       8.862  -1.256  27.241  0.00  0.00    +0.231 C 
ATOM     63  O   UNL     1       7.998  -2.054  27.705  0.00  0.00    -0.274 OA
BRANCH  62  64
ATOM     64  C   UNL     1      10.209  -1.763  27.528  0.00  0.00    +0.200 C 
BRANCH  64  65
ATOM     65  N   UNL     1      10.054  -3.239  27.509  0.00  0.00    -0.305 N 
ATOM     66  H   UNL     1      10.443  -3.780  28.278  0.00  0.00    +0.149 HD
ATOM     67  C   UNL     1       9.862  -3.926  26.316  0.00  0.00    +0.231 C 
ATOM     68  O   UNL     1       9.648  -3.352  25.248  0.00  0.00    -0.274 OA
BRANCH  67  69
ATOM     69  C   UNL     1       9.728  -5.455  26.433  0.00  0.00    +0.200 C 
BRANCH  69  70
ATOM     70  N   UNL     1       8.817  -5.830  27.506  0.00  0.00    -0.306 N 
ATOM     71  H   UNL     1       9.163  -5.943  28.456  0.00  0.00    +0.149 HD
ATOM     72  C   UNL     1       7.503  -6.152  27.254  0.00  0.00    +0.227 C 
ATOM     73  O   UNL     1       7.029  -6.114  26.118  0.00  0.00    -0.274 OA
BRANCH  72  74
ATOM     74  C   UNL     1       6.645  -6.525  28.476  0.00  0.00    +0.174 C 
BRANCH  74  75
ATOM     75  N   UNL     1       7.032  -7.833  29.036  0.00  0.00    -0.322 NA
ATOM     76  H   UNL     1       7.009  -8.521  28.280  0.00  0.00    +0.119 HD
ATOM     77  H   UNL     1       8.011  -7.780  29.321  0.00  0.00    +0.119 HD
ENDBRANCH  74  75
ENDBRANCH  72  74
ENDBRANCH  69  70
ENDBRANCH  67  69
ENDBRANCH  64  65
ENDBRANCH  62  64
ENDBRANCH  26  60
BRANCH  11  78
ATOM     78  C   UNL     1       0.801  -7.929  25.218  0.00  0.00    +0.041 C 
BRANCH  78  79
ATOM     79  C   UNL     1       0.625  -7.718  23.744  0.00  0.00    +0.098 C 
BRANCH  79  80
ATOM     80  C   UNL     1       0.859  -8.919  22.887  0.00  0.00    +0.211 C 
ATOM     81  O   UNL     1       0.622 -10.058  23.271  0.00  0.00    -0.276 OA
ATOM     82  N   UNL     1       1.273  -8.650  21.623  0.00  0.00    -0.329 N 
ATOM     83  H   UNL     1       1.383  -9.431  20.993  0.00  0.00    +0.145 HD
ATOM     84  H   UNL     1       1.477  -7.716  21.289  0.00  0.00    +0.145 HD
ENDBRANCH  79  80
ENDBRANCH  78  79
ENDBRANCH  11  78
BRANCH  21  85
ATOM     85  C   UNL     1       5.191  -2.148  23.839  0.00  0.00    +0.067 C 
BRANCH  85  86
ATOM     86  C   UNL     1       4.638  -3.507  23.583  0.00  0.00    -0.045 A 
ATOM     87  C   UNL     1       3.270  -3.806  23.430  0.00  0.00    +0.007 A 
ATOM     88  C   UNL     1       2.891  -5.056  22.938  0.00  0.00    +0.045 A 
ATOM     89  C   UNL     1       3.876  -5.975  22.612  0.00  0.00    +0.117 A 
ATOM     90  C   UNL     1       5.215  -5.714  22.900  0.00  0.00    +0.045 A 
ATOM     91  C   UNL     1       5.588  -4.492  23.421  0.00  0.00    +0.007 A 
BRANCH  89  92
ATOM     92  O   UNL     1       3.515  -7.116  21.953  0.00  0.00    -0.507 OA
ATOM     93  H   UNL     1       2.733  -6.892  21.419  0.00  0.00    +0.292 HD
ENDBRANCH  89  92
ENDBRANCH  85  86
ENDBRANCH  21  85
BRANCH  16  94
ATOM     94  C   UNL     1       1.824  -3.231  28.848  0.00  0.00    +0.067 C 
BRANCH  94  95
ATOM     95  C   UNL     1       1.829  -1.773  28.991  0.00  0.00    -0.045 A 
ATOM     96  C   UNL     1       2.943  -1.037  29.459  0.00  0.00    +0.004 A 
ATOM     97  C   UNL     1       2.996   0.301  29.101  0.00  0.00    +0.000 A 
ATOM     98  C   UNL     1       2.076   0.784  28.150  0.00  0.00    +0.000 A 
ATOM     99  C   UNL     1       1.054  -0.012  27.627  0.00  0.00    +0.000 A 
ATOM    100  C   UNL     1       0.872  -1.266  28.124  0.00  0.00    +0.004 A 
ENDBRANCH  94  95
ENDBRANCH  16  94
BRANCH   6 101
ATOM    101  C   UNL     1       3.714  -5.386  28.341  0.00  0.00    +0.127 C 
BRANCH 101 102
ATOM    102  C   UNL     1       2.280  -6.423  29.423  0.00  0.00    +0.213 C 
ATOM    103  O   UNL     1       1.086  -5.980  29.725  0.00  0.00    -0.276 OA
ATOM    104  N   UNL     1       2.118  -7.697  30.226  0.00  0.00    -0.329 N 
ATOM    105  H   UNL     1       1.464  -7.503  31.049  0.00  0.00    +0.145 HD
ATOM    106  H   UNL     1       1.385  -8.431  29.958  0.00  0.00    +0.145 HD
ENDBRANCH 101 102
ENDBRANCH   6 101
TORSDOF 28
ENDMDL
