MODEL 1
REMARK VINA RESULT:      -4.7      0.000      0.000
REMARK  Name = 
REMARK  30 active torsions:
REMARK  status: ('A' for Active; 'I' for Inactive)
REMARK    1  A    between atoms: C_1  and  C_2
REMARK    2  A    between atoms: C_2  and  C_3
REMARK    3  A    between atoms: C_8  and  C_10
REMARK    4  A    between atoms: C_11  and  O_13
REMARK    5  A    between atoms: O_13  and  C_14
REMARK    6  A    between atoms: C_17  and  C_18
REMARK    7  A    between atoms: C_17  and  O_19
REMARK    8  A    between atoms: O_19  and  C_20
REMARK    9  A    between atoms: C_21  and  O_23
REMARK   10  A    between atoms: C_24  and  C_26
REMARK   11  A    between atoms: C_28  and  C_30
REMARK   12  A    between atoms: C_31  and  O_33
REMARK   13  A    between atoms: O_33  and  C_34
REMARK   14  A    between atoms: C_37  and  C_39
REMARK   15  A    between atoms: C_41  and  N_46
REMARK   16  A    between atoms: C_43  and  O_45
REMARK   17  A    between atoms: N_46  and  C_47
REMARK   18  A    between atoms: N_46  and  C_48
REMARK   19  A    between atoms: C_49  and  C_50
REMARK   20  A    between atoms: C_49  and  O_51
REMARK   21  A    between atoms: C_53  and  C_55
REMARK   22  A    between atoms: C_59  and  C_61
REMARK   23  A    between atoms: C_61  and  O_62
REMARK   24  A    between atoms: O_62  and  C_63
REMARK   25  A    between atoms: C_63  and  C_64
REMARK   26  A    between atoms: C_64  and  O_65
REMARK   27  A    between atoms: O_65  and  C_66
REMARK   28  A    between atoms: C_70  and  C_72
REMARK   29  A    between atoms: C_73  and  C_74
REMARK   30  A    between atoms: C_73  and  O_75
REMARK                            x       y       z     vdW  Elec       q    Type
REMARK                         _______ _______ _______ _____ _____    ______ ____
ROOT
ATOM      1  C   UNL     1       7.446   1.826  23.163  0.00  0.00    +0.210 C 
ATOM      2  C   UNL     1       7.044   3.378  23.062  0.00  0.00    +0.126 C 
ATOM      3  C   UNL     1       7.160   3.743  21.553  0.00  0.00    +0.048 C 
ATOM      4  C   UNL     1       7.907   4.393  23.953  0.00  0.00    +0.160 C 
ATOM      5  C   UNL     1       8.044   4.263  25.503  0.00  0.00    +0.035 C 
ATOM      6  C   UNL     1       6.966   3.409  25.978  0.00  0.00    +0.012 C 
ATOM      7  C   UNL     1       8.059   5.516  26.485  0.00  0.00    +0.064 C 
ATOM      8  N   UNL     1       8.180   6.779  25.740  0.00  0.00    -0.286 NA
ATOM      9  H   UNL     1       7.285   7.263  25.778  0.00  0.00    +0.125 HD
ATOM     10  C   UNL     1       8.501   6.627  24.325  0.00  0.00    +0.213 C 
ATOM     11  C   UNL     1       6.869   5.596  27.644  0.00  0.00    +0.006 C 
ATOM     12  C   UNL     1       6.870   6.918  28.451  0.00  0.00    +0.009 C 
ATOM     13  C   UNL     1       6.828   4.399  28.731  0.00  0.00    +0.042 C 
ATOM     14  C   UNL     1       5.488   3.489  28.969  0.00  0.00    +0.090 C 
ATOM     15  C   UNL     1       5.212   3.456  30.478  0.00  0.00    +0.044 C 
ATOM     16  C   UNL     1       5.570   2.015  28.272  0.00  0.00    +0.158 C 
ATOM     17  C   UNL     1       5.131   0.571  28.635  0.00  0.00    +0.047 C 
ATOM     18  C   UNL     1       5.139   0.236  30.129  0.00  0.00    +0.013 C 
ATOM     19  C   UNL     1       5.923  -0.484  27.633  0.00  0.00    +0.140 C 
ATOM     20  C   UNL     1       6.086  -0.452  25.973  0.00  0.00    +0.124 C 
ATOM     21  C   UNL     1       4.995  -0.662  24.894  0.00  0.00    +0.022 C 
ATOM     22  C   UNL     1       7.134   0.505  25.365  0.00  0.00    +0.313 C 
ATOM     23  O   UNL     1       8.210   0.735  25.889  0.00  0.00    -0.250 OA
ATOM     24  O   UNL     1       7.551   5.755  23.693  0.00  0.00    -0.353 OA
ATOM     25  O   UNL     1       6.714   1.009  24.150  0.00  0.00    -0.458 OA
ENDROOT
BRANCH   1  27
ATOM     26  C   UNL     1       9.408   0.828  21.891  0.00  0.00    +0.007 C 
ATOM     27  C   UNL     1       8.956   1.569  23.139  0.00  0.00    +0.044 C 
ENDBRANCH   1  27
BRANCH  14  28
ATOM     28  O   UNL     1       4.390   4.254  28.449  0.00  0.00    -0.386 OA
ATOM     29  H   UNL     1       4.376   4.114  27.480  0.00  0.00    +0.210 HD
ENDBRANCH  14  28
BRANCH   2  30
ATOM     30  O   UNL     1       5.643   3.570  23.299  0.00  0.00    -0.383 OA
ATOM     31  H   UNL     1       5.182   3.230  22.508  0.00  0.00    +0.210 HD
ENDBRANCH   2  30
BRANCH  16  32
ATOM     32  O   UNL     1       5.113   2.114  26.920  0.00  0.00    -0.342 OA
BRANCH  32  33
ATOM     33  C   UNL     1       3.764   2.503  26.704  0.00  0.00    +0.281 C 
ATOM     34  C   UNL     1       3.719   3.318  25.404  0.00  0.00    +0.187 C 
ATOM     35  C   UNL     1       2.274   3.478  24.886  0.00  0.00    +0.092 C 
ATOM     36  C   UNL     1       1.345   2.258  25.141  0.00  0.00    +0.053 C 
ATOM     37  C   UNL     1       1.585   1.768  26.549  0.00  0.00    +0.120 C 
ATOM     38  C   UNL     1       0.765   0.580  27.013  0.00  0.00    +0.038 C 
ATOM     39  O   UNL     1       2.937   1.364  26.574  0.00  0.00    -0.346 OA
BRANCH  35  40
ATOM     40  N   UNL     1       2.299   4.013  23.501  0.00  0.00    -0.303 NA
ATOM     41  C   UNL     1       1.593   5.291  23.412  0.00  0.00    +0.105 C 
ATOM     42  C   UNL     1       1.794   3.088  22.480  0.00  0.00    +0.105 C 
ENDBRANCH  35  40
BRANCH  34  43
ATOM     43  O   UNL     1       4.290   4.613  25.660  0.00  0.00    -0.385 OA
ATOM     44  H   UNL     1       4.627   4.894  24.788  0.00  0.00    +0.210 HD
ENDBRANCH  34  43
ENDBRANCH  32  33
ENDBRANCH  16  32
BRANCH  19  45
ATOM     45  O   UNL     1       5.830  -1.841  28.136  0.00  0.00    -0.347 OA
BRANCH  45  46
ATOM     46  C   UNL     1       4.783  -2.696  27.712  0.00  0.00    +0.254 C 
ATOM     47  O   UNL     1       4.344  -3.516  28.803  0.00  0.00    -0.346 OA
ATOM     48  C   UNL     1       5.339  -4.460  29.238  0.00  0.00    +0.149 C 
ATOM     49  C   UNL     1       4.708  -5.239  30.384  0.00  0.00    +0.041 C 
ATOM     50  C   UNL     1       5.802  -5.414  28.102  0.00  0.00    +0.175 C 
ATOM     51  C   UNL     1       6.323  -4.574  26.907  0.00  0.00    +0.099 C 
ATOM     52  C   UNL     1       6.679  -5.384  25.650  0.00  0.00    +0.044 C 
ATOM     53  C   UNL     1       5.119  -3.643  26.578  0.00  0.00    +0.098 C 
BRANCH  51  54
ATOM     54  O   UNL     1       7.469  -3.790  27.257  0.00  0.00    -0.374 OA
ATOM     55  C   UNL     1       8.439  -3.432  26.287  0.00  0.00    +0.194 C 
ENDBRANCH  51  54
BRANCH  50  56
ATOM     56  O   UNL     1       6.741  -6.370  28.599  0.00  0.00    -0.386 OA
ATOM     57  H   UNL     1       7.536  -6.346  28.049  0.00  0.00    +0.210 HD
ENDBRANCH  50  56
ENDBRANCH  45  46
ENDBRANCH  19  45
BRANCH  10  58
ATOM     58  C   UNL     1       9.982   6.246  24.006  0.00  0.00    +0.207 C 
BRANCH  58  59
ATOM     59  O   UNL     1      10.905   6.791  24.973  0.00  0.00    -0.374 OA
BRANCH  59  60
ATOM     60  C   UNL     1      12.270   6.415  24.768  0.00  0.00    +0.188 C 
BRANCH  60  61
ATOM     61  C   UNL     1      12.324   5.230  23.813  0.00  0.00    +0.187 C 
BRANCH  61  62
ATOM     62  O   UNL     1      13.587   5.096  23.183  0.00  0.00    -0.381 OA
ATOM     63  C   UNL     1      13.542   5.766  21.926  0.00  0.00    +0.194 C 
ENDBRANCH  61  62
ENDBRANCH  60  61
ENDBRANCH  59  60
ENDBRANCH  58  59
ENDBRANCH  10  58
TORSDOF 16
ENDMDL
MODEL 2
REMARK VINA RESULT:      -3.9      2.353      6.025
REMARK  Name = 
REMARK  30 active torsions:
REMARK  status: ('A' for Active; 'I' for Inactive)
REMARK    1  A    between atoms: C_1  and  C_2
REMARK    2  A    between atoms: C_2  and  C_3
REMARK    3  A    between atoms: C_8  and  C_10
REMARK    4  A    between atoms: C_11  and  O_13
REMARK    5  A    between atoms: O_13  and  C_14
REMARK    6  A    between atoms: C_17  and  C_18
REMARK    7  A    between atoms: C_17  and  O_19
REMARK    8  A    between atoms: O_19  and  C_20
REMARK    9  A    between atoms: C_21  and  O_23
REMARK   10  A    between atoms: C_24  and  C_26
REMARK   11  A    between atoms: C_28  and  C_30
REMARK   12  A    between atoms: C_31  and  O_33
REMARK   13  A    between atoms: O_33  and  C_34
REMARK   14  A    between atoms: C_37  and  C_39
REMARK   15  A    between atoms: C_41  and  N_46
REMARK   16  A    between atoms: C_43  and  O_45
REMARK   17  A    between atoms: N_46  and  C_47
REMARK   18  A    between atoms: N_46  and  C_48
REMARK   19  A    between atoms: C_49  and  C_50
REMARK   20  A    between atoms: C_49  and  O_51
REMARK   21  A    between atoms: C_53  and  C_55
REMARK   22  A    between atoms: C_59  and  C_61
REMARK   23  A    between atoms: C_61  and  O_62
REMARK   24  A    between atoms: O_62  and  C_63
REMARK   25  A    between atoms: C_63  and  C_64
REMARK   26  A    between atoms: C_64  and  O_65
REMARK   27  A    between atoms: O_65  and  C_66
REMARK   28  A    between atoms: C_70  and  C_72
REMARK   29  A    between atoms: C_73  and  C_74
REMARK   30  A    between atoms: C_73  and  O_75
REMARK                            x       y       z     vdW  Elec       q    Type
REMARK                         _______ _______ _______ _____ _____    ______ ____
ROOT
ATOM      1  C   UNL     1       2.091   3.467  26.272  0.00  0.00    +0.210 C 
ATOM      2  C   UNL     1       2.520   4.996  26.028  0.00  0.00    +0.126 C 
ATOM      3  C   UNL     1       1.291   5.849  26.457  0.00  0.00    +0.048 C 
ATOM      4  C   UNL     1       2.973   5.376  24.537  0.00  0.00    +0.160 C 
ATOM      5  C   UNL     1       4.142   4.658  23.792  0.00  0.00    +0.035 C 
ATOM      6  C   UNL     1       4.954   3.974  24.788  0.00  0.00    +0.012 C 
ATOM      7  C   UNL     1       5.175   5.421  22.851  0.00  0.00    +0.064 C 
ATOM      8  N   UNL     1       4.738   6.800  22.585  0.00  0.00    -0.286 NA
ATOM      9  H   UNL     1       5.347   7.436  23.098  0.00  0.00    +0.125 HD
ATOM     10  C   UNL     1       3.377   7.106  23.013  0.00  0.00    +0.213 C 
ATOM     11  C   UNL     1       6.785   5.353  23.265  0.00  0.00    +0.006 C 
ATOM     12  C   UNL     1       7.694   6.246  22.385  0.00  0.00    +0.009 C 
ATOM     13  C   UNL     1       7.470   3.889  23.291  0.00  0.00    +0.042 C 
ATOM     14  C   UNL     1       8.220   3.304  24.623  0.00  0.00    +0.090 C 
ATOM     15  C   UNL     1       9.599   2.788  24.191  0.00  0.00    +0.044 C 
ATOM     16  C   UNL     1       7.326   2.215  25.447  0.00  0.00    +0.158 C 
ATOM     17  C   UNL     1       7.589   0.888  26.211  0.00  0.00    +0.047 C 
ATOM     18  C   UNL     1       8.744   0.038  25.675  0.00  0.00    +0.013 C 
ATOM     19  C   UNL     1       6.139   0.118  26.432  0.00  0.00    +0.140 C 
ATOM     20  C   UNL     1       4.698   0.715  27.023  0.00  0.00    +0.124 C 
ATOM     21  C   UNL     1       4.367   1.184  28.462  0.00  0.00    +0.022 C 
ATOM     22  C   UNL     1       3.813   1.547  26.071  0.00  0.00    +0.313 C 
ATOM     23  O   UNL     1       3.702   1.304  24.881  0.00  0.00    -0.250 OA
ATOM     24  O   UNL     1       3.210   6.781  24.402  0.00  0.00    -0.353 OA
ATOM     25  O   UNL     1       3.142   2.546  26.747  0.00  0.00    -0.458 OA
ENDROOT
BRANCH   1  27
ATOM     26  C   UNL     1       0.474   1.624  25.603  0.00  0.00    +0.007 C 
ATOM     27  C   UNL     1       1.203   2.883  25.167  0.00  0.00    +0.044 C 
ENDBRANCH   1  27
BRANCH  14  28
ATOM     28  O   UNL     1       8.535   4.446  25.436  0.00  0.00    -0.386 OA
ATOM     29  H   UNL     1       9.128   4.135  26.150  0.00  0.00    +0.210 HD
ENDBRANCH  14  28
BRANCH   2  30
ATOM     30  O   UNL     1       3.509   5.417  26.975  0.00  0.00    -0.383 OA
ATOM     31  H   UNL     1       3.055   6.015  27.599  0.00  0.00    +0.210 HD
ENDBRANCH   2  30
BRANCH  16  32
ATOM     32  O   UNL     1       6.486   2.909  26.375  0.00  0.00    -0.342 OA
BRANCH  32  33
ATOM     33  C   UNL     1       7.057   3.310  27.612  0.00  0.00    +0.281 C 
ATOM     34  C   UNL     1       6.288   4.548  28.097  0.00  0.00    +0.187 C 
ATOM     35  C   UNL     1       6.575   4.845  29.583  0.00  0.00    +0.092 C 
ATOM     36  C   UNL     1       6.789   3.591  30.477  0.00  0.00    +0.053 C 
ATOM     37  C   UNL     1       7.668   2.621  29.725  0.00  0.00    +0.120 C 
ATOM     38  C   UNL     1       8.015   1.322  30.426  0.00  0.00    +0.038 C 
ATOM     39  O   UNL     1       6.935   2.276  28.569  0.00  0.00    -0.346 OA
BRANCH  35  40
ATOM     40  N   UNL     1       5.609   5.856  30.083  0.00  0.00    -0.303 NA
ATOM     41  C   UNL     1       4.261   5.297  30.188  0.00  0.00    +0.105 C 
ATOM     42  C   UNL     1       5.576   7.104  29.310  0.00  0.00    +0.105 C 
ENDBRANCH  35  40
BRANCH  34  43
ATOM     43  O   UNL     1       6.683   5.671  27.291  0.00  0.00    -0.385 OA
ATOM     44  H   UNL     1       7.523   5.962  27.695  0.00  0.00    +0.210 HD
ENDBRANCH  34  43
ENDBRANCH  32  33
ENDBRANCH  16  32
BRANCH  19  45
ATOM     45  O   UNL     1       6.345  -1.265  26.821  0.00  0.00    -0.347 OA
BRANCH  45  46
ATOM     46  C   UNL     1       5.247  -2.153  26.933  0.00  0.00    +0.254 C 
ATOM     47  O   UNL     1       5.657  -3.362  27.585  0.00  0.00    -0.346 OA
ATOM     48  C   UNL     1       6.586  -4.138  26.805  0.00  0.00    +0.149 C 
ATOM     49  C   UNL     1       6.903  -5.373  27.637  0.00  0.00    +0.041 C 
ATOM     50  C   UNL     1       6.021  -4.532  25.413  0.00  0.00    +0.175 C 
ATOM     51  C   UNL     1       5.596  -3.251  24.649  0.00  0.00    +0.099 C 
ATOM     52  C   UNL     1       4.883  -3.499  23.310  0.00  0.00    +0.044 C 
ATOM     53  C   UNL     1       4.597  -2.571  25.630  0.00  0.00    +0.098 C 
BRANCH  51  54
ATOM     54  O   UNL     1       6.705  -2.381  24.395  0.00  0.00    -0.374 OA
ATOM     55  C   UNL     1       7.201  -2.186  23.082  0.00  0.00    +0.194 C 
ENDBRANCH  51  54
BRANCH  50  56
ATOM     56  O   UNL     1       6.954  -5.352  24.705  0.00  0.00    -0.386 OA
ATOM     57  H   UNL     1       6.492  -5.812  23.991  0.00  0.00    +0.210 HD
ENDBRANCH  50  56
ENDBRANCH  45  46
ENDBRANCH  19  45
BRANCH  10  58
ATOM     58  C   UNL     1       2.242   6.524  22.112  0.00  0.00    +0.207 C 
BRANCH  58  59
ATOM     59  O   UNL     1       2.754   5.953  20.889  0.00  0.00    -0.374 OA
BRANCH  59  60
ATOM     60  C   UNL     1       1.749   5.575  19.944  0.00  0.00    +0.188 C 
BRANCH  60  61
ATOM     61  C   UNL     1       1.873   4.086  19.651  0.00  0.00    +0.187 C 
BRANCH  61  62
ATOM     62  O   UNL     1       0.751   3.347  20.105  0.00  0.00    -0.381 OA
ATOM     63  C   UNL     1       1.140   2.576  21.239  0.00  0.00    +0.194 C 
ENDBRANCH  61  62
ENDBRANCH  60  61
ENDBRANCH  59  60
ENDBRANCH  58  59
ENDBRANCH  10  58
TORSDOF 16
ENDMDL
MODEL 3
REMARK VINA RESULT:      -3.7      2.478      7.525
REMARK  Name = 
REMARK  30 active torsions:
REMARK  status: ('A' for Active; 'I' for Inactive)
REMARK    1  A    between atoms: C_1  and  C_2
REMARK    2  A    between atoms: C_2  and  C_3
REMARK    3  A    between atoms: C_8  and  C_10
REMARK    4  A    between atoms: C_11  and  O_13
REMARK    5  A    between atoms: O_13  and  C_14
REMARK    6  A    between atoms: C_17  and  C_18
REMARK    7  A    between atoms: C_17  and  O_19
REMARK    8  A    between atoms: O_19  and  C_20
REMARK    9  A    between atoms: C_21  and  O_23
REMARK   10  A    between atoms: C_24  and  C_26
REMARK   11  A    between atoms: C_28  and  C_30
REMARK   12  A    between atoms: C_31  and  O_33
REMARK   13  A    between atoms: O_33  and  C_34
REMARK   14  A    between atoms: C_37  and  C_39
REMARK   15  A    between atoms: C_41  and  N_46
REMARK   16  A    between atoms: C_43  and  O_45
REMARK   17  A    between atoms: N_46  and  C_47
REMARK   18  A    between atoms: N_46  and  C_48
REMARK   19  A    between atoms: C_49  and  C_50
REMARK   20  A    between atoms: C_49  and  O_51
REMARK   21  A    between atoms: C_53  and  C_55
REMARK   22  A    between atoms: C_59  and  C_61
REMARK   23  A    between atoms: C_61  and  O_62
REMARK   24  A    between atoms: O_62  and  C_63
REMARK   25  A    between atoms: C_63  and  C_64
REMARK   26  A    between atoms: C_64  and  O_65
REMARK   27  A    between atoms: O_65  and  C_66
REMARK   28  A    between atoms: C_70  and  C_72
REMARK   29  A    between atoms: C_73  and  C_74
REMARK   30  A    between atoms: C_73  and  O_75
REMARK                            x       y       z     vdW  Elec       q    Type
REMARK                         _______ _______ _______ _____ _____    ______ ____
ROOT
ATOM      1  C   UNL     1       5.212  -0.666  25.654  0.00  0.00    +0.210 C 
ATOM      2  C   UNL     1       6.033  -1.037  24.323  0.00  0.00    +0.126 C 
ATOM      3  C   UNL     1       5.544  -2.456  23.911  0.00  0.00    +0.048 C 
ATOM      4  C   UNL     1       7.631  -1.007  24.445  0.00  0.00    +0.160 C 
ATOM      5  C   UNL     1       8.430   0.255  24.897  0.00  0.00    +0.035 C 
ATOM      6  C   UNL     1       7.560   1.412  24.746  0.00  0.00    +0.012 C 
ATOM      7  C   UNL     1       9.822   0.683  24.256  0.00  0.00    +0.064 C 
ATOM      8  N   UNL     1      10.360  -0.378  23.389  0.00  0.00    -0.286 NA
ATOM      9  H   UNL     1      10.274  -0.077  22.420  0.00  0.00    +0.125 HD
ATOM     10  C   UNL     1       9.664  -1.657  23.482  0.00  0.00    +0.213 C 
ATOM     11  C   UNL     1       9.906   2.176  23.527  0.00  0.00    +0.006 C 
ATOM     12  C   UNL     1      11.247   2.442  22.799  0.00  0.00    +0.009 C 
ATOM     13  C   UNL     1       9.633   3.462  24.467  0.00  0.00    +0.042 C 
ATOM     14  C   UNL     1       8.472   4.562  24.119  0.00  0.00    +0.090 C 
ATOM     15  C   UNL     1       9.112   5.954  24.196  0.00  0.00    +0.044 C 
ATOM     16  C   UNL     1       7.125   4.394  25.026  0.00  0.00    +0.158 C 
ATOM     17  C   UNL     1       6.102   5.341  25.712  0.00  0.00    +0.047 C 
ATOM     18  C   UNL     1       6.667   6.680  26.193  0.00  0.00    +0.013 C 
ATOM     19  C   UNL     1       5.234   4.461  26.814  0.00  0.00    +0.140 C 
ATOM     20  C   UNL     1       4.457   2.996  26.628  0.00  0.00    +0.124 C 
ATOM     21  C   UNL     1       3.203   2.672  25.778  0.00  0.00    +0.022 C 
ATOM     22  C   UNL     1       5.312   1.711  26.668  0.00  0.00    +0.313 C 
ATOM     23  O   UNL     1       6.278   1.576  27.398  0.00  0.00    -0.250 OA
ATOM     24  O   UNL     1       8.259  -1.474  23.246  0.00  0.00    -0.353 OA
ATOM     25  O   UNL     1       4.810   0.744  25.820  0.00  0.00    -0.458 OA
ENDROOT
BRANCH   1  27
ATOM     26  C   UNL     1       4.725  -2.131  27.674  0.00  0.00    +0.007 C 
ATOM     27  C   UNL     1       5.766  -1.311  26.929  0.00  0.00    +0.044 C 
ENDBRANCH   1  27
BRANCH  14  28
ATOM     28  O   UNL     1       8.184   4.407  22.721  0.00  0.00    -0.386 OA
ATOM     29  H   UNL     1       8.340   5.277  22.298  0.00  0.00    +0.210 HD
ENDBRANCH  14  28
BRANCH   2  30
ATOM     30  O   UNL     1       5.602  -0.246  23.208  0.00  0.00    -0.383 OA
ATOM     31  H   UNL     1       6.227   0.501  23.143  0.00  0.00    +0.210 HD
ENDBRANCH   2  30
BRANCH  16  32
ATOM     32  O   UNL     1       6.252   3.453  24.393  0.00  0.00    -0.342 OA
BRANCH  32  33
ATOM     33  C   UNL     1       5.570   3.869  23.218  0.00  0.00    +0.281 C 
ATOM     34  C   UNL     1       4.165   3.251  23.254  0.00  0.00    +0.187 C 
ATOM     35  C   UNL     1       3.226   3.920  22.230  0.00  0.00    +0.092 C 
ATOM     36  C   UNL     1       3.464   5.441  22.014  0.00  0.00    +0.053 C 
ATOM     37  C   UNL     1       4.953   5.678  21.930  0.00  0.00    +0.120 C 
ATOM     38  C   UNL     1       5.411   7.107  21.707  0.00  0.00    +0.038 C 
ATOM     39  O   UNL     1       5.463   5.279  23.185  0.00  0.00    -0.346 OA
BRANCH  35  40
ATOM     40  N   UNL     1       1.826   3.501  22.492  0.00  0.00    -0.303 NA
ATOM     41  C   UNL     1       1.299   2.691  21.394  0.00  0.00    +0.105 C 
ATOM     42  C   UNL     1       0.903   4.603  22.789  0.00  0.00    +0.105 C 
ENDBRANCH  35  40
BRANCH  34  43
ATOM     43  O   UNL     1       4.280   1.847  22.964  0.00  0.00    -0.385 OA
ATOM     44  H   UNL     1       4.331   1.816  21.989  0.00  0.00    +0.210 HD
ENDBRANCH  34  43
ENDBRANCH  32  33
ENDBRANCH  16  32
BRANCH  19  45
ATOM     45  O   UNL     1       4.516   5.337  27.721  0.00  0.00    -0.347 OA
BRANCH  45  46
ATOM     46  C   UNL     1       4.662   5.196  29.123  0.00  0.00    +0.254 C 
ATOM     47  O   UNL     1       4.305   3.868  29.525  0.00  0.00    -0.346 OA
ATOM     48  C   UNL     1       2.906   3.578  29.343  0.00  0.00    +0.149 C 
ATOM     49  C   UNL     1       2.708   2.146  29.820  0.00  0.00    +0.041 C 
ATOM     50  C   UNL     1       1.983   4.558  30.117  0.00  0.00    +0.175 C 
ATOM     51  C   UNL     1       2.305   6.014  29.690  0.00  0.00    +0.099 C 
ATOM     52  C   UNL     1       1.566   7.103  30.484  0.00  0.00    +0.044 C 
ATOM     53  C   UNL     1       3.831   6.135  29.974  0.00  0.00    +0.098 C 
BRANCH  51  54
ATOM     54  O   UNL     1       2.044   6.239  28.300  0.00  0.00    -0.374 OA
ATOM     55  C   UNL     1       0.952   7.037  27.876  0.00  0.00    +0.194 C 
ENDBRANCH  51  54
BRANCH  50  56
ATOM     56  O   UNL     1       0.611   4.191  29.955  0.00  0.00    -0.386 OA
ATOM     57  H   UNL     1       0.283   3.819  30.785  0.00  0.00    +0.210 HD
ENDBRANCH  50  56
ENDBRANCH  45  46
ENDBRANCH  19  45
BRANCH  10  58
ATOM     58  C   UNL     1       9.961  -2.494  24.767  0.00  0.00    +0.207 C 
BRANCH  58  59
ATOM     59  O   UNL     1      10.334  -3.854  24.457  0.00  0.00    -0.374 OA
BRANCH  59  60
ATOM     60  C   UNL     1       9.716  -4.842  25.286  0.00  0.00    +0.188 C 
BRANCH  60  61
ATOM     61  C   UNL     1       8.401  -4.295  25.822  0.00  0.00    +0.187 C 
BRANCH  61  62
ATOM     62  O   UNL     1       8.202  -4.601  27.192  0.00  0.00    -0.381 OA
ATOM     63  C   UNL     1       6.897  -5.153  27.350  0.00  0.00    +0.194 C 
ENDBRANCH  61  62
ENDBRANCH  60  61
ENDBRANCH  59  60
ENDBRANCH  58  59
ENDBRANCH  10  58
TORSDOF 16
ENDMDL
MODEL 4
REMARK VINA RESULT:      -2.6      2.702      6.097
REMARK  Name = 
REMARK  30 active torsions:
REMARK  status: ('A' for Active; 'I' for Inactive)
REMARK    1  A    between atoms: C_1  and  C_2
REMARK    2  A    between atoms: C_2  and  C_3
REMARK    3  A    between atoms: C_8  and  C_10
REMARK    4  A    between atoms: C_11  and  O_13
REMARK    5  A    between atoms: O_13  and  C_14
REMARK    6  A    between atoms: C_17  and  C_18
REMARK    7  A    between atoms: C_17  and  O_19
REMARK    8  A    between atoms: O_19  and  C_20
REMARK    9  A    between atoms: C_21  and  O_23
REMARK   10  A    between atoms: C_24  and  C_26
REMARK   11  A    between atoms: C_28  and  C_30
REMARK   12  A    between atoms: C_31  and  O_33
REMARK   13  A    between atoms: O_33  and  C_34
REMARK   14  A    between atoms: C_37  and  C_39
REMARK   15  A    between atoms: C_41  and  N_46
REMARK   16  A    between atoms: C_43  and  O_45
REMARK   17  A    between atoms: N_46  and  C_47
REMARK   18  A    between atoms: N_46  and  C_48
REMARK   19  A    between atoms: C_49  and  C_50
REMARK   20  A    between atoms: C_49  and  O_51
REMARK   21  A    between atoms: C_53  and  C_55
REMARK   22  A    between atoms: C_59  and  C_61
REMARK   23  A    between atoms: C_61  and  O_62
REMARK   24  A    between atoms: O_62  and  C_63
REMARK   25  A    between atoms: C_63  and  C_64
REMARK   26  A    between atoms: C_64  and  O_65
REMARK   27  A    between atoms: O_65  and  C_66
REMARK   28  A    between atoms: C_70  and  C_72
REMARK   29  A    between atoms: C_73  and  C_74
REMARK   30  A    between atoms: C_73  and  O_75
REMARK                            x       y       z     vdW  Elec       q    Type
REMARK                         _______ _______ _______ _____ _____    ______ ____
ROOT
ATOM      1  C   UNL     1       2.228   3.301  25.842  0.00  0.00    +0.210 C 
ATOM      2  C   UNL     1       2.596   4.857  25.678  0.00  0.00    +0.126 C 
ATOM      3  C   UNL     1       1.296   5.634  26.038  0.00  0.00    +0.048 C 
ATOM      4  C   UNL     1       3.140   5.308  24.239  0.00  0.00    +0.160 C 
ATOM      5  C   UNL     1       4.397   4.674  23.564  0.00  0.00    +0.035 C 
ATOM      6  C   UNL     1       5.165   3.996  24.598  0.00  0.00    +0.012 C 
ATOM      7  C   UNL     1       5.457   5.517  22.729  0.00  0.00    +0.064 C 
ATOM      8  N   UNL     1       4.973   6.882  22.472  0.00  0.00    -0.286 NA
ATOM      9  H   UNL     1       5.508   7.529  23.049  0.00  0.00    +0.125 HD
ATOM     10  C   UNL     1       3.570   7.107  22.803  0.00  0.00    +0.213 C 
ATOM     11  C   UNL     1       7.033   5.513  23.263  0.00  0.00    +0.006 C 
ATOM     12  C   UNL     1       7.959   6.478  22.483  0.00  0.00    +0.009 C 
ATOM     13  C   UNL     1       7.788   4.083  23.296  0.00  0.00    +0.042 C 
ATOM     14  C   UNL     1       8.464   3.491  24.664  0.00  0.00    +0.090 C 
ATOM     15  C   UNL     1       9.896   3.056  24.323  0.00  0.00    +0.044 C 
ATOM     16  C   UNL     1       7.568   2.332  25.384  0.00  0.00    +0.158 C 
ATOM     17  C   UNL     1       7.838   0.995  26.125  0.00  0.00    +0.047 C 
ATOM     18  C   UNL     1       9.072   0.220  25.654  0.00  0.00    +0.013 C 
ATOM     19  C   UNL     1       6.418   0.148  26.212  0.00  0.00    +0.140 C 
ATOM     20  C   UNL     1       4.908   0.655  26.708  0.00  0.00    +0.124 C 
ATOM     21  C   UNL     1       4.446   1.058  28.131  0.00  0.00    +0.022 C 
ATOM     22  C   UNL     1       4.055   1.475  25.716  0.00  0.00    +0.313 C 
ATOM     23  O   UNL     1       4.046   1.268  24.514  0.00  0.00    -0.250 OA
ATOM     24  O   UNL     1       3.315   6.727  24.164  0.00  0.00    -0.353 OA
ATOM     25  O   UNL     1       3.286   2.417  26.368  0.00  0.00    -0.458 OA
ENDROOT
BRANCH   1  27
ATOM     26  C   UNL     1       0.673   3.763  23.885  0.00  0.00    +0.007 C 
ATOM     27  C   UNL     1       1.456   2.713  24.656  0.00  0.00    +0.044 C 
ENDBRANCH   1  27
BRANCH  14  28
ATOM     28  O   UNL     1       8.658   4.618  25.532  0.00  0.00    -0.386 OA
ATOM     29  H   UNL     1       8.262   4.386  26.397  0.00  0.00    +0.210 HD
ENDBRANCH  14  28
BRANCH   2  30
ATOM     30  O   UNL     1       3.489   5.293  26.710  0.00  0.00    -0.383 OA
ATOM     31  H   UNL     1       2.965   5.866  27.303  0.00  0.00    +0.210 HD
ENDBRANCH   2  30
BRANCH  16  32
ATOM     32  O   UNL     1       6.626   2.953  26.265  0.00  0.00    -0.342 OA
BRANCH  32  33
ATOM     33  C   UNL     1       7.092   3.380  27.537  0.00  0.00    +0.281 C 
ATOM     34  C   UNL     1       6.225   4.571  27.972  0.00  0.00    +0.187 C 
ATOM     35  C   UNL     1       6.399   4.878  29.474  0.00  0.00    +0.092 C 
ATOM     36  C   UNL     1       6.625   3.634  30.378  0.00  0.00    +0.053 C 
ATOM     37  C   UNL     1       7.604   2.718  29.684  0.00  0.00    +0.120 C 
ATOM     38  C   UNL     1       7.978   1.437  30.405  0.00  0.00    +0.038 C 
ATOM     39  O   UNL     1       6.967   2.337  28.483  0.00  0.00    -0.346 OA
BRANCH  35  40
ATOM     40  N   UNL     1       5.347   5.831  29.910  0.00  0.00    -0.303 NA
ATOM     41  C   UNL     1       4.028   5.199  29.922  0.00  0.00    +0.105 C 
ATOM     42  C   UNL     1       5.298   7.081  29.142  0.00  0.00    +0.105 C 
ENDBRANCH  35  40
BRANCH  34  43
ATOM     43  O   UNL     1       6.607   5.718  27.193  0.00  0.00    -0.385 OA
ATOM     44  H   UNL     1       7.289   5.369  26.587  0.00  0.00    +0.210 HD
ENDBRANCH  34  43
ENDBRANCH  32  33
ENDBRANCH  16  32
BRANCH  19  45
ATOM     45  O   UNL     1       6.664  -1.235  26.573  0.00  0.00    -0.347 OA
BRANCH  45  46
ATOM     46  C   UNL     1       7.544  -2.035  25.803  0.00  0.00    +0.254 C 
ATOM     47  O   UNL     1       6.961  -2.318  24.525  0.00  0.00    -0.346 OA
ATOM     48  C   UNL     1       5.795  -3.159  24.607  0.00  0.00    +0.149 C 
ATOM     49  C   UNL     1       5.318  -3.358  23.176  0.00  0.00    +0.041 C 
ATOM     50  C   UNL     1       6.083  -4.521  25.296  0.00  0.00    +0.175 C 
ATOM     51  C   UNL     1       6.683  -4.270  26.704  0.00  0.00    +0.099 C 
ATOM     52  C   UNL     1       7.154  -5.531  27.444  0.00  0.00    +0.044 C 
ATOM     53  C   UNL     1       7.921  -3.374  26.404  0.00  0.00    +0.098 C 
BRANCH  51  54
ATOM     54  O   UNL     1       5.771  -3.577  27.563  0.00  0.00    -0.374 OA
ATOM     55  C   UNL     1       4.928  -4.279  28.460  0.00  0.00    +0.194 C 
ENDBRANCH  51  54
BRANCH  50  56
ATOM     56  O   UNL     1       4.912  -5.341  25.297  0.00  0.00    -0.386 OA
ATOM     57  H   UNL     1       4.523  -5.334  26.182  0.00  0.00    +0.210 HD
ENDBRANCH  50  56
ENDBRANCH  45  46
ENDBRANCH  19  45
BRANCH  10  58
ATOM     58  C   UNL     1       2.535   6.502  21.800  0.00  0.00    +0.207 C 
BRANCH  58  59
ATOM     59  O   UNL     1       2.897   6.755  20.425  0.00  0.00    -0.374 OA
BRANCH  59  60
ATOM     60  C   UNL     1       1.825   6.598  19.491  0.00  0.00    +0.188 C 
BRANCH  60  61
ATOM     61  C   UNL     1       2.346   6.852  18.084  0.00  0.00    +0.187 C 
BRANCH  61  62
ATOM     62  O   UNL     1       1.802   5.954  17.131  0.00  0.00    -0.381 OA
ATOM     63  C   UNL     1       1.329   6.705  16.015  0.00  0.00    +0.194 C 
ENDBRANCH  61  62
ENDBRANCH  60  61
ENDBRANCH  59  60
ENDBRANCH  58  59
ENDBRANCH  10  58
TORSDOF 16
ENDMDL
MODEL 5
REMARK VINA RESULT:      -2.5      2.950      7.112
REMARK  Name = 
REMARK  30 active torsions:
REMARK  status: ('A' for Active; 'I' for Inactive)
REMARK    1  A    between atoms: C_1  and  C_2
REMARK    2  A    between atoms: C_2  and  C_3
REMARK    3  A    between atoms: C_8  and  C_10
REMARK    4  A    between atoms: C_11  and  O_13
REMARK    5  A    between atoms: O_13  and  C_14
REMARK    6  A    between atoms: C_17  and  C_18
REMARK    7  A    between atoms: C_17  and  O_19
REMARK    8  A    between atoms: O_19  and  C_20
REMARK    9  A    between atoms: C_21  and  O_23
REMARK   10  A    between atoms: C_24  and  C_26
REMARK   11  A    between atoms: C_28  and  C_30
REMARK   12  A    between atoms: C_31  and  O_33
REMARK   13  A    between atoms: O_33  and  C_34
REMARK   14  A    between atoms: C_37  and  C_39
REMARK   15  A    between atoms: C_41  and  N_46
REMARK   16  A    between atoms: C_43  and  O_45
REMARK   17  A    between atoms: N_46  and  C_47
REMARK   18  A    between atoms: N_46  and  C_48
REMARK   19  A    between atoms: C_49  and  C_50
REMARK   20  A    between atoms: C_49  and  O_51
REMARK   21  A    between atoms: C_53  and  C_55
REMARK   22  A    between atoms: C_59  and  C_61
REMARK   23  A    between atoms: C_61  and  O_62
REMARK   24  A    between atoms: O_62  and  C_63
REMARK   25  A    between atoms: C_63  and  C_64
REMARK   26  A    between atoms: C_64  and  O_65
REMARK   27  A    between atoms: O_65  and  C_66
REMARK   28  A    between atoms: C_70  and  C_72
REMARK   29  A    between atoms: C_73  and  C_74
REMARK   30  A    between atoms: C_73  and  O_75
REMARK                            x       y       z     vdW  Elec       q    Type
REMARK                         _______ _______ _______ _____ _____    ______ ____
ROOT
ATOM      1  C   UNL     1       5.409   0.487  29.018  0.00  0.00    +0.210 C 
ATOM      2  C   UNL     1       6.599   1.567  28.985  0.00  0.00    +0.126 C 
ATOM      3  C   UNL     1       6.892   1.913  30.474  0.00  0.00    +0.048 C 
ATOM      4  C   UNL     1       6.321   2.902  28.142  0.00  0.00    +0.160 C 
ATOM      5  C   UNL     1       5.940   2.892  26.628  0.00  0.00    +0.035 C 
ATOM      6  C   UNL     1       6.310   1.595  26.082  0.00  0.00    +0.012 C 
ATOM      7  C   UNL     1       6.483   3.964  25.585  0.00  0.00    +0.064 C 
ATOM      8  N   UNL     1       7.163   5.077  26.266  0.00  0.00    -0.286 NA
ATOM      9  H   UNL     1       8.164   4.994  26.098  0.00  0.00    +0.125 HD
ATOM     10  C   UNL     1       6.994   5.103  27.715  0.00  0.00    +0.213 C 
ATOM     11  C   UNL     1       7.367   3.399  24.294  0.00  0.00    +0.006 C 
ATOM     12  C   UNL     1       7.982   4.519  23.419  0.00  0.00    +0.009 C 
ATOM     13  C   UNL     1       6.614   2.390  23.280  0.00  0.00    +0.042 C 
ATOM     14  C   UNL     1       7.201   0.900  22.941  0.00  0.00    +0.090 C 
ATOM     15  C   UNL     1       7.221   0.745  21.415  0.00  0.00    +0.044 C 
ATOM     16  C   UNL     1       6.421  -0.300  23.725  0.00  0.00    +0.158 C 
ATOM     17  C   UNL     1       5.955  -1.745  23.397  0.00  0.00    +0.047 C 
ATOM     18  C   UNL     1       5.577  -1.998  21.935  0.00  0.00    +0.013 C 
ATOM     19  C   UNL     1       4.852  -2.211  24.541  0.00  0.00    +0.140 C 
ATOM     20  C   UNL     1       4.945  -2.120  26.204  0.00  0.00    +0.124 C 
ATOM     21  C   UNL     1       5.873  -2.908  27.162  0.00  0.00    +0.022 C 
ATOM     22  C   UNL     1       4.671  -0.756  26.874  0.00  0.00    +0.313 C 
ATOM     23  O   UNL     1       3.837   0.032  26.464  0.00  0.00    -0.250 OA
ATOM     24  O   UNL     1       7.389   3.845  28.282  0.00  0.00    -0.353 OA
ATOM     25  O   UNL     1       5.448  -0.581  28.002  0.00  0.00    -0.458 OA
ENDROOT
BRANCH   1  27
ATOM     26  C   UNL     1       3.147   0.265  30.156  0.00  0.00    +0.007 C 
ATOM     27  C   UNL     1       4.019   1.097  29.230  0.00  0.00    +0.044 C 
ENDBRANCH   1  27
BRANCH  14  28
ATOM     28  O   UNL     1       8.594   0.934  23.288  0.00  0.00    -0.386 OA
ATOM     29  H   UNL     1       8.998   1.670  22.785  0.00  0.00    +0.210 HD
ENDBRANCH  14  28
BRANCH   2  30
ATOM     30  O   UNL     1       7.835   0.966  28.578  0.00  0.00    -0.383 OA
ATOM     31  H   UNL     1       8.521   1.654  28.680  0.00  0.00    +0.210 HD
ENDBRANCH   2  30
BRANCH  16  32
ATOM     32  O   UNL     1       7.026  -0.487  25.009  0.00  0.00    -0.342 OA
BRANCH  32  33
ATOM     33  C   UNL     1       8.330  -1.050  25.050  0.00  0.00    +0.281 C 
ATOM     34  C   UNL     1       8.294  -2.231  26.030  0.00  0.00    +0.187 C 
ATOM     35  C   UNL     1       9.539  -3.129  25.880  0.00  0.00    +0.092 C 
ATOM     36  C   UNL     1      10.084  -3.262  24.430  0.00  0.00    +0.053 C 
ATOM     37  C   UNL     1      10.067  -1.894  23.792  0.00  0.00    +0.120 C 
ATOM     38  C   UNL     1      10.572  -1.793  22.366  0.00  0.00    +0.038 C 
ATOM     39  O   UNL     1       8.707  -1.513  23.769  0.00  0.00    -0.346 OA
BRANCH  35  40
ATOM     40  N   UNL     1       9.332  -4.395  26.628  0.00  0.00    -0.303 NA
ATOM     41  C   UNL     1      10.045  -5.507  25.998  0.00  0.00    +0.105 C 
ATOM     42  C   UNL     1       7.926  -4.756  26.840  0.00  0.00    +0.105 C 
ENDBRANCH  35  40
BRANCH  34  43
ATOM     43  O   UNL     1       8.230  -1.708  27.369  0.00  0.00    -0.385 OA
ATOM     44  H   UNL     1       7.872  -0.807  27.248  0.00  0.00    +0.210 HD
ENDBRANCH  34  43
ENDBRANCH  32  33
ENDBRANCH  16  32
BRANCH  19  45
ATOM     45  O   UNL     1       4.129  -3.391  24.109  0.00  0.00    -0.347 OA
BRANCH  45  46
ATOM     46  C   UNL     1       4.826  -4.536  23.650  0.00  0.00    +0.254 C 
ATOM     47  O   UNL     1       3.995  -5.297  22.764  0.00  0.00    -0.346 OA
ATOM     48  C   UNL     1       2.858  -5.887  23.421  0.00  0.00    +0.149 C 
ATOM     49  C   UNL     1       2.101  -6.652  22.344  0.00  0.00    +0.041 C 
ATOM     50  C   UNL     1       3.260  -6.823  24.594  0.00  0.00    +0.175 C 
ATOM     51  C   UNL     1       4.132  -6.034  25.605  0.00  0.00    +0.099 C 
ATOM     52  C   UNL     1       4.725  -6.875  26.747  0.00  0.00    +0.044 C 
ATOM     53  C   UNL     1       5.298  -5.498  24.722  0.00  0.00    +0.098 C 
BRANCH  51  54
ATOM     54  O   UNL     1       3.421  -4.941  26.196  0.00  0.00    -0.374 OA
ATOM     55  C   UNL     1       2.861  -5.044  27.494  0.00  0.00    +0.194 C 
ENDBRANCH  51  54
BRANCH  50  56
ATOM     56  O   UNL     1       2.102  -7.431  25.172  0.00  0.00    -0.386 OA
ATOM     57  H   UNL     1       1.310  -7.002  24.819  0.00  0.00    +0.210 HD
ENDBRANCH  50  56
ENDBRANCH  45  46
ENDBRANCH  19  45
BRANCH  10  58
ATOM     58  C   UNL     1       5.598   5.587  28.222  0.00  0.00    +0.207 C 
BRANCH  58  59
ATOM     59  O   UNL     1       4.930   6.429  27.257  0.00  0.00    -0.374 OA
BRANCH  59  60
ATOM     60  C   UNL     1       3.627   5.976  26.876  0.00  0.00    +0.188 C 
BRANCH  60  61
ATOM     61  C   UNL     1       3.133   4.960  27.896  0.00  0.00    +0.187 C 
BRANCH  61  62
ATOM     62  O   UNL     1       2.563   3.812  27.289  0.00  0.00    -0.381 OA
ATOM     63  C   UNL     1       1.188   3.737  27.657  0.00  0.00    +0.194 C 
ENDBRANCH  61  62
ENDBRANCH  60  61
ENDBRANCH  59  60
ENDBRANCH  58  59
ENDBRANCH  10  58
TORSDOF 16
ENDMDL
MODEL 6
REMARK VINA RESULT:      -2.3      3.081      9.506
REMARK  Name = 
REMARK  30 active torsions:
REMARK  status: ('A' for Active; 'I' for Inactive)
REMARK    1  A    between atoms: C_1  and  C_2
REMARK    2  A    between atoms: C_2  and  C_3
REMARK    3  A    between atoms: C_8  and  C_10
REMARK    4  A    between atoms: C_11  and  O_13
REMARK    5  A    between atoms: O_13  and  C_14
REMARK    6  A    between atoms: C_17  and  C_18
REMARK    7  A    between atoms: C_17  and  O_19
REMARK    8  A    between atoms: O_19  and  C_20
REMARK    9  A    between atoms: C_21  and  O_23
REMARK   10  A    between atoms: C_24  and  C_26
REMARK   11  A    between atoms: C_28  and  C_30
REMARK   12  A    between atoms: C_31  and  O_33
REMARK   13  A    between atoms: O_33  and  C_34
REMARK   14  A    between atoms: C_37  and  C_39
REMARK   15  A    between atoms: C_41  and  N_46
REMARK   16  A    between atoms: C_43  and  O_45
REMARK   17  A    between atoms: N_46  and  C_47
REMARK   18  A    between atoms: N_46  and  C_48
REMARK   19  A    between atoms: C_49  and  C_50
REMARK   20  A    between atoms: C_49  and  O_51
REMARK   21  A    between atoms: C_53  and  C_55
REMARK   22  A    between atoms: C_59  and  C_61
REMARK   23  A    between atoms: C_61  and  O_62
REMARK   24  A    between atoms: O_62  and  C_63
REMARK   25  A    between atoms: C_63  and  C_64
REMARK   26  A    between atoms: C_64  and  O_65
REMARK   27  A    between atoms: O_65  and  C_66
REMARK   28  A    between atoms: C_70  and  C_72
REMARK   29  A    between atoms: C_73  and  C_74
REMARK   30  A    between atoms: C_73  and  O_75
REMARK                            x       y       z     vdW  Elec       q    Type
REMARK                         _______ _______ _______ _____ _____    ______ ____
ROOT
ATOM      1  C   UNL     1       7.509  -2.660  25.469  0.00  0.00    +0.210 C 
ATOM      2  C   UNL     1       6.888  -3.691  26.533  0.00  0.00    +0.126 C 
ATOM      3  C   UNL     1       8.034  -4.691  26.866  0.00  0.00    +0.048 C 
ATOM      4  C   UNL     1       5.571  -4.480  26.070  0.00  0.00    +0.160 C 
ATOM      5  C   UNL     1       4.263  -3.762  25.613  0.00  0.00    +0.035 C 
ATOM      6  C   UNL     1       4.316  -2.389  26.091  0.00  0.00    +0.012 C 
ATOM      7  C   UNL     1       2.806  -4.286  25.983  0.00  0.00    +0.064 C 
ATOM      8  N   UNL     1       2.855  -5.632  26.575  0.00  0.00    -0.286 NA
ATOM      9  H   UNL     1       2.647  -5.555  27.569  0.00  0.00    +0.125 HD
ATOM     10  C   UNL     1       4.151  -6.296  26.480  0.00  0.00    +0.213 C 
ATOM     11  C   UNL     1       1.822  -3.265  26.853  0.00  0.00    +0.006 C 
ATOM     12  C   UNL     1       0.487  -3.913  27.297  0.00  0.00    +0.009 C 
ATOM     13  C   UNL     1       1.436  -1.857  26.159  0.00  0.00    +0.042 C 
ATOM     14  C   UNL     1       1.739  -0.421  26.884  0.00  0.00    +0.090 C 
ATOM     15  C   UNL     1       0.445   0.404  26.839  0.00  0.00    +0.044 C 
ATOM     16  C   UNL     1       3.044   0.351  26.279  0.00  0.00    +0.158 C 
ATOM     17  C   UNL     1       3.437   1.818  25.953  0.00  0.00    +0.047 C 
ATOM     18  C   UNL     1       2.281   2.728  25.528  0.00  0.00    +0.013 C 
ATOM     19  C   UNL     1       4.768   1.797  24.968  0.00  0.00    +0.140 C 
ATOM     20  C   UNL     1       6.201   0.961  25.138  0.00  0.00    +0.124 C 
ATOM     21  C   UNL     1       7.315   1.164  26.195  0.00  0.00    +0.022 C 
ATOM     22  C   UNL     1       6.219  -0.535  24.757  0.00  0.00    +0.313 C 
ATOM     23  O   UNL     1       5.584  -0.992  23.822  0.00  0.00    -0.250 OA
ATOM     24  O   UNL     1       5.177  -5.459  27.037  0.00  0.00    -0.353 OA
ATOM     25  O   UNL     1       7.073  -1.254  25.568  0.00  0.00    -0.458 OA
ENDROOT
BRANCH   1  27
ATOM     26  C   UNL     1       8.644  -2.540  23.198  0.00  0.00    +0.007 C 
ATOM     27  C   UNL     1       7.560  -3.198  24.035  0.00  0.00    +0.044 C 
ENDBRANCH   1  27
BRANCH  14  28
ATOM     28  O   UNL     1       1.901  -0.707  28.281  0.00  0.00    -0.386 OA
ATOM     29  H   UNL     1       2.800  -1.077  28.397  0.00  0.00    +0.210 HD
ENDBRANCH  14  28
BRANCH   2  30
ATOM     30  O   UNL     1       6.674  -3.063  27.804  0.00  0.00    -0.383 OA
ATOM     31  H   UNL     1       7.518  -3.135  28.291  0.00  0.00    +0.210 HD
ENDBRANCH   2  30
BRANCH  16  32
ATOM     32  O   UNL     1       4.214  -0.104  26.967  0.00  0.00    -0.342 OA
BRANCH  32  33
ATOM     33  C   UNL     1       4.328   0.201  28.350  0.00  0.00    +0.281 C 
ATOM     34  C   UNL     1       5.760   0.695  28.599  0.00  0.00    +0.187 C 
ATOM     35  C   UNL     1       5.889   1.390  29.970  0.00  0.00    +0.092 C 
ATOM     36  C   UNL     1       4.637   2.194  30.420  0.00  0.00    +0.053 C 
ATOM     37  C   UNL     1       3.410   1.370  30.112  0.00  0.00    +0.120 C 
ATOM     38  C   UNL     1       2.067   1.968  30.484  0.00  0.00    +0.038 C 
ATOM     39  O   UNL     1       3.411   1.215  28.708  0.00  0.00    -0.346 OA
BRANCH  35  40
ATOM     40  N   UNL     1       7.192   2.097  30.049  0.00  0.00    -0.303 NA
ATOM     41  C   UNL     1       7.237   3.233  29.129  0.00  0.00    +0.105 C 
ATOM     42  C   UNL     1       8.365   1.239  29.844  0.00  0.00    +0.105 C 
ENDBRANCH  35  40
BRANCH  34  43
ATOM     43  O   UNL     1       6.647  -0.436  28.541  0.00  0.00    -0.385 OA
ATOM     44  H   UNL     1       7.485  -0.056  28.216  0.00  0.00    +0.210 HD
ENDBRANCH  34  43
ENDBRANCH  32  33
ENDBRANCH  16  32
BRANCH  19  45
ATOM     45  O   UNL     1       4.974   3.094  24.353  0.00  0.00    -0.347 OA
BRANCH  45  46
ATOM     46  C   UNL     1       5.527   4.165  25.099  0.00  0.00    +0.254 C 
ATOM     47  O   UNL     1       5.132   5.419  24.526  0.00  0.00    -0.346 OA
ATOM     48  C   UNL     1       5.695   5.646  23.220  0.00  0.00    +0.149 C 
ATOM     49  C   UNL     1       5.182   7.008  22.773  0.00  0.00    +0.041 C 
ATOM     50  C   UNL     1       7.248   5.606  23.218  0.00  0.00    +0.175 C 
ATOM     51  C   UNL     1       7.727   4.249  23.796  0.00  0.00    +0.099 C 
ATOM     52  C   UNL     1       9.247   4.126  23.991  0.00  0.00    +0.044 C 
ATOM     53  C   UNL     1       7.039   4.197  25.192  0.00  0.00    +0.098 C 
BRANCH  51  54
ATOM     54  O   UNL     1       7.301   3.140  22.997  0.00  0.00    -0.374 OA
ATOM     55  C   UNL     1       7.953   2.817  21.780  0.00  0.00    +0.194 C 
ENDBRANCH  51  54
BRANCH  50  56
ATOM     56  O   UNL     1       7.757   5.898  21.914  0.00  0.00    -0.386 OA
ATOM     57  H   UNL     1       7.076   6.357  21.405  0.00  0.00    +0.210 HD
ENDBRANCH  50  56
ENDBRANCH  45  46
ENDBRANCH  19  45
BRANCH  10  58
ATOM     58  C   UNL     1       4.521  -6.854  25.069  0.00  0.00    +0.207 C 
BRANCH  58  59
ATOM     59  O   UNL     1       3.646  -7.927  24.661  0.00  0.00    -0.374 OA
BRANCH  59  60
ATOM     60  C   UNL     1       2.612  -7.536  23.753  0.00  0.00    +0.188 C 
BRANCH  60  61
ATOM     61  C   UNL     1       1.307  -8.206  24.161  0.00  0.00    +0.187 C 
BRANCH  61  62
ATOM     62  O   UNL     1       1.425  -8.933  25.373  0.00  0.00    -0.381 OA
ATOM     63  C   UNL     1       0.608 -10.098  25.287  0.00  0.00    +0.194 C 
ENDBRANCH  61  62
ENDBRANCH  60  61
ENDBRANCH  59  60
ENDBRANCH  58  59
ENDBRANCH  10  58
TORSDOF 16
ENDMDL
MODEL 7
REMARK VINA RESULT:      -2.2      2.926      7.726
REMARK  Name = 
REMARK  30 active torsions:
REMARK  status: ('A' for Active; 'I' for Inactive)
REMARK    1  A    between atoms: C_1  and  C_2
REMARK    2  A    between atoms: C_2  and  C_3
REMARK    3  A    between atoms: C_8  and  C_10
REMARK    4  A    between atoms: C_11  and  O_13
REMARK    5  A    between atoms: O_13  and  C_14
REMARK    6  A    between atoms: C_17  and  C_18
REMARK    7  A    between atoms: C_17  and  O_19
REMARK    8  A    between atoms: O_19  and  C_20
REMARK    9  A    between atoms: C_21  and  O_23
REMARK   10  A    between atoms: C_24  and  C_26
REMARK   11  A    between atoms: C_28  and  C_30
REMARK   12  A    between atoms: C_31  and  O_33
REMARK   13  A    between atoms: O_33  and  C_34
REMARK   14  A    between atoms: C_37  and  C_39
REMARK   15  A    between atoms: C_41  and  N_46
REMARK   16  A    between atoms: C_43  and  O_45
REMARK   17  A    between atoms: N_46  and  C_47
REMARK   18  A    between atoms: N_46  and  C_48
REMARK   19  A    between atoms: C_49  and  C_50
REMARK   20  A    between atoms: C_49  and  O_51
REMARK   21  A    between atoms: C_53  and  C_55
REMARK   22  A    between atoms: C_59  and  C_61
REMARK   23  A    between atoms: C_61  and  O_62
REMARK   24  A    between atoms: O_62  and  C_63
REMARK   25  A    between atoms: C_63  and  C_64
REMARK   26  A    between atoms: C_64  and  O_65
REMARK   27  A    between atoms: O_65  and  C_66
REMARK   28  A    between atoms: C_70  and  C_72
REMARK   29  A    between atoms: C_73  and  C_74
REMARK   30  A    between atoms: C_73  and  O_75
REMARK                            x       y       z     vdW  Elec       q    Type
REMARK                         _______ _______ _______ _____ _____    ______ ____
ROOT
ATOM      1  C   UNL     1       8.093   1.007  26.082  0.00  0.00    +0.210 C 
ATOM      2  C   UNL     1       8.912  -0.233  25.471  0.00  0.00    +0.126 C 
ATOM      3  C   UNL     1      10.409   0.193  25.513  0.00  0.00    +0.048 C 
ATOM      4  C   UNL     1       8.500  -0.695  23.992  0.00  0.00    +0.160 C 
ATOM      5  C   UNL     1       7.051  -1.128  23.606  0.00  0.00    +0.035 C 
ATOM      6  C   UNL     1       6.337  -1.445  24.833  0.00  0.00    +0.012 C 
ATOM      7  C   UNL     1       6.736  -2.327  22.607  0.00  0.00    +0.064 C 
ATOM      8  N   UNL     1       7.955  -2.789  21.924  0.00  0.00    -0.286 NA
ATOM      9  H   UNL     1       8.213  -3.698  22.303  0.00  0.00    +0.125 HD
ATOM     10  C   UNL     1       9.120  -1.928  22.101  0.00  0.00    +0.213 C 
ATOM     11  C   UNL     1       5.840  -3.599  23.195  0.00  0.00    +0.006 C 
ATOM     12  C   UNL     1       5.714  -4.784  22.206  0.00  0.00    +0.009 C 
ATOM     13  C   UNL     1       4.341  -3.264  23.699  0.00  0.00    +0.042 C 
ATOM     14  C   UNL     1       3.834  -3.620  25.214  0.00  0.00    +0.090 C 
ATOM     15  C   UNL     1       2.499  -4.367  25.093  0.00  0.00    +0.044 C 
ATOM     16  C   UNL     1       3.787  -2.325  26.206  0.00  0.00    +0.158 C 
ATOM     17  C   UNL     1       2.855  -1.799  27.331  0.00  0.00    +0.047 C 
ATOM     18  C   UNL     1       1.374  -2.159  27.179  0.00  0.00    +0.013 C 
ATOM     19  C   UNL     1       3.209  -0.204  27.599  0.00  0.00    +0.140 C 
ATOM     20  C   UNL     1       4.686   0.530  27.842  0.00  0.00    +0.124 C 
ATOM     21  C   UNL     1       5.645   0.389  29.051  0.00  0.00    +0.022 C 
ATOM     22  C   UNL     1       5.568   0.813  26.607  0.00  0.00    +0.313 C 
ATOM     23  O   UNL     1       5.114   1.149  25.526  0.00  0.00    -0.250 OA
ATOM     24  O   UNL     1       9.372  -1.718  23.499  0.00  0.00    -0.353 OA
ATOM     25  O   UNL     1       6.910   0.687  26.903  0.00  0.00    -0.458 OA
ENDROOT
BRANCH   1  27
ATOM     26  C   UNL     1       7.868   3.519  25.766  0.00  0.00    +0.007 C 
ATOM     27  C   UNL     1       7.873   2.157  25.093  0.00  0.00    +0.044 C 
ENDBRANCH   1  27
BRANCH  14  28
ATOM     28  O   UNL     1       4.732  -4.626  25.707  0.00  0.00    -0.386 OA
ATOM     29  H   UNL     1       4.358  -4.956  26.551  0.00  0.00    +0.210 HD
ENDBRANCH  14  28
BRANCH   2  30
ATOM     30  O   UNL     1       8.905  -1.353  26.366  0.00  0.00    -0.383 OA
ATOM     31  H   UNL     1       8.040  -1.791  26.250  0.00  0.00    +0.210 HD
ENDBRANCH   2  30
BRANCH  16  32
ATOM     32  O   UNL     1       5.074  -2.154  26.808  0.00  0.00    -0.342 OA
BRANCH  32  33
ATOM     33  C   UNL     1       5.523  -3.160  27.707  0.00  0.00    +0.281 C 
ATOM     34  C   UNL     1       4.306  -3.637  28.512  0.00  0.00    +0.187 C 
ATOM     35  C   UNL     1       4.598  -4.962  29.247  0.00  0.00    +0.092 C 
ATOM     36  C   UNL     1       5.536  -5.942  28.489  0.00  0.00    +0.053 C 
ATOM     37  C   UNL     1       6.676  -5.145  27.901  0.00  0.00    +0.120 C 
ATOM     38  C   UNL     1       7.725  -5.916  27.122  0.00  0.00    +0.038 C 
ATOM     39  O   UNL     1       6.072  -4.249  26.993  0.00  0.00    -0.346 OA
BRANCH  35  40
ATOM     40  N   UNL     1       3.330  -5.531  29.769  0.00  0.00    -0.303 NA
ATOM     41  C   UNL     1       3.475  -6.951  30.087  0.00  0.00    +0.105 C 
ATOM     42  C   UNL     1       2.165  -5.327  28.900  0.00  0.00    +0.105 C 
ENDBRANCH  35  40
BRANCH  34  43
ATOM     43  O   UNL     1       3.963  -2.617  29.465  0.00  0.00    -0.385 OA
ATOM     44  H   UNL     1       4.808  -2.434  29.921  0.00  0.00    +0.210 HD
ENDBRANCH  34  43
ENDBRANCH  32  33
ENDBRANCH  16  32
BRANCH  19  45
ATOM     45  O   UNL     1       2.161   0.432  28.375  0.00  0.00    -0.347 OA
BRANCH  45  46
ATOM     46  C   UNL     1       1.107   1.126  27.730  0.00  0.00    +0.254 C 
ATOM     47  O   UNL     1       1.588   1.746  26.530  0.00  0.00    -0.346 OA
ATOM     48  C   UNL     1       2.531   2.805  26.778  0.00  0.00    +0.149 C 
ATOM     49  C   UNL     1       2.925   3.345  25.411  0.00  0.00    +0.041 C 
ATOM     50  C   UNL     1       1.950   3.930  27.677  0.00  0.00    +0.175 C 
ATOM     51  C   UNL     1       1.448   3.316  29.010  0.00  0.00    +0.099 C 
ATOM     52  C   UNL     1       0.712   4.294  29.940  0.00  0.00    +0.044 C 
ATOM     53  C   UNL     1       0.443   2.223  28.538  0.00  0.00    +0.098 C 
BRANCH  51  54
ATOM     54  O   UNL     1       2.508   2.716  29.762  0.00  0.00    -0.374 OA
ATOM     55  C   UNL     1       3.464   3.509  30.447  0.00  0.00    +0.194 C 
ENDBRANCH  51  54
BRANCH  50  56
ATOM     56  O   UNL     1       2.901   4.985  27.842  0.00  0.00    -0.386 OA
ATOM     57  H   UNL     1       2.999   5.455  27.003  0.00  0.00    +0.210 HD
ENDBRANCH  50  56
ENDBRANCH  45  46
ENDBRANCH  19  45
BRANCH  10  58
ATOM     58  C   UNL     1       9.108  -0.600  21.279  0.00  0.00    +0.207 C 
BRANCH  58  59
ATOM     59  O   UNL     1      10.205   0.269  21.632  0.00  0.00    -0.374 OA
BRANCH  59  60
ATOM     60  C   UNL     1       9.832   1.631  21.864  0.00  0.00    +0.188 C 
BRANCH  60  61
ATOM     61  C   UNL     1      10.726   2.217  22.948  0.00  0.00    +0.187 C 
BRANCH  61  62
ATOM     62  O   UNL     1      10.416   3.571  23.236  0.00  0.00    -0.381 OA
ATOM     63  C   UNL     1      11.634   4.305  23.340  0.00  0.00    +0.194 C 
ENDBRANCH  61  62
ENDBRANCH  60  61
ENDBRANCH  59  60
ENDBRANCH  58  59
ENDBRANCH  10  58
TORSDOF 16
ENDMDL
MODEL 8
REMARK VINA RESULT:      -2.1      3.308      7.015
REMARK  Name = 
REMARK  30 active torsions:
REMARK  status: ('A' for Active; 'I' for Inactive)
REMARK    1  A    between atoms: C_1  and  C_2
REMARK    2  A    between atoms: C_2  and  C_3
REMARK    3  A    between atoms: C_8  and  C_10
REMARK    4  A    between atoms: C_11  and  O_13
REMARK    5  A    between atoms: O_13  and  C_14
REMARK    6  A    between atoms: C_17  and  C_18
REMARK    7  A    between atoms: C_17  and  O_19
REMARK    8  A    between atoms: O_19  and  C_20
REMARK    9  A    between atoms: C_21  and  O_23
REMARK   10  A    between atoms: C_24  and  C_26
REMARK   11  A    between atoms: C_28  and  C_30
REMARK   12  A    between atoms: C_31  and  O_33
REMARK   13  A    between atoms: O_33  and  C_34
REMARK   14  A    between atoms: C_37  and  C_39
REMARK   15  A    between atoms: C_41  and  N_46
REMARK   16  A    between atoms: C_43  and  O_45
REMARK   17  A    between atoms: N_46  and  C_47
REMARK   18  A    between atoms: N_46  and  C_48
REMARK   19  A    between atoms: C_49  and  C_50
REMARK   20  A    between atoms: C_49  and  O_51
REMARK   21  A    between atoms: C_53  and  C_55
REMARK   22  A    between atoms: C_59  and  C_61
REMARK   23  A    between atoms: C_61  and  O_62
REMARK   24  A    between atoms: O_62  and  C_63
REMARK   25  A    between atoms: C_63  and  C_64
REMARK   26  A    between atoms: C_64  and  O_65
REMARK   27  A    between atoms: O_65  and  C_66
REMARK   28  A    between atoms: C_70  and  C_72
REMARK   29  A    between atoms: C_73  and  C_74
REMARK   30  A    between atoms: C_73  and  O_75
REMARK                            x       y       z     vdW  Elec       q    Type
REMARK                         _______ _______ _______ _____ _____    ______ ____
ROOT
ATOM      1  C   UNL     1       3.080   0.534  28.791  0.00  0.00    +0.210 C 
ATOM      2  C   UNL     1       4.542   1.171  28.985  0.00  0.00    +0.126 C 
ATOM      3  C   UNL     1       4.492   1.929  30.343  0.00  0.00    +0.048 C 
ATOM      4  C   UNL     1       5.053   2.143  27.817  0.00  0.00    +0.160 C 
ATOM      5  C   UNL     1       5.160   1.701  26.324  0.00  0.00    +0.035 C 
ATOM      6  C   UNL     1       5.154   0.246  26.287  0.00  0.00    +0.012 C 
ATOM      7  C   UNL     1       6.350   2.147  25.365  0.00  0.00    +0.064 C 
ATOM      8  N   UNL     1       7.168   3.203  25.983  0.00  0.00    -0.286 NA
ATOM      9  H   UNL     1       8.064   2.801  26.252  0.00  0.00    +0.125 HD
ATOM     10  C   UNL     1       6.603   3.785  27.196  0.00  0.00    +0.213 C 
ATOM     11  C   UNL     1       7.292   0.947  24.702  0.00  0.00    +0.006 C 
ATOM     12  C   UNL     1       8.513   1.477  23.911  0.00  0.00    +0.009 C 
ATOM     13  C   UNL     1       6.547  -0.114  23.736  0.00  0.00    +0.042 C 
ATOM     14  C   UNL     1       6.598  -1.726  24.014  0.00  0.00    +0.090 C 
ATOM     15  C   UNL     1       7.006  -2.411  22.702  0.00  0.00    +0.044 C 
ATOM     16  C   UNL     1       5.228  -2.315  24.677  0.00  0.00    +0.158 C 
ATOM     17  C   UNL     1       4.368  -3.601  24.535  0.00  0.00    +0.047 C 
ATOM     18  C   UNL     1       4.372  -4.243  23.145  0.00  0.00    +0.013 C 
ATOM     19  C   UNL     1       2.887  -3.318  25.219  0.00  0.00    +0.140 C 
ATOM     20  C   UNL     1       2.513  -2.673  26.711  0.00  0.00    +0.124 C 
ATOM     21  C   UNL     1       2.747  -3.289  28.114  0.00  0.00    +0.022 C 
ATOM     22  C   UNL     1       2.593  -1.141  26.881  0.00  0.00    +0.313 C 
ATOM     23  O   UNL     1       2.280  -0.355  26.003  0.00  0.00    -0.250 OA
ATOM     24  O   UNL     1       6.305   2.752  28.148  0.00  0.00    -0.353 OA
ATOM     25  O   UNL     1       3.008  -0.793  28.151  0.00  0.00    -0.458 OA
ENDROOT
BRANCH   1  27
ATOM     26  C   UNL     1       0.647   1.268  28.860  0.00  0.00    +0.007 C 
ATOM     27  C   UNL     1       2.028   1.528  28.284  0.00  0.00    +0.044 C 
ENDBRANCH   1  27
BRANCH  14  28
ATOM     28  O   UNL     1       7.731  -1.947  24.868  0.00  0.00    -0.386 OA
ATOM     29  H   UNL     1       8.165  -2.770  24.563  0.00  0.00    +0.210 HD
ENDBRANCH  14  28
BRANCH   2  30
ATOM     30  O   UNL     1       5.519   0.158  29.255  0.00  0.00    -0.383 OA
ATOM     31  H   UNL     1       6.081   0.503  29.975  0.00  0.00    +0.210 HD
ENDBRANCH   2  30
BRANCH  16  32
ATOM     32  O   UNL     1       5.309  -2.191  26.101  0.00  0.00    -0.342 OA
BRANCH  32  33
ATOM     33  C   UNL     1       6.241  -3.017  26.784  0.00  0.00    +0.281 C 
ATOM     34  C   UNL     1       5.536  -3.582  28.025  0.00  0.00    +0.187 C 
ATOM     35  C   UNL     1       6.321  -4.763  28.634  0.00  0.00    +0.092 C 
ATOM     36  C   UNL     1       7.052  -5.668  27.603  0.00  0.00    +0.053 C 
ATOM     37  C   UNL     1       7.715  -4.777  26.580  0.00  0.00    +0.120 C 
ATOM     38  C   UNL     1       8.501  -5.462  25.478  0.00  0.00    +0.038 C 
ATOM     39  O   UNL     1       6.657  -4.082  25.954  0.00  0.00    -0.346 OA
BRANCH  35  40
ATOM     40  N   UNL     1       5.476  -5.455  29.640  0.00  0.00    -0.303 NA
ATOM     41  C   UNL     1       4.758  -4.497  30.481  0.00  0.00    +0.105 C 
ATOM     42  C   UNL     1       6.194  -6.421  30.480  0.00  0.00    +0.105 C 
ENDBRANCH  35  40
BRANCH  34  43
ATOM     43  O   UNL     1       5.412  -2.528  28.996  0.00  0.00    -0.385 OA
ATOM     44  H   UNL     1       5.011  -1.795  28.491  0.00  0.00    +0.210 HD
ENDBRANCH  34  43
ENDBRANCH  32  33
ENDBRANCH  16  32
BRANCH  19  45
ATOM     45  O   UNL     1       1.933  -4.335  24.820  0.00  0.00    -0.347 OA
BRANCH  45  46
ATOM     46  C   UNL     1       1.224  -5.080  25.795  0.00  0.00    +0.254 C 
ATOM     47  O   UNL     1       2.132  -5.587  26.782  0.00  0.00    -0.346 OA
ATOM     48  C   UNL     1       3.042  -6.573  26.260  0.00  0.00    +0.149 C 
ATOM     49  C   UNL     1       3.916  -7.000  27.431  0.00  0.00    +0.041 C 
ATOM     50  C   UNL     1       2.313  -7.793  25.633  0.00  0.00    +0.175 C 
ATOM     51  C   UNL     1       1.342  -7.300  24.528  0.00  0.00    +0.099 C 
ATOM     52  C   UNL     1       0.444  -8.388  23.919  0.00  0.00    +0.044 C 
ATOM     53  C   UNL     1       0.445  -6.273  25.281  0.00  0.00    +0.098 C 
BRANCH  51  54
ATOM     54  O   UNL     1       2.032  -6.654  23.452  0.00  0.00    -0.374 OA
ATOM     55  C   UNL     1       1.392  -6.406  22.212  0.00  0.00    +0.194 C 
ENDBRANCH  51  54
BRANCH  50  56
ATOM     56  O   UNL     1       3.258  -8.769  25.187  0.00  0.00    -0.386 OA
ATOM     57  H   UNL     1       3.874  -8.353  24.569  0.00  0.00    +0.210 HD
ENDBRANCH  50  56
ENDBRANCH  45  46
ENDBRANCH  19  45
BRANCH  10  58
ATOM     58  C   UNL     1       5.412   4.772  26.978  0.00  0.00    +0.207 C 
BRANCH  58  59
ATOM     59  O   UNL     1       5.850   6.145  26.901  0.00  0.00    -0.374 OA
BRANCH  59  60
ATOM     60  C   UNL     1       6.131   6.604  25.575  0.00  0.00    +0.188 C 
BRANCH  60  61
ATOM     61  C   UNL     1       7.634   6.560  25.339  0.00  0.00    +0.187 C 
BRANCH  61  62
ATOM     62  O   UNL     1       7.987   5.756  24.225  0.00  0.00    -0.381 OA
ATOM     63  C   UNL     1       9.139   6.319  23.603  0.00  0.00    +0.194 C 
ENDBRANCH  61  62
ENDBRANCH  60  61
ENDBRANCH  59  60
ENDBRANCH  58  59
ENDBRANCH  10  58
TORSDOF 16
ENDMDL
MODEL 9
REMARK VINA RESULT:      -2.0      2.875      6.699
REMARK  Name = 
REMARK  30 active torsions:
REMARK  status: ('A' for Active; 'I' for Inactive)
REMARK    1  A    between atoms: C_1  and  C_2
REMARK    2  A    between atoms: C_2  and  C_3
REMARK    3  A    between atoms: C_8  and  C_10
REMARK    4  A    between atoms: C_11  and  O_13
REMARK    5  A    between atoms: O_13  and  C_14
REMARK    6  A    between atoms: C_17  and  C_18
REMARK    7  A    between atoms: C_17  and  O_19
REMARK    8  A    between atoms: O_19  and  C_20
REMARK    9  A    between atoms: C_21  and  O_23
REMARK   10  A    between atoms: C_24  and  C_26
REMARK   11  A    between atoms: C_28  and  C_30
REMARK   12  A    between atoms: C_31  and  O_33
REMARK   13  A    between atoms: O_33  and  C_34
REMARK   14  A    between atoms: C_37  and  C_39
REMARK   15  A    between atoms: C_41  and  N_46
REMARK   16  A    between atoms: C_43  and  O_45
REMARK   17  A    between atoms: N_46  and  C_47
REMARK   18  A    between atoms: N_46  and  C_48
REMARK   19  A    between atoms: C_49  and  C_50
REMARK   20  A    between atoms: C_49  and  O_51
REMARK   21  A    between atoms: C_53  and  C_55
REMARK   22  A    between atoms: C_59  and  C_61
REMARK   23  A    between atoms: C_61  and  O_62
REMARK   24  A    between atoms: O_62  and  C_63
REMARK   25  A    between atoms: C_63  and  C_64
REMARK   26  A    between atoms: C_64  and  O_65
REMARK   27  A    between atoms: O_65  and  C_66
REMARK   28  A    between atoms: C_70  and  C_72
REMARK   29  A    between atoms: C_73  and  C_74
REMARK   30  A    between atoms: C_73  and  O_75
REMARK                            x       y       z     vdW  Elec       q    Type
REMARK                         _______ _______ _______ _____ _____    ______ ____
ROOT
ATOM      1  C   UNL     1       5.060   2.475  28.306  0.00  0.00    +0.210 C 
ATOM      2  C   UNL     1       6.384   3.153  27.699  0.00  0.00    +0.126 C 
ATOM      3  C   UNL     1       6.819   4.226  28.739  0.00  0.00    +0.048 C 
ATOM      4  C   UNL     1       6.241   3.808  26.242  0.00  0.00    +0.160 C 
ATOM      5  C   UNL     1       5.764   3.007  24.990  0.00  0.00    +0.035 C 
ATOM      6  C   UNL     1       5.913   1.589  25.282  0.00  0.00    +0.012 C 
ATOM      7  C   UNL     1       6.382   3.211  23.538  0.00  0.00    +0.064 C 
ATOM      8  N   UNL     1       7.254   4.395  23.488  0.00  0.00    -0.286 NA
ATOM      9  H   UNL     1       8.221   4.081  23.422  0.00  0.00    +0.125 HD
ATOM     10  C   UNL     1       7.185   5.256  24.664  0.00  0.00    +0.213 C 
ATOM     11  C   UNL     1       7.093   1.892  22.814  0.00  0.00    +0.006 C 
ATOM     12  C   UNL     1       7.799   2.218  21.476  0.00  0.00    +0.009 C 
ATOM     13  C   UNL     1       6.141   0.616  22.529  0.00  0.00    +0.042 C 
ATOM     14  C   UNL     1       6.491  -0.875  23.106  0.00  0.00    +0.090 C 
ATOM     15  C   UNL     1       6.389  -1.862  21.935  0.00  0.00    +0.044 C 
ATOM     16  C   UNL     1       5.604  -1.292  24.411  0.00  0.00    +0.158 C 
ATOM     17  C   UNL     1       4.921  -2.581  24.945  0.00  0.00    +0.047 C 
ATOM     18  C   UNL     1       4.416  -3.550  23.872  0.00  0.00    +0.013 C 
ATOM     19  C   UNL     1       3.840  -2.149  26.123  0.00  0.00    +0.140 C 
ATOM     20  C   UNL     1       4.053  -1.156  27.446  0.00  0.00    +0.124 C 
ATOM     21  C   UNL     1       4.923  -1.400  28.705  0.00  0.00    +0.022 C 
ATOM     22  C   UNL     1       4.017   0.371  27.221  0.00  0.00    +0.313 C 
ATOM     23  O   UNL     1       3.276   0.909  26.416  0.00  0.00    -0.250 OA
ATOM     24  O   UNL     1       7.437   4.491  25.853  0.00  0.00    -0.353 OA
ATOM     25  O   UNL     1       4.883   1.029  28.072  0.00  0.00    -0.458 OA
ENDROOT
BRANCH   1  27
ATOM     26  C   UNL     1       2.933   3.389  29.356  0.00  0.00    +0.007 C 
ATOM     27  C   UNL     1       3.785   3.301  28.101  0.00  0.00    +0.044 C 
ENDBRANCH   1  27
BRANCH  14  28
ATOM     28  O   UNL     1       7.895  -0.865  23.408  0.00  0.00    -0.386 OA
ATOM     29  H   UNL     1       8.259  -0.026  23.057  0.00  0.00    +0.210 HD
ENDBRANCH  14  28
BRANCH   2  30
ATOM     30  O   UNL     1       7.495   2.249  27.734  0.00  0.00    -0.383 OA
ATOM     31  H   UNL     1       8.238   2.709  27.298  0.00  0.00    +0.210 HD
ENDBRANCH   2  30
BRANCH  16  32
ATOM     32  O   UNL     1       6.259  -0.815  25.591  0.00  0.00    -0.342 OA
BRANCH  32  33
ATOM     33  C   UNL     1       7.596  -1.239  25.822  0.00  0.00    +0.281 C 
ATOM     34  C   UNL     1       7.682  -2.725  25.447  0.00  0.00    +0.187 C 
ATOM     35  C   UNL     1       9.147  -3.190  25.311  0.00  0.00    +0.092 C 
ATOM     36  C   UNL     1      10.125  -2.126  24.741  0.00  0.00    +0.053 C 
ATOM     37  C   UNL     1       9.819  -0.802  25.399  0.00  0.00    +0.120 C 
ATOM     38  C   UNL     1      10.672   0.383  24.991  0.00  0.00    +0.038 C 
ATOM     39  O   UNL     1       8.493  -0.498  25.019  0.00  0.00    -0.346 OA
BRANCH  35  40
ATOM     40  N   UNL     1       9.185  -4.532  24.677  0.00  0.00    -0.303 NA
ATOM     41  C   UNL     1       8.046  -4.729  23.780  0.00  0.00    +0.105 C 
ATOM     42  C   UNL     1       9.280  -5.652  25.620  0.00  0.00    +0.105 C 
ENDBRANCH  35  40
BRANCH  34  43
ATOM     43  O   UNL     1       7.021  -3.490  26.470  0.00  0.00    -0.385 OA
ATOM     44  H   UNL     1       7.056  -2.908  27.253  0.00  0.00    +0.210 HD
ENDBRANCH  34  43
ENDBRANCH  32  33
ENDBRANCH  16  32
BRANCH  19  45
ATOM     45  O   UNL     1       2.932  -3.242  26.415  0.00  0.00    -0.347 OA
BRANCH  45  46
ATOM     46  C   UNL     1       3.046  -3.970  27.626  0.00  0.00    +0.254 C 
ATOM     47  O   UNL     1       4.244  -4.756  27.617  0.00  0.00    -0.346 OA
ATOM     48  C   UNL     1       4.222  -5.812  26.639  0.00  0.00    +0.149 C 
ATOM     49  C   UNL     1       5.553  -6.538  26.773  0.00  0.00    +0.041 C 
ATOM     50  C   UNL     1       3.030  -6.789  26.836  0.00  0.00    +0.175 C 
ATOM     51  C   UNL     1       1.701  -5.990  26.815  0.00  0.00    +0.099 C 
ATOM     52  C   UNL     1       0.444  -6.810  27.144  0.00  0.00    +0.044 C 
ATOM     53  C   UNL     1       1.912  -4.926  27.933  0.00  0.00    +0.098 C 
BRANCH  51  54
ATOM     54  O   UNL     1       1.479  -5.343  25.557  0.00  0.00    -0.374 OA
ATOM     55  C   UNL     1       0.487  -5.806  24.657  0.00  0.00    +0.194 C 
ENDBRANCH  51  54
BRANCH  50  56
ATOM     56  O   UNL     1       3.088  -7.852  25.881  0.00  0.00    -0.386 OA
ATOM     57  H   UNL     1       2.861  -8.683  26.320  0.00  0.00    +0.210 HD
ENDBRANCH  50  56
ENDBRANCH  45  46
ENDBRANCH  19  45
BRANCH  10  58
ATOM     58  C   UNL     1       5.907   6.146  24.773  0.00  0.00    +0.207 C 
BRANCH  58  59
ATOM     59  O   UNL     1       5.439   6.590  23.481  0.00  0.00    -0.374 OA
BRANCH  59  60
ATOM     60  C   UNL     1       4.016   6.674  23.362  0.00  0.00    +0.188 C 
BRANCH  60  61
ATOM     61  C   UNL     1       3.524   5.567  22.441  0.00  0.00    +0.187 C 
BRANCH  61  62
ATOM     62  O   UNL     1       3.036   4.442  23.154  0.00  0.00    -0.381 OA
ATOM     63  C   UNL     1       2.886   3.356  22.244  0.00  0.00    +0.194 C 
ENDBRANCH  61  62
ENDBRANCH  60  61
ENDBRANCH  59  60
ENDBRANCH  58  59
ENDBRANCH  10  58
TORSDOF 16
ENDMDL
