MODEL 1
REMARK VINA RESULT:      -4.0      0.000      0.000
REMARK  Name = 
REMARK  7 active torsions:
REMARK  status: ('A' for Active; 'I' for Inactive)
REMARK    1  A    between atoms: C_1  and  C_2
REMARK    2  A    between atoms: C_2  and  C_3
REMARK    3  A    between atoms: C_2  and  C_4
REMARK    4  A    between atoms: C_2  and  C_6
REMARK    5  A    between atoms: C_4  and  O_5
REMARK    6  A    between atoms: C_6  and  O_8
REMARK    7  A    between atoms: C_6  and  C_9
REMARK                            x       y       z     vdW  Elec       q    Type
REMARK                         _______ _______ _______ _____ _____    ______ ____
ROOT
ATOM      1  C   UNL     1      10.903   0.660  24.291  0.00  0.00    +0.016 C 
ATOM      2  C   UNL     1       9.718   0.849  23.318  0.00  0.00    +0.019 C 
ATOM      3  C   UNL     1       8.562   1.479  24.124  0.00  0.00    +0.016 C 
ENDROOT
BRANCH   2   4
ATOM      4  C   UNL     1       9.344  -0.536  22.748  0.00  0.00    +0.168 C 
BRANCH   4   5
ATOM      5  C   UNL     1       9.632  -1.837  23.582  0.00  0.00    +0.071 C 
ATOM      6  O   UNL     1      10.553  -2.565  23.092  0.00  0.00    -0.547 OA
ATOM      7  O   UNL     1       8.887  -2.059  24.572  0.00  0.00    -0.547 OA
ENDBRANCH   4   5
BRANCH   4   8
ATOM      8  O   UNL     1       9.947  -0.649  21.423  0.00  0.00    -0.385 OA
ATOM      9  H   UNL     1      10.693  -1.259  21.529  0.00  0.00    +0.210 HD
ENDBRANCH   4   8
ENDBRANCH   2   4
BRANCH   2  10
ATOM     10  C   UNL     1      10.160   1.768  22.160  0.00  0.00    +0.165 C 
BRANCH  10  11
ATOM     11  O   UNL     1       9.058   2.139  21.328  0.00  0.00    -0.394 OA
ATOM     12  H   UNL     1       9.381   2.038  20.418  0.00  0.00    +0.209 HD
ENDBRANCH  10  11
ENDBRANCH   2  10
TORSDOF 5
ENDMDL
MODEL 2
REMARK VINA RESULT:      -3.9      1.724      3.880
REMARK  Name = 
REMARK  7 active torsions:
REMARK  status: ('A' for Active; 'I' for Inactive)
REMARK    1  A    between atoms: C_1  and  C_2
REMARK    2  A    between atoms: C_2  and  C_3
REMARK    3  A    between atoms: C_2  and  C_4
REMARK    4  A    between atoms: C_2  and  C_6
REMARK    5  A    between atoms: C_4  and  O_5
REMARK    6  A    between atoms: C_6  and  O_8
REMARK    7  A    between atoms: C_6  and  C_9
REMARK                            x       y       z     vdW  Elec       q    Type
REMARK                         _______ _______ _______ _____ _____    ______ ____
ROOT
ATOM      1  C   UNL     1       8.312   0.575  23.398  0.00  0.00    +0.016 C 
ATOM      2  C   UNL     1       9.849   0.591  23.243  0.00  0.00    +0.019 C 
ATOM      3  C   UNL     1      10.450   0.510  24.663  0.00  0.00    +0.016 C 
ENDROOT
BRANCH   2   4
ATOM      4  C   UNL     1      10.241   1.897  22.518  0.00  0.00    +0.168 C 
BRANCH   4   5
ATOM      5  C   UNL     1      10.479   3.215  23.341  0.00  0.00    +0.071 C 
ATOM      6  O   UNL     1       9.407   3.754  23.763  0.00  0.00    -0.547 OA
ATOM      7  O   UNL     1      11.664   3.634  23.422  0.00  0.00    -0.547 OA
ENDBRANCH   4   5
BRANCH   4   8
ATOM      8  O   UNL     1       9.256   2.135  21.468  0.00  0.00    -0.385 OA
ATOM      9  H   UNL     1       9.214   3.098  21.364  0.00  0.00    +0.210 HD
ENDBRANCH   4   8
ENDBRANCH   2   4
BRANCH   2  10
ATOM     10  C   UNL     1      10.281  -0.614  22.381  0.00  0.00    +0.165 C 
BRANCH  10  11
ATOM     11  O   UNL     1       9.615  -0.625  21.116  0.00  0.00    -0.394 OA
ATOM     12  H   UNL     1       8.668  -0.575  21.326  0.00  0.00    +0.209 HD
ENDBRANCH  10  11
ENDBRANCH   2  10
TORSDOF 5
ENDMDL
MODEL 3
REMARK VINA RESULT:      -3.8      1.519      1.978
REMARK  Name = 
REMARK  7 active torsions:
REMARK  status: ('A' for Active; 'I' for Inactive)
REMARK    1  A    between atoms: C_1  and  C_2
REMARK    2  A    between atoms: C_2  and  C_3
REMARK    3  A    between atoms: C_2  and  C_4
REMARK    4  A    between atoms: C_2  and  C_6
REMARK    5  A    between atoms: C_4  and  O_5
REMARK    6  A    between atoms: C_6  and  O_8
REMARK    7  A    between atoms: C_6  and  C_9
REMARK                            x       y       z     vdW  Elec       q    Type
REMARK                         _______ _______ _______ _____ _____    ______ ____
ROOT
ATOM      1  C   UNL     1       9.741   0.907  21.822  0.00  0.00    +0.016 C 
ATOM      2  C   UNL     1       9.164   0.103  23.009  0.00  0.00    +0.019 C 
ATOM      3  C   UNL     1      10.091   0.351  24.219  0.00  0.00    +0.016 C 
ENDROOT
BRANCH   2   4
ATOM      4  C   UNL     1       9.123  -1.386  22.602  0.00  0.00    +0.168 C 
BRANCH   4   5
ATOM      5  C   UNL     1       9.106  -2.505  23.706  0.00  0.00    +0.071 C 
ATOM      6  O   UNL     1      10.226  -3.088  23.860  0.00  0.00    -0.547 OA
ATOM      7  O   UNL     1       7.998  -2.758  24.248  0.00  0.00    -0.547 OA
ENDBRANCH   4   5
BRANCH   4   8
ATOM      8  O   UNL     1      10.220  -1.621  21.669  0.00  0.00    -0.385 OA
ATOM      9  H   UNL     1      10.956  -1.947  22.211  0.00  0.00    +0.210 HD
ENDBRANCH   4   8
ENDBRANCH   2   4
BRANCH   2  10
ATOM     10  C   UNL     1       7.727   0.589  23.294  0.00  0.00    +0.165 C 
BRANCH  10  11
ATOM     11  O   UNL     1       6.750  -0.318  22.777  0.00  0.00    -0.394 OA
ATOM     12  H   UNL     1       6.708  -1.042  23.422  0.00  0.00    +0.209 HD
ENDBRANCH  10  11
ENDBRANCH   2  10
TORSDOF 5
ENDMDL
MODEL 4
REMARK VINA RESULT:      -3.8      1.636      2.269
REMARK  Name = 
REMARK  7 active torsions:
REMARK  status: ('A' for Active; 'I' for Inactive)
REMARK    1  A    between atoms: C_1  and  C_2
REMARK    2  A    between atoms: C_2  and  C_3
REMARK    3  A    between atoms: C_2  and  C_4
REMARK    4  A    between atoms: C_2  and  C_6
REMARK    5  A    between atoms: C_4  and  O_5
REMARK    6  A    between atoms: C_6  and  O_8
REMARK    7  A    between atoms: C_6  and  C_9
REMARK                            x       y       z     vdW  Elec       q    Type
REMARK                         _______ _______ _______ _____ _____    ______ ____
ROOT
ATOM      1  C   UNL     1       7.201   0.112  22.887  0.00  0.00    +0.016 C 
ATOM      2  C   UNL     1       8.721  -0.059  22.670  0.00  0.00    +0.019 C 
ATOM      3  C   UNL     1       9.126   0.888  21.520  0.00  0.00    +0.016 C 
ENDROOT
BRANCH   2   4
ATOM      4  C   UNL     1       8.990  -1.540  22.327  0.00  0.00    +0.168 C 
BRANCH   4   5
ATOM      5  C   UNL     1       9.046  -2.617  23.470  0.00  0.00    +0.071 C 
ATOM      6  O   UNL     1      10.228  -2.941  23.810  0.00  0.00    -0.547 OA
ATOM      7  O   UNL     1       7.949  -3.095  23.861  0.00  0.00    -0.547 OA
ENDBRANCH   4   5
BRANCH   4   8
ATOM      8  O   UNL     1      10.210  -1.597  21.528  0.00  0.00    -0.385 OA
ATOM      9  H   UNL     1      10.738  -2.314  21.910  0.00  0.00    +0.210 HD
ENDBRANCH   4   8
ENDBRANCH   2   4
BRANCH   2  10
ATOM     10  C   UNL     1       9.459   0.298  23.977  0.00  0.00    +0.165 C 
BRANCH  10  11
ATOM     11  O   UNL     1      10.877   0.190  23.831  0.00  0.00    -0.394 OA
ATOM     12  H   UNL     1      11.010  -0.379  23.056  0.00  0.00    +0.209 HD
ENDBRANCH  10  11
ENDBRANCH   2  10
TORSDOF 5
ENDMDL
MODEL 5
REMARK VINA RESULT:      -3.8      3.918      5.548
REMARK  Name = 
REMARK  7 active torsions:
REMARK  status: ('A' for Active; 'I' for Inactive)
REMARK    1  A    between atoms: C_1  and  C_2
REMARK    2  A    between atoms: C_2  and  C_3
REMARK    3  A    between atoms: C_2  and  C_4
REMARK    4  A    between atoms: C_2  and  C_6
REMARK    5  A    between atoms: C_4  and  O_5
REMARK    6  A    between atoms: C_6  and  O_8
REMARK    7  A    between atoms: C_6  and  C_9
REMARK                            x       y       z     vdW  Elec       q    Type
REMARK                         _______ _______ _______ _____ _____    ______ ____
ROOT
ATOM      1  C   UNL     1       6.526  -3.899  24.586  0.00  0.00    +0.016 C 
ATOM      2  C   UNL     1       7.820  -4.458  23.954  0.00  0.00    +0.019 C 
ATOM      3  C   UNL     1       7.403  -5.295  22.726  0.00  0.00    +0.016 C 
ENDROOT
BRANCH   2   4
ATOM      4  C   UNL     1       8.543  -5.309  25.020  0.00  0.00    +0.168 C 
BRANCH   4   5
ATOM      5  C   UNL     1       8.257  -5.070  26.547  0.00  0.00    +0.071 C 
ATOM      6  O   UNL     1       8.884  -4.077  27.036  0.00  0.00    -0.547 OA
ATOM      7  O   UNL     1       7.524  -5.911  27.131  0.00  0.00    -0.547 OA
ENDBRANCH   4   5
BRANCH   4   8
ATOM      8  O   UNL     1       9.977  -5.221  24.762  0.00  0.00    -0.385 OA
ATOM      9  H   UNL     1      10.394  -5.813  25.407  0.00  0.00    +0.210 HD
ENDBRANCH   4   8
ENDBRANCH   2   4
BRANCH   2  10
ATOM     10  C   UNL     1       8.730  -3.280  23.548  0.00  0.00    +0.165 C 
BRANCH  10  11
ATOM     11  O   UNL     1       8.941  -2.375  24.634  0.00  0.00    -0.394 OA
ATOM     12  H   UNL     1       9.145  -2.938  25.398  0.00  0.00    +0.209 HD
ENDBRANCH  10  11
ENDBRANCH   2  10
TORSDOF 5
ENDMDL
MODEL 6
REMARK VINA RESULT:      -3.8      1.343      2.298
REMARK  Name = 
REMARK  7 active torsions:
REMARK  status: ('A' for Active; 'I' for Inactive)
REMARK    1  A    between atoms: C_1  and  C_2
REMARK    2  A    between atoms: C_2  and  C_3
REMARK    3  A    between atoms: C_2  and  C_4
REMARK    4  A    between atoms: C_2  and  C_6
REMARK    5  A    between atoms: C_4  and  O_5
REMARK    6  A    between atoms: C_6  and  O_8
REMARK    7  A    between atoms: C_6  and  C_9
REMARK                            x       y       z     vdW  Elec       q    Type
REMARK                         _______ _______ _______ _____ _____    ______ ____
ROOT
ATOM      1  C   UNL     1       8.048   0.622  23.261  0.00  0.00    +0.016 C 
ATOM      2  C   UNL     1       9.549   0.456  22.934  0.00  0.00    +0.019 C 
ATOM      3  C   UNL     1       9.641  -0.239  21.558  0.00  0.00    +0.016 C 
ENDROOT
BRANCH   2   4
ATOM      4  C   UNL     1      10.191  -0.388  24.057  0.00  0.00    +0.168 C 
BRANCH   4   5
ATOM      5  C   UNL     1       9.656  -1.835  24.360  0.00  0.00    +0.071 C 
ATOM      6  O   UNL     1       8.821  -1.880  25.319  0.00  0.00    -0.547 OA
ATOM      7  O   UNL     1      10.157  -2.781  23.699  0.00  0.00    -0.547 OA
ENDBRANCH   4   5
BRANCH   4   8
ATOM      8  O   UNL     1      10.181   0.414  25.276  0.00  0.00    -0.385 OA
ATOM      9  H   UNL     1      10.104   1.334  24.980  0.00  0.00    +0.210 HD
ENDBRANCH   4   8
ENDBRANCH   2   4
BRANCH   2  10
ATOM     10  C   UNL     1      10.215   1.848  22.906  0.00  0.00    +0.165 C 
BRANCH  10  11
ATOM     11  O   UNL     1      10.253   2.389  21.584  0.00  0.00    -0.394 OA
ATOM     12  H   UNL     1      10.627   1.684  21.031  0.00  0.00    +0.209 HD
ENDBRANCH  10  11
ENDBRANCH   2  10
TORSDOF 5
ENDMDL
MODEL 7
REMARK VINA RESULT:      -3.8      2.784      4.244
REMARK  Name = 
REMARK  7 active torsions:
REMARK  status: ('A' for Active; 'I' for Inactive)
REMARK    1  A    between atoms: C_1  and  C_2
REMARK    2  A    between atoms: C_2  and  C_3
REMARK    3  A    between atoms: C_2  and  C_4
REMARK    4  A    between atoms: C_2  and  C_6
REMARK    5  A    between atoms: C_4  and  O_5
REMARK    6  A    between atoms: C_6  and  O_8
REMARK    7  A    between atoms: C_6  and  C_9
REMARK                            x       y       z     vdW  Elec       q    Type
REMARK                         _______ _______ _______ _____ _____    ______ ____
ROOT
ATOM      1  C   UNL     1       8.498   1.190  24.027  0.00  0.00    +0.016 C 
ATOM      2  C   UNL     1       9.923   1.596  23.592  0.00  0.00    +0.019 C 
ATOM      3  C   UNL     1      10.911   0.719  24.391  0.00  0.00    +0.016 C 
ENDROOT
BRANCH   2   4
ATOM      4  C   UNL     1      10.104   3.100  23.894  0.00  0.00    +0.168 C 
BRANCH   4   5
ATOM      5  C   UNL     1       8.846   4.014  24.125  0.00  0.00    +0.071 C 
ATOM      6  O   UNL     1       8.287   4.396  23.048  0.00  0.00    -0.547 OA
ATOM      7  O   UNL     1       8.581   4.334  25.313  0.00  0.00    -0.547 OA
ENDBRANCH   4   5
BRANCH   4   8
ATOM      8  O   UNL     1      10.947   3.665  22.845  0.00  0.00    -0.385 OA
ATOM      9  H   UNL     1      11.697   4.071  23.306  0.00  0.00    +0.210 HD
ENDBRANCH   4   8
ENDBRANCH   2   4
BRANCH   2  10
ATOM     10  C   UNL     1      10.070   1.366  22.073  0.00  0.00    +0.165 C 
BRANCH  10  11
ATOM     11  O   UNL     1       9.093   2.099  21.330  0.00  0.00    -0.394 OA
ATOM     12  H   UNL     1       9.591   2.543  20.624  0.00  0.00    +0.209 HD
ENDBRANCH  10  11
ENDBRANCH   2  10
TORSDOF 5
ENDMDL
MODEL 8
REMARK VINA RESULT:      -3.7      1.779      2.618
REMARK  Name = 
REMARK  7 active torsions:
REMARK  status: ('A' for Active; 'I' for Inactive)
REMARK    1  A    between atoms: C_1  and  C_2
REMARK    2  A    between atoms: C_2  and  C_3
REMARK    3  A    between atoms: C_2  and  C_4
REMARK    4  A    between atoms: C_2  and  C_6
REMARK    5  A    between atoms: C_4  and  O_5
REMARK    6  A    between atoms: C_6  and  O_8
REMARK    7  A    between atoms: C_6  and  C_9
REMARK                            x       y       z     vdW  Elec       q    Type
REMARK                         _______ _______ _______ _____ _____    ______ ____
ROOT
ATOM      1  C   UNL     1       8.039   0.658  23.290  0.00  0.00    +0.016 C 
ATOM      2  C   UNL     1       9.479   1.215  23.346  0.00  0.00    +0.019 C 
ATOM      3  C   UNL     1       9.865   1.624  21.908  0.00  0.00    +0.016 C 
ENDROOT
BRANCH   2   4
ATOM      4  C   UNL     1      10.398   0.107  23.903  0.00  0.00    +0.168 C 
BRANCH   4   5
ATOM      5  C   UNL     1      10.148  -1.396  23.514  0.00  0.00    +0.071 C 
ATOM      6  O   UNL     1       9.623  -2.085  24.445  0.00  0.00    -0.547 OA
ATOM      7  O   UNL     1      10.558  -1.770  22.384  0.00  0.00    -0.547 OA
ENDBRANCH   4   5
BRANCH   4   8
ATOM      8  O   UNL     1      10.432   0.247  25.356  0.00  0.00    -0.385 OA
ATOM      9  H   UNL     1      10.507   1.199  25.523  0.00  0.00    +0.210 HD
ENDBRANCH   4   8
ENDBRANCH   2   4
BRANCH   2  10
ATOM     10  C   UNL     1       9.512   2.426  24.302  0.00  0.00    +0.165 C 
BRANCH  10  11
ATOM     11  O   UNL     1       8.581   2.278  25.377  0.00  0.00    -0.394 OA
ATOM     12  H   UNL     1       7.815   2.818  25.125  0.00  0.00    +0.209 HD
ENDBRANCH  10  11
ENDBRANCH   2  10
TORSDOF 5
ENDMDL
MODEL 9
REMARK VINA RESULT:      -3.6      4.403      5.959
REMARK  Name = 
REMARK  7 active torsions:
REMARK  status: ('A' for Active; 'I' for Inactive)
REMARK    1  A    between atoms: C_1  and  C_2
REMARK    2  A    between atoms: C_2  and  C_3
REMARK    3  A    between atoms: C_2  and  C_4
REMARK    4  A    between atoms: C_2  and  C_6
REMARK    5  A    between atoms: C_4  and  O_5
REMARK    6  A    between atoms: C_6  and  O_8
REMARK    7  A    between atoms: C_6  and  C_9
REMARK                            x       y       z     vdW  Elec       q    Type
REMARK                         _______ _______ _______ _____ _____    ______ ____
ROOT
ATOM      1  C   UNL     1       6.482  -4.518  25.544  0.00  0.00    +0.016 C 
ATOM      2  C   UNL     1       7.941  -4.010  25.512  0.00  0.00    +0.019 C 
ATOM      3  C   UNL     1       7.892  -2.474  25.669  0.00  0.00    +0.016 C 
ENDROOT
BRANCH   2   4
ATOM      4  C   UNL     1       8.567  -4.438  24.167  0.00  0.00    +0.168 C 
BRANCH   4   5
ATOM      5  C   UNL     1       7.655  -4.645  22.904  0.00  0.00    +0.071 C 
ATOM      6  O   UNL     1       7.520  -5.864  22.565  0.00  0.00    -0.547 OA
ATOM      7  O   UNL     1       7.235  -3.609  22.325  0.00  0.00    -0.547 OA
ENDBRANCH   4   5
BRANCH   4   8
ATOM      8  O   UNL     1       9.363  -5.638  24.410  0.00  0.00    -0.385 OA
ATOM      9  H   UNL     1       9.435  -5.710  25.375  0.00  0.00    +0.210 HD
ENDBRANCH   4   8
ENDBRANCH   2   4
BRANCH   2  10
ATOM     10  C   UNL     1       8.727  -4.667  26.666  0.00  0.00    +0.165 C 
BRANCH  10  11
ATOM     11  O   UNL     1       8.123  -5.892  27.088  0.00  0.00    -0.394 OA
ATOM     12  H   UNL     1       8.346  -6.536  26.397  0.00  0.00    +0.209 HD
ENDBRANCH  10  11
ENDBRANCH   2  10
TORSDOF 5
ENDMDL
