MODEL 1
REMARK VINA RESULT:      -6.6      0.000      0.000
REMARK  Name = 
REMARK  7 active torsions:
REMARK  status: ('A' for Active; 'I' for Inactive)
REMARK    1  A    between atoms: C_2  and  O_3
REMARK    2  A    between atoms: C_2  and  C_4
REMARK    3  A    between atoms: C_2  and  C_6
REMARK    4  A    between atoms: C_4  and  O_5
REMARK    5  A    between atoms: C_6  and  C_7
REMARK    6  A    between atoms: C_7  and  O_8
REMARK    7  A    between atoms: O_8  and  N_9
REMARK                            x       y       z     vdW  Elec       q    Type
REMARK                         _______ _______ _______ _____ _____    ______ ____
ROOT
ATOM      1  N   UNL     1       6.228  -1.226  25.133  0.00  0.00    -0.083 NA
ATOM      2  C   UNL     1       7.258  -1.508  24.410  0.00  0.00    +0.133 C 
ATOM      3  C   UNL     1       7.853  -0.729  23.305  0.00  0.00    +0.027 A 
ATOM      4  C   UNL     1       9.116  -1.285  23.069  0.00  0.00    +0.041 A 
ATOM      5  C   UNL     1       9.980  -0.658  22.193  0.00  0.00    +0.024 A 
ATOM      6  C   UNL     1       9.534   0.485  21.511  0.00  0.00    +0.002 A 
ATOM      7  C   UNL     1       8.237   0.985  21.703  0.00  0.00    +0.001 A 
ATOM      8  N   UNL     1       9.353  -2.374  23.905  0.00  0.00    -0.312 N 
ATOM      9  H   UNL     1      10.046  -3.095  23.732  0.00  0.00    +0.152 HD
ATOM     10  C   UNL     1       7.379   0.371  22.608  0.00  0.00    +0.012 A 
ATOM     11  C   UNL     1       8.209  -2.674  24.633  0.00  0.00    +0.074 C 
ATOM     12  C   UNL     1       7.938  -3.758  25.389  0.00  0.00    +0.069 C 
ATOM     13  C   UNL     1       6.774  -4.197  26.189  0.00  0.00    +0.010 A 
ATOM     14  C   UNL     1       5.464  -3.777  26.346  0.00  0.00    +0.010 A 
ATOM     15  C   UNL     1       4.625  -4.437  27.252  0.00  0.00    +0.001 A 
ATOM     16  C   UNL     1       5.079  -5.554  27.962  0.00  0.00    +0.002 A 
ATOM     17  C   UNL     1       6.374  -6.033  27.761  0.00  0.00    +0.024 A 
ATOM     18  C   UNL     1       7.190  -5.343  26.879  0.00  0.00    +0.042 A 
ATOM     19  N   UNL     1       8.488  -5.686  26.524  0.00  0.00    -0.281 N 
ATOM     20  H   UNL     1       8.994  -6.492  26.858  0.00  0.00    +0.155 HD
ATOM     21  C   UNL     1       9.007  -4.798  25.598  0.00  0.00    +0.251 C 
ATOM     22  O   UNL     1      10.104  -4.853  25.063  0.00  0.00    -0.270 OA
ENDROOT
BRANCH   1  23
ATOM     23  O   UNL     1       5.578  -0.062  24.736  0.00  0.00    -0.393 OA
BRANCH  23  24
ATOM     24  C   UNL     1       5.374   0.761  25.881  0.00  0.00    +0.265 C 
BRANCH  24  25
ATOM     25  C   UNL     1       5.955   2.145  25.618  0.00  0.00    +0.077 C 
BRANCH  25  26
ATOM     26  C   UNL     1       7.377   2.257  26.148  0.00  0.00    +0.143 C 
BRANCH  26  27
ATOM     27  O   UNL     1       7.802   0.991  26.654  0.00  0.00    -0.389 OA
ATOM     28  H   UNL     1       7.202   0.743  27.382  0.00  0.00    +0.210 HD
ENDBRANCH  26  27
BRANCH  26  29
ATOM     29  C   UNL     1       8.339   2.745  25.056  0.00  0.00    +0.187 C 
BRANCH  29  30
ATOM     30  O   UNL     1       9.494   1.912  24.975  0.00  0.00    -0.392 OA
ATOM     31  H   UNL     1       9.273   1.057  25.384  0.00  0.00    +0.210 HD
ENDBRANCH  29  30
ENDBRANCH  26  29
ENDBRANCH  25  26
ENDBRANCH  24  25
ENDBRANCH  23  24
ENDBRANCH   1  23
TORSDOF 7
ENDMDL
MODEL 2
REMARK VINA RESULT:      -6.4      2.132      6.800
REMARK  Name = 
REMARK  7 active torsions:
REMARK  status: ('A' for Active; 'I' for Inactive)
REMARK    1  A    between atoms: C_2  and  O_3
REMARK    2  A    between atoms: C_2  and  C_4
REMARK    3  A    between atoms: C_2  and  C_6
REMARK    4  A    between atoms: C_4  and  O_5
REMARK    5  A    between atoms: C_6  and  C_7
REMARK    6  A    between atoms: C_7  and  O_8
REMARK    7  A    between atoms: O_8  and  N_9
REMARK                            x       y       z     vdW  Elec       q    Type
REMARK                         _______ _______ _______ _____ _____    ______ ____
ROOT
ATOM      1  N   UNL     1       6.871  -2.281  23.043  0.00  0.00    -0.083 NA
ATOM      2  C   UNL     1       6.154  -1.956  24.065  0.00  0.00    +0.133 C 
ATOM      3  C   UNL     1       4.971  -2.645  24.621  0.00  0.00    +0.027 A 
ATOM      4  C   UNL     1       4.760  -2.095  25.891  0.00  0.00    +0.041 A 
ATOM      5  C   UNL     1       3.813  -2.658  26.725  0.00  0.00    +0.024 A 
ATOM      6  C   UNL     1       3.042  -3.727  26.240  0.00  0.00    +0.002 A 
ATOM      7  C   UNL     1       3.215  -4.215  24.936  0.00  0.00    +0.001 A 
ATOM      8  N   UNL     1       5.684  -1.091  26.169  0.00  0.00    -0.312 N 
ATOM      9  H   UNL     1       5.562  -0.372  26.873  0.00  0.00    +0.152 HD
ATOM     10  C   UNL     1       4.190  -3.669  24.110  0.00  0.00    +0.012 A 
ATOM     11  C   UNL     1       6.460  -0.834  25.046  0.00  0.00    +0.074 C 
ATOM     12  C   UNL     1       7.316   0.182  24.812  0.00  0.00    +0.069 C 
ATOM     13  C   UNL     1       8.177   0.571  23.674  0.00  0.00    +0.010 A 
ATOM     14  C   UNL     1       8.323   0.166  22.359  0.00  0.00    +0.010 A 
ATOM     15  C   UNL     1       9.302   0.758  21.552  0.00  0.00    +0.001 A 
ATOM     16  C   UNL     1      10.099   1.797  22.044  0.00  0.00    +0.002 A 
ATOM     17  C   UNL     1       9.914   2.266  23.346  0.00  0.00    +0.024 A 
ATOM     18  C   UNL     1       8.957   1.642  24.128  0.00  0.00    +0.042 A 
ATOM     19  N   UNL     1       8.606   1.990  25.427  0.00  0.00    -0.281 N 
ATOM     20  H   UNL     1       9.001   2.752  25.957  0.00  0.00    +0.155 HD
ATOM     21  C   UNL     1       7.594   1.178  25.909  0.00  0.00    +0.251 C 
ATOM     22  O   UNL     1       7.043   1.258  26.996  0.00  0.00    -0.270 OA
ENDROOT
BRANCH   1  23
ATOM     23  O   UNL     1       6.385  -3.392  22.361  0.00  0.00    -0.393 OA
BRANCH  23  24
ATOM     24  C   UNL     1       7.452  -4.317  22.175  0.00  0.00    +0.265 C 
BRANCH  24  25
ATOM     25  C   UNL     1       7.358  -5.414  23.228  0.00  0.00    +0.077 C 
BRANCH  25  26
ATOM     26  C   UNL     1       8.347  -5.179  24.361  0.00  0.00    +0.143 C 
BRANCH  26  27
ATOM     27  O   UNL     1       9.093  -3.987  24.108  0.00  0.00    -0.389 OA
ATOM     28  H   UNL     1       9.895  -4.013  24.662  0.00  0.00    +0.210 HD
ENDBRANCH  26  27
BRANCH  26  29
ATOM     29  C   UNL     1       7.628  -5.081  25.714  0.00  0.00    +0.187 C 
BRANCH  29  30
ATOM     30  O   UNL     1       8.294  -5.856  26.709  0.00  0.00    -0.392 OA
ATOM     31  H   UNL     1       9.038  -6.313  26.281  0.00  0.00    +0.210 HD
ENDBRANCH  29  30
ENDBRANCH  26  29
ENDBRANCH  25  26
ENDBRANCH  24  25
ENDBRANCH  23  24
ENDBRANCH   1  23
TORSDOF 7
ENDMDL
MODEL 3
REMARK VINA RESULT:      -6.2      2.727      2.952
REMARK  Name = 
REMARK  7 active torsions:
REMARK  status: ('A' for Active; 'I' for Inactive)
REMARK    1  A    between atoms: C_2  and  O_3
REMARK    2  A    between atoms: C_2  and  C_4
REMARK    3  A    between atoms: C_2  and  C_6
REMARK    4  A    between atoms: C_4  and  O_5
REMARK    5  A    between atoms: C_6  and  C_7
REMARK    6  A    between atoms: C_7  and  O_8
REMARK    7  A    between atoms: O_8  and  N_9
REMARK                            x       y       z     vdW  Elec       q    Type
REMARK                         _______ _______ _______ _____ _____    ______ ____
ROOT
ATOM      1  N   UNL     1       5.541  -1.687  24.483  0.00  0.00    -0.083 NA
ATOM      2  C   UNL     1       6.392  -1.908  23.539  0.00  0.00    +0.133 C 
ATOM      3  C   UNL     1       7.354  -0.970  22.925  0.00  0.00    +0.027 A 
ATOM      4  C   UNL     1       8.253  -1.756  22.193  0.00  0.00    +0.041 A 
ATOM      5  C   UNL     1       9.371  -1.166  21.635  0.00  0.00    +0.024 A 
ATOM      6  C   UNL     1       9.533   0.222  21.764  0.00  0.00    +0.002 A 
ATOM      7  C   UNL     1       8.582   1.006  22.436  0.00  0.00    +0.001 A 
ATOM      8  N   UNL     1       7.917  -3.105  22.261  0.00  0.00    -0.312 N 
ATOM      9  H   UNL     1       8.228  -3.813  21.603  0.00  0.00    +0.152 HD
ATOM     10  C   UNL     1       7.473   0.407  23.023  0.00  0.00    +0.012 A 
ATOM     11  C   UNL     1       6.706  -3.263  22.923  0.00  0.00    +0.074 C 
ATOM     12  C   UNL     1       5.924  -4.357  23.025  0.00  0.00    +0.069 C 
ATOM     13  C   UNL     1       4.628  -4.646  23.677  0.00  0.00    +0.010 A 
ATOM     14  C   UNL     1       3.632  -3.896  24.280  0.00  0.00    +0.010 A 
ATOM     15  C   UNL     1       2.520  -4.536  24.840  0.00  0.00    +0.001 A 
ATOM     16  C   UNL     1       2.375  -5.925  24.747  0.00  0.00    +0.002 A 
ATOM     17  C   UNL     1       3.334  -6.687  24.079  0.00  0.00    +0.024 A 
ATOM     18  C   UNL     1       4.437  -6.029  23.559  0.00  0.00    +0.042 A 
ATOM     19  N   UNL     1       5.471  -6.608  22.836  0.00  0.00    -0.281 N 
ATOM     20  H   UNL     1       5.539  -7.584  22.587  0.00  0.00    +0.155 HD
ATOM     21  C   UNL     1       6.401  -5.661  22.442  0.00  0.00    +0.251 C 
ATOM     22  O   UNL     1       7.397  -5.850  21.760  0.00  0.00    -0.270 OA
ENDROOT
BRANCH   1  23
ATOM     23  O   UNL     1       5.509  -0.359  24.897  0.00  0.00    -0.393 OA
BRANCH  23  24
ATOM     24  C   UNL     1       5.050  -0.311  26.244  0.00  0.00    +0.265 C 
BRANCH  24  25
ATOM     25  C   UNL     1       6.159  -0.792  27.173  0.00  0.00    +0.077 C 
BRANCH  25  26
ATOM     26  C   UNL     1       7.448  -0.018  26.938  0.00  0.00    +0.143 C 
BRANCH  26  27
ATOM     27  O   UNL     1       7.750   0.775  28.086  0.00  0.00    -0.389 OA
ATOM     28  H   UNL     1       8.645   0.534  28.389  0.00  0.00    +0.210 HD
ENDBRANCH  26  27
BRANCH  26  29
ATOM     29  C   UNL     1       8.614  -0.967  26.624  0.00  0.00    +0.187 C 
BRANCH  29  30
ATOM     30  O   UNL     1       8.149  -2.291  26.370  0.00  0.00    -0.392 OA
ATOM     31  H   UNL     1       8.836  -2.755  25.862  0.00  0.00    +0.210 HD
ENDBRANCH  29  30
ENDBRANCH  26  29
ENDBRANCH  25  26
ENDBRANCH  24  25
ENDBRANCH  23  24
ENDBRANCH   1  23
TORSDOF 7
ENDMDL
MODEL 4
REMARK VINA RESULT:      -6.2      1.245      2.154
REMARK  Name = 
REMARK  7 active torsions:
REMARK  status: ('A' for Active; 'I' for Inactive)
REMARK    1  A    between atoms: C_2  and  O_3
REMARK    2  A    between atoms: C_2  and  C_4
REMARK    3  A    between atoms: C_2  and  C_6
REMARK    4  A    between atoms: C_4  and  O_5
REMARK    5  A    between atoms: C_6  and  C_7
REMARK    6  A    between atoms: C_7  and  O_8
REMARK    7  A    between atoms: O_8  and  N_9
REMARK                            x       y       z     vdW  Elec       q    Type
REMARK                         _______ _______ _______ _____ _____    ______ ____
ROOT
ATOM      1  N   UNL     1       6.780  -0.959  25.709  0.00  0.00    -0.083 NA
ATOM      2  C   UNL     1       7.590  -1.385  24.799  0.00  0.00    +0.133 C 
ATOM      3  C   UNL     1       8.101  -0.673  23.610  0.00  0.00    +0.027 A 
ATOM      4  C   UNL     1       9.175  -1.432  23.131  0.00  0.00    +0.041 A 
ATOM      5  C   UNL     1       9.961  -0.928  22.113  0.00  0.00    +0.024 A 
ATOM      6  C   UNL     1       9.612   0.305  21.542  0.00  0.00    +0.002 A 
ATOM      7  C   UNL     1       8.486   1.017  21.983  0.00  0.00    +0.001 A 
ATOM      8  N   UNL     1       9.362  -2.582  23.894  0.00  0.00    -0.312 N 
ATOM      9  H   UNL     1       9.867  -3.406  23.584  0.00  0.00    +0.152 HD
ATOM     10  C   UNL     1       7.714   0.524  23.029  0.00  0.00    +0.012 A 
ATOM     11  C   UNL     1       8.338  -2.709  24.824  0.00  0.00    +0.074 C 
ATOM     12  C   UNL     1       8.018  -3.761  25.605  0.00  0.00    +0.069 C 
ATOM     13  C   UNL     1       6.963  -4.024  26.608  0.00  0.00    +0.010 A 
ATOM     14  C   UNL     1       5.804  -3.387  27.017  0.00  0.00    +0.010 A 
ATOM     15  C   UNL     1       5.042  -3.929  28.059  0.00  0.00    +0.001 A 
ATOM     16  C   UNL     1       5.409  -5.140  28.656  0.00  0.00    +0.002 A 
ATOM     17  C   UNL     1       6.535  -5.830  28.207  0.00  0.00    +0.024 A 
ATOM     18  C   UNL     1       7.284  -5.256  27.193  0.00  0.00    +0.042 A 
ATOM     19  N   UNL     1       8.410  -5.806  26.593  0.00  0.00    -0.281 N 
ATOM     20  H   UNL     1       8.814  -6.704  26.815  0.00  0.00    +0.155 HD
ATOM     21  C   UNL     1       8.901  -4.982  25.595  0.00  0.00    +0.251 C 
ATOM     22  O   UNL     1       9.851  -5.205  24.860  0.00  0.00    -0.270 OA
ENDROOT
BRANCH   1  23
ATOM     23  O   UNL     1       6.291   0.319  25.456  0.00  0.00    -0.393 OA
BRANCH  23  24
ATOM     24  C   UNL     1       6.580   1.149  26.577  0.00  0.00    +0.265 C 
BRANCH  24  25
ATOM     25  C   UNL     1       5.916   0.569  27.820  0.00  0.00    +0.077 C 
BRANCH  25  26
ATOM     26  C   UNL     1       4.430   0.893  27.853  0.00  0.00    +0.143 C 
BRANCH  26  27
ATOM     27  O   UNL     1       4.132   1.888  26.872  0.00  0.00    -0.389 OA
ATOM     28  H   UNL     1       4.456   2.745  27.209  0.00  0.00    +0.210 HD
ENDBRANCH  26  27
BRANCH  26  29
ATOM     29  C   UNL     1       3.582  -0.364  27.611  0.00  0.00    +0.187 C 
BRANCH  29  30
ATOM     30  O   UNL     1       3.690  -0.808  26.261  0.00  0.00    -0.392 OA
ATOM     31  H   UNL     1       3.095  -0.262  25.719  0.00  0.00    +0.210 HD
ENDBRANCH  29  30
ENDBRANCH  26  29
ENDBRANCH  25  26
ENDBRANCH  24  25
ENDBRANCH  23  24
ENDBRANCH   1  23
TORSDOF 7
ENDMDL
MODEL 5
REMARK VINA RESULT:      -6.2      1.895      2.339
REMARK  Name = 
REMARK  7 active torsions:
REMARK  status: ('A' for Active; 'I' for Inactive)
REMARK    1  A    between atoms: C_2  and  O_3
REMARK    2  A    between atoms: C_2  and  C_4
REMARK    3  A    between atoms: C_2  and  C_6
REMARK    4  A    between atoms: C_4  and  O_5
REMARK    5  A    between atoms: C_6  and  C_7
REMARK    6  A    between atoms: C_7  and  O_8
REMARK    7  A    between atoms: O_8  and  N_9
REMARK                            x       y       z     vdW  Elec       q    Type
REMARK                         _______ _______ _______ _____ _____    ______ ____
ROOT
ATOM      1  N   UNL     1       8.260  -1.616  25.908  0.00  0.00    -0.083 NA
ATOM      2  C   UNL     1       8.253  -1.518  24.622  0.00  0.00    +0.133 C 
ATOM      3  C   UNL     1       8.774  -0.425  23.776  0.00  0.00    +0.027 A 
ATOM      4  C   UNL     1       8.821  -0.929  22.471  0.00  0.00    +0.041 A 
ATOM      5  C   UNL     1       9.424  -0.183  21.476  0.00  0.00    +0.024 A 
ATOM      6  C   UNL     1       9.910   1.094  21.796  0.00  0.00    +0.002 A 
ATOM      7  C   UNL     1       9.786   1.615  23.093  0.00  0.00    +0.001 A 
ATOM      8  N   UNL     1       8.337  -2.234  22.415  0.00  0.00    -0.312 N 
ATOM      9  H   UNL     1       8.009  -2.693  21.572  0.00  0.00    +0.152 HD
ATOM     10  C   UNL     1       9.208   0.851  24.100  0.00  0.00    +0.012 A 
ATOM     11  C   UNL     1       7.820  -2.604  23.650  0.00  0.00    +0.074 C 
ATOM     12  C   UNL     1       7.077  -3.681  23.977  0.00  0.00    +0.069 C 
ATOM     13  C   UNL     1       6.462  -4.174  25.229  0.00  0.00    +0.010 A 
ATOM     14  C   UNL     1       6.254  -3.663  26.499  0.00  0.00    +0.010 A 
ATOM     15  C   UNL     1       5.647  -4.458  27.479  0.00  0.00    +0.001 A 
ATOM     16  C   UNL     1       5.196  -5.746  27.173  0.00  0.00    +0.002 A 
ATOM     17  C   UNL     1       5.333  -6.249  25.878  0.00  0.00    +0.024 A 
ATOM     18  C   UNL     1       5.962  -5.449  24.938  0.00  0.00    +0.042 A 
ATOM     19  N   UNL     1       6.158  -5.760  23.598  0.00  0.00    -0.281 N 
ATOM     20  H   UNL     1       5.851  -6.606  23.141  0.00  0.00    +0.155 HD
ATOM     21  C   UNL     1       6.796  -4.729  22.931  0.00  0.00    +0.251 C 
ATOM     22  O   UNL     1       7.070  -4.682  21.742  0.00  0.00    -0.270 OA
ENDROOT
BRANCH   1  23
ATOM     23  O   UNL     1       8.770  -0.488  26.544  0.00  0.00    -0.393 OA
BRANCH  23  24
ATOM     24  C   UNL     1       7.876  -0.106  27.585  0.00  0.00    +0.265 C 
BRANCH  24  25
ATOM     25  C   UNL     1       6.485   0.112  27.001  0.00  0.00    +0.077 C 
BRANCH  25  26
ATOM     26  C   UNL     1       6.285   1.561  26.580  0.00  0.00    +0.143 C 
BRANCH  26  27
ATOM     27  O   UNL     1       7.507   2.282  26.741  0.00  0.00    -0.389 OA
ATOM     28  H   UNL     1       8.074   1.776  27.353  0.00  0.00    +0.210 HD
ENDBRANCH  26  27
BRANCH  26  29
ATOM     29  C   UNL     1       5.798   1.655  25.127  0.00  0.00    +0.187 C 
BRANCH  29  30
ATOM     30  O   UNL     1       5.315   0.396  24.663  0.00  0.00    -0.392 OA
ATOM     31  H   UNL     1       5.126  -0.155  25.441  0.00  0.00    +0.210 HD
ENDBRANCH  29  30
ENDBRANCH  26  29
ENDBRANCH  25  26
ENDBRANCH  24  25
ENDBRANCH  23  24
ENDBRANCH   1  23
TORSDOF 7
ENDMDL
MODEL 6
REMARK VINA RESULT:      -6.1      2.233      6.345
REMARK  Name = 
REMARK  7 active torsions:
REMARK  status: ('A' for Active; 'I' for Inactive)
REMARK    1  A    between atoms: C_2  and  O_3
REMARK    2  A    between atoms: C_2  and  C_4
REMARK    3  A    between atoms: C_2  and  C_6
REMARK    4  A    between atoms: C_4  and  O_5
REMARK    5  A    between atoms: C_6  and  C_7
REMARK    6  A    between atoms: C_7  and  O_8
REMARK    7  A    between atoms: O_8  and  N_9
REMARK                            x       y       z     vdW  Elec       q    Type
REMARK                         _______ _______ _______ _____ _____    ______ ____
ROOT
ATOM      1  N   UNL     1       6.063  -1.394  24.900  0.00  0.00    -0.083 NA
ATOM      2  C   UNL     1       7.263  -1.819  24.693  0.00  0.00    +0.133 C 
ATOM      3  C   UNL     1       7.944  -2.990  25.283  0.00  0.00    +0.027 A 
ATOM      4  C   UNL     1       9.091  -3.206  24.510  0.00  0.00    +0.041 A 
ATOM      5  C   UNL     1       9.850  -4.340  24.725  0.00  0.00    +0.024 A 
ATOM      6  C   UNL     1       9.480  -5.208  25.764  0.00  0.00    +0.002 A 
ATOM      7  C   UNL     1       8.371  -4.936  26.579  0.00  0.00    +0.001 A 
ATOM      8  N   UNL     1       9.213  -2.248  23.506  0.00  0.00    -0.312 N 
ATOM      9  H   UNL     1      10.076  -2.025  23.021  0.00  0.00    +0.152 HD
ATOM     10  C   UNL     1       7.590  -3.810  26.342  0.00  0.00    +0.012 A 
ATOM     11  C   UNL     1       8.232  -1.276  23.654  0.00  0.00    +0.074 C 
ATOM     12  C   UNL     1       8.115  -0.080  23.040  0.00  0.00    +0.069 C 
ATOM     13  C   UNL     1       7.143   1.033  23.116  0.00  0.00    +0.010 A 
ATOM     14  C   UNL     1       6.089   1.373  23.947  0.00  0.00    +0.010 A 
ATOM     15  C   UNL     1       5.341   2.527  23.687  0.00  0.00    +0.001 A 
ATOM     16  C   UNL     1       5.684   3.375  22.628  0.00  0.00    +0.002 A 
ATOM     17  C   UNL     1       6.788   3.084  21.825  0.00  0.00    +0.024 A 
ATOM     18  C   UNL     1       7.491   1.921  22.090  0.00  0.00    +0.042 A 
ATOM     19  N   UNL     1       8.632   1.484  21.428  0.00  0.00    -0.281 N 
ATOM     20  H   UNL     1       9.097   1.971  20.677  0.00  0.00    +0.155 HD
ATOM     21  C   UNL     1       9.098   0.295  21.961  0.00  0.00    +0.251 C 
ATOM     22  O   UNL     1      10.100  -0.318  21.625  0.00  0.00    -0.270 OA
ENDROOT
BRANCH   1  23
ATOM     23  O   UNL     1       5.380  -2.123  25.869  0.00  0.00    -0.393 OA
BRANCH  23  24
ATOM     24  C   UNL     1       4.194  -2.656  25.289  0.00  0.00    +0.265 C 
BRANCH  24  25
ATOM     25  C   UNL     1       4.326  -4.170  25.171  0.00  0.00    +0.077 C 
BRANCH  25  26
ATOM     26  C   UNL     1       4.582  -4.591  23.731  0.00  0.00    +0.143 C 
BRANCH  26  27
ATOM     27  O   UNL     1       4.935  -3.447  22.952  0.00  0.00    -0.389 OA
ATOM     28  H   UNL     1       4.175  -3.229  22.381  0.00  0.00    +0.210 HD
ENDBRANCH  26  27
BRANCH  26  29
ATOM     29  C   UNL     1       5.689  -5.652  23.652  0.00  0.00    +0.187 C 
BRANCH  29  30
ATOM     30  O   UNL     1       6.779  -5.203  22.851  0.00  0.00    -0.392 OA
ATOM     31  H   UNL     1       7.419  -5.932  22.783  0.00  0.00    +0.210 HD
ENDBRANCH  29  30
ENDBRANCH  26  29
ENDBRANCH  25  26
ENDBRANCH  24  25
ENDBRANCH  23  24
ENDBRANCH   1  23
TORSDOF 7
ENDMDL
MODEL 7
REMARK VINA RESULT:      -5.9      2.235      4.233
REMARK  Name = 
REMARK  7 active torsions:
REMARK  status: ('A' for Active; 'I' for Inactive)
REMARK    1  A    between atoms: C_2  and  O_3
REMARK    2  A    between atoms: C_2  and  C_4
REMARK    3  A    between atoms: C_2  and  C_6
REMARK    4  A    between atoms: C_4  and  O_5
REMARK    5  A    between atoms: C_6  and  C_7
REMARK    6  A    between atoms: C_7  and  O_8
REMARK    7  A    between atoms: O_8  and  N_9
REMARK                            x       y       z     vdW  Elec       q    Type
REMARK                         _______ _______ _______ _____ _____    ______ ____
ROOT
ATOM      1  N   UNL     1       7.573  -0.567  23.109  0.00  0.00    -0.083 NA
ATOM      2  C   UNL     1       6.804   0.059  23.934  0.00  0.00    +0.133 C 
ATOM      3  C   UNL     1       6.240   1.420  23.819  0.00  0.00    +0.027 A 
ATOM      4  C   UNL     1       5.235   1.509  24.789  0.00  0.00    +0.041 A 
ATOM      5  C   UNL     1       4.413   2.619  24.814  0.00  0.00    +0.024 A 
ATOM      6  C   UNL     1       4.660   3.658  23.903  0.00  0.00    +0.002 A 
ATOM      7  C   UNL     1       5.721   3.585  22.988  0.00  0.00    +0.001 A 
ATOM      8  N   UNL     1       5.143   0.335  25.532  0.00  0.00    -0.312 N 
ATOM      9  H   UNL     1       4.709   0.261  26.446  0.00  0.00    +0.152 HD
ATOM     10  C   UNL     1       6.527   2.454  22.943  0.00  0.00    +0.012 A 
ATOM     11  C   UNL     1       6.170  -0.532  25.183  0.00  0.00    +0.074 C 
ATOM     12  C   UNL     1       6.574  -1.667  25.790  0.00  0.00    +0.069 C 
ATOM     13  C   UNL     1       7.644  -2.656  25.532  0.00  0.00    +0.010 A 
ATOM     14  C   UNL     1       8.744  -2.729  24.696  0.00  0.00    +0.010 A 
ATOM     15  C   UNL     1       9.546  -3.877  24.697  0.00  0.00    +0.001 A 
ATOM     16  C   UNL     1       9.279  -4.931  25.578  0.00  0.00    +0.002 A 
ATOM     17  C   UNL     1       8.216  -4.842  26.477  0.00  0.00    +0.024 A 
ATOM     18  C   UNL     1       7.425  -3.705  26.433  0.00  0.00    +0.042 A 
ATOM     19  N   UNL     1       6.351  -3.421  27.268  0.00  0.00    -0.281 N 
ATOM     20  H   UNL     1       6.023  -4.006  28.021  0.00  0.00    +0.155 HD
ATOM     21  C   UNL     1       5.796  -2.188  26.971  0.00  0.00    +0.251 C 
ATOM     22  O   UNL     1       4.871  -1.641  27.550  0.00  0.00    -0.270 OA
ENDROOT
BRANCH   1  23
ATOM     23  O   UNL     1       7.954   0.205  22.015  0.00  0.00    -0.393 OA
BRANCH  23  24
ATOM     24  C   UNL     1       9.263  -0.187  21.614  0.00  0.00    +0.265 C 
BRANCH  24  25
ATOM     25  C   UNL     1      10.255   0.158  22.718  0.00  0.00    +0.077 C 
BRANCH  25  26
ATOM     26  C   UNL     1      10.492   1.660  22.796  0.00  0.00    +0.143 C 
BRANCH  26  27
ATOM     27  O   UNL     1       9.884   2.302  21.675  0.00  0.00    -0.389 OA
ATOM     28  H   UNL     1      10.269   1.916  20.865  0.00  0.00    +0.210 HD
ENDBRANCH  26  27
BRANCH  26  29
ATOM     29  C   UNL     1       9.942   2.241  24.107  0.00  0.00    +0.187 C 
BRANCH  29  30
ATOM     30  O   UNL     1       9.690   1.213  25.062  0.00  0.00    -0.392 OA
ATOM     31  H   UNL     1      10.247   0.449  24.830  0.00  0.00    +0.210 HD
ENDBRANCH  29  30
ENDBRANCH  26  29
ENDBRANCH  25  26
ENDBRANCH  24  25
ENDBRANCH  23  24
ENDBRANCH   1  23
TORSDOF 7
ENDMDL
MODEL 8
REMARK VINA RESULT:      -5.8      2.627      5.957
REMARK  Name = 
REMARK  7 active torsions:
REMARK  status: ('A' for Active; 'I' for Inactive)
REMARK    1  A    between atoms: C_2  and  O_3
REMARK    2  A    between atoms: C_2  and  C_4
REMARK    3  A    between atoms: C_2  and  C_6
REMARK    4  A    between atoms: C_4  and  O_5
REMARK    5  A    between atoms: C_6  and  C_7
REMARK    6  A    between atoms: C_7  and  O_8
REMARK    7  A    between atoms: O_8  and  N_9
REMARK                            x       y       z     vdW  Elec       q    Type
REMARK                         _______ _______ _______ _____ _____    ______ ____
ROOT
ATOM      1  N   UNL     1       5.671  -1.360  24.505  0.00  0.00    -0.083 NA
ATOM      2  C   UNL     1       6.451  -2.130  23.825  0.00  0.00    +0.133 C 
ATOM      3  C   UNL     1       6.291  -3.566  23.515  0.00  0.00    +0.027 A 
ATOM      4  C   UNL     1       7.212  -3.852  22.501  0.00  0.00    +0.041 A 
ATOM      5  C   UNL     1       7.183  -5.090  21.887  0.00  0.00    +0.024 A 
ATOM      6  C   UNL     1       6.270  -6.049  22.353  0.00  0.00    +0.002 A 
ATOM      7  C   UNL     1       5.406  -5.770  23.423  0.00  0.00    +0.001 A 
ATOM      8  N   UNL     1       7.967  -2.729  22.171  0.00  0.00    -0.312 N 
ATOM      9  H   UNL     1       8.861  -2.753  21.692  0.00  0.00    +0.152 HD
ATOM     10  C   UNL     1       5.415  -4.514  24.018  0.00  0.00    +0.012 A 
ATOM     11  C   UNL     1       7.678  -1.688  23.043  0.00  0.00    +0.074 C 
ATOM     12  C   UNL     1       8.319  -0.513  23.213  0.00  0.00    +0.069 C 
ATOM     13  C   UNL     1       8.125   0.654  24.102  0.00  0.00    +0.010 A 
ATOM     14  C   UNL     1       7.342   0.938  25.207  0.00  0.00    +0.010 A 
ATOM     15  C   UNL     1       7.397   2.209  25.792  0.00  0.00    +0.001 A 
ATOM     16  C   UNL     1       8.279   3.180  25.306  0.00  0.00    +0.002 A 
ATOM     17  C   UNL     1       9.127   2.885  24.237  0.00  0.00    +0.024 A 
ATOM     18  C   UNL     1       9.030   1.629  23.662  0.00  0.00    +0.042 A 
ATOM     19  N   UNL     1       9.810   1.142  22.621  0.00  0.00    -0.281 N 
ATOM     20  H   UNL     1      10.556   1.643  22.162  0.00  0.00    +0.155 HD
ATOM     21  C   UNL     1       9.470  -0.163  22.306  0.00  0.00    +0.251 C 
ATOM     22  O   UNL     1       9.998  -0.877  21.468  0.00  0.00    -0.270 OA
ENDROOT
BRANCH   1  23
ATOM     23  O   UNL     1       4.586  -2.028  25.063  0.00  0.00    -0.393 OA
BRANCH  23  24
ATOM     24  C   UNL     1       4.356  -1.513  26.371  0.00  0.00    +0.265 C 
BRANCH  24  25
ATOM     25  C   UNL     1       5.397  -2.080  27.328  0.00  0.00    +0.077 C 
BRANCH  25  26
ATOM     26  C   UNL     1       5.011  -3.475  27.800  0.00  0.00    +0.143 C 
BRANCH  26  27
ATOM     27  O   UNL     1       3.854  -3.919  27.090  0.00  0.00    -0.389 OA
ATOM     28  H   UNL     1       3.677  -4.841  27.356  0.00  0.00    +0.210 HD
ENDBRANCH  26  27
BRANCH  26  29
ATOM     29  C   UNL     1       6.168  -4.465  27.607  0.00  0.00    +0.187 C 
BRANCH  29  30
ATOM     30  O   UNL     1       6.411  -5.213  28.797  0.00  0.00    -0.392 OA
ATOM     31  H   UNL     1       6.527  -6.145  28.543  0.00  0.00    +0.210 HD
ENDBRANCH  29  30
ENDBRANCH  26  29
ENDBRANCH  25  26
ENDBRANCH  24  25
ENDBRANCH  23  24
ENDBRANCH   1  23
TORSDOF 7
ENDMDL
MODEL 9
REMARK VINA RESULT:      -5.8      1.973      3.193
REMARK  Name = 
REMARK  7 active torsions:
REMARK  status: ('A' for Active; 'I' for Inactive)
REMARK    1  A    between atoms: C_2  and  O_3
REMARK    2  A    between atoms: C_2  and  C_4
REMARK    3  A    between atoms: C_2  and  C_6
REMARK    4  A    between atoms: C_4  and  O_5
REMARK    5  A    between atoms: C_6  and  C_7
REMARK    6  A    between atoms: C_7  and  O_8
REMARK    7  A    between atoms: O_8  and  N_9
REMARK                            x       y       z     vdW  Elec       q    Type
REMARK                         _______ _______ _______ _____ _____    ______ ____
ROOT
ATOM      1  N   UNL     1       7.676   0.144  26.726  0.00  0.00    -0.083 NA
ATOM      2  C   UNL     1       8.330   0.363  25.636  0.00  0.00    +0.133 C 
ATOM      3  C   UNL     1       8.645   1.654  24.991  0.00  0.00    +0.027 A 
ATOM      4  C   UNL     1       9.629   1.382  24.033  0.00  0.00    +0.041 A 
ATOM      5  C   UNL     1      10.243   2.431  23.375  0.00  0.00    +0.024 A 
ATOM      6  C   UNL     1       9.808   3.738  23.643  0.00  0.00    +0.002 A 
ATOM      7  C   UNL     1       8.767   3.986  24.550  0.00  0.00    +0.001 A 
ATOM      8  N   UNL     1       9.934   0.024  23.991  0.00  0.00    -0.312 N 
ATOM      9  H   UNL     1      10.383  -0.444  23.211  0.00  0.00    +0.152 HD
ATOM     10  C   UNL     1       8.171   2.933  25.234  0.00  0.00    +0.012 A 
ATOM     11  C   UNL     1       9.071  -0.684  24.818  0.00  0.00    +0.074 C 
ATOM     12  C   UNL     1       8.880  -2.015  24.913  0.00  0.00    +0.069 C 
ATOM     13  C   UNL     1       7.998  -2.880  25.728  0.00  0.00    +0.010 A 
ATOM     14  C   UNL     1       6.919  -2.679  26.572  0.00  0.00    +0.010 A 
ATOM     15  C   UNL     1       6.332  -3.770  27.224  0.00  0.00    +0.001 A 
ATOM     16  C   UNL     1       6.789  -5.071  26.989  0.00  0.00    +0.002 A 
ATOM     17  C   UNL     1       7.829  -5.297  26.086  0.00  0.00    +0.024 A 
ATOM     18  C   UNL     1       8.407  -4.195  25.477  0.00  0.00    +0.042 A 
ATOM     19  N   UNL     1       9.422  -4.222  24.529  0.00  0.00    -0.281 N 
ATOM     20  H   UNL     1       9.856  -5.054  24.157  0.00  0.00    +0.155 HD
ATOM     21  C   UNL     1       9.749  -2.945  24.106  0.00  0.00    +0.251 C 
ATOM     22  O   UNL     1      10.569  -2.641  23.254  0.00  0.00    -0.270 OA
ENDROOT
BRANCH   1  23
ATOM     23  O   UNL     1       7.153   1.300  27.297  0.00  0.00    -0.393 OA
BRANCH  23  24
ATOM     24  C   UNL     1       6.088   0.938  28.170  0.00  0.00    +0.265 C 
BRANCH  24  25
ATOM     25  C   UNL     1       4.817   1.662  27.744  0.00  0.00    +0.077 C 
BRANCH  25  26
ATOM     26  C   UNL     1       4.078   0.889  26.661  0.00  0.00    +0.143 C 
BRANCH  26  27
ATOM     27  O   UNL     1       4.856   0.875  25.463  0.00  0.00    -0.389 OA
ATOM     28  H   UNL     1       5.426   1.667  25.469  0.00  0.00    +0.210 HD
ENDBRANCH  26  27
BRANCH  26  29
ATOM     29  C   UNL     1       3.773  -0.546  27.115  0.00  0.00    +0.187 C 
BRANCH  29  30
ATOM     30  O   UNL     1       3.812  -1.454  26.016  0.00  0.00    -0.392 OA
ATOM     31  H   UNL     1       3.968  -0.936  25.208  0.00  0.00    +0.210 HD
ENDBRANCH  29  30
ENDBRANCH  26  29
ENDBRANCH  25  26
ENDBRANCH  24  25
ENDBRANCH  23  24
ENDBRANCH   1  23
TORSDOF 7
ENDMDL
