MODEL 1
REMARK VINA RESULT:      -7.3      0.000      0.000
REMARK  Name = 
REMARK  11 active torsions:
REMARK  status: ('A' for Active; 'I' for Inactive)
REMARK    1  A    between atoms: C_1  and  C_2
REMARK    2  A    between atoms: C_2  and  N_3
REMARK    3  A    between atoms: N_3  and  C_4
REMARK    4  A    between atoms: N_3  and  C_6
REMARK    5  A    between atoms: C_4  and  C_5
REMARK    6  A    between atoms: C_6  and  C_7
REMARK    7  A    between atoms: C_7  and  N_8
REMARK    8  A    between atoms: C_9  and  C_11
REMARK    9  A    between atoms: C_12  and  C_13
REMARK   10  A    between atoms: C_15  and  C_16
REMARK   11  A    between atoms: C_28  and  C_29
REMARK                            x       y       z     vdW  Elec       q    Type
REMARK                         _______ _______ _______ _____ _____    ______ ____
ROOT
ATOM      1  C   UNL     1       8.632  -3.309  24.051  0.00  0.00    +0.060 A 
ATOM      2  C   UNL     1       7.277  -3.427  23.577  0.00  0.00    -0.013 A 
ATOM      3  C   UNL     1       6.551  -2.382  22.792  0.00  0.00    +0.047 C 
ATOM      4  C   UNL     1       6.787  -4.659  23.987  0.00  0.00    +0.044 A 
ATOM      5  N   UNL     1       7.794  -5.288  24.670  0.00  0.00    -0.358 N 
ATOM      6  H   UNL     1       7.721  -6.204  25.105  0.00  0.00    +0.166 HD
ATOM      7  C   UNL     1       8.912  -4.484  24.740  0.00  0.00    +0.026 A 
ATOM      8  C   UNL     1      10.090  -4.944  25.522  0.00  0.00    +0.064 C 
ENDROOT
BRANCH   4   9
ATOM      9  C   UNL     1       5.503  -5.233  23.799  0.00  0.00    +0.039 C 
ATOM     10  C   UNL     1       4.770  -6.017  24.597  0.00  0.00    +0.048 C 
ATOM     11  C   UNL     1       3.436  -6.492  24.196  0.00  0.00    +0.010 A 
ATOM     12  C   UNL     1       2.671  -6.295  23.057  0.00  0.00    +0.030 A 
ATOM     13  C   UNL     1       1.421  -6.910  22.997  0.00  0.00    +0.042 A 
ATOM     14  C   UNL     1       0.948  -7.702  24.058  0.00  0.00    +0.022 A 
ATOM     15  C   UNL     1       1.725  -7.892  25.206  0.00  0.00    +0.025 A 
ATOM     16 CL   UNL     1       0.443  -6.689  21.597  0.00  0.00    -0.084 Cl
ATOM     17  C   UNL     1       2.961  -7.277  25.248  0.00  0.00    +0.042 A 
ATOM     18  N   UNL     1       3.896  -7.325  26.278  0.00  0.00    -0.281 N 
ATOM     19  H   UNL     1       3.792  -7.824  27.148  0.00  0.00    +0.155 HD
ATOM     20  C   UNL     1       5.030  -6.585  25.969  0.00  0.00    +0.249 C 
ATOM     21  O   UNL     1       6.018  -6.434  26.668  0.00  0.00    -0.270 OA
ENDBRANCH   4   9
BRANCH   1  24
ATOM     22  N   UNL     1       9.441  -1.203  24.902  0.00  0.00    -0.310 N 
ATOM     23  H   UNL     1       9.107  -1.507  25.809  0.00  0.00    +0.149 HD
ATOM     24  C   UNL     1       9.478  -2.124  23.881  0.00  0.00    +0.246 C 
ATOM     25  O   UNL     1      10.208  -1.978  22.903  0.00  0.00    -0.270 OA
BRANCH  22  26
ATOM     26  C   UNL     1      10.291  -0.035  24.836  0.00  0.00    +0.120 C 
BRANCH  26  27
ATOM     27  C   UNL     1       9.531   1.246  24.454  0.00  0.00    +0.103 C 
BRANCH  27  28
ATOM     28  N   UNL     1      10.221   2.114  23.469  0.00  0.00    -0.301 NA
BRANCH  28  30
ATOM     29  C   UNL     1       8.603   1.181  21.763  0.00  0.00    +0.020 C 
ATOM     30  C   UNL     1      10.026   1.622  22.092  0.00  0.00    +0.081 C 
ENDBRANCH  28  30
BRANCH  28  31
ATOM     31  C   UNL     1       9.838   3.526  23.656  0.00  0.00    +0.081 C 
ATOM     32  C   UNL     1       8.732   3.807  24.672  0.00  0.00    +0.020 C 
ENDBRANCH  28  31
ENDBRANCH  27  28
ENDBRANCH  26  27
ENDBRANCH  22  26
ENDBRANCH   1  24
TORSDOF 7
ENDMDL
MODEL 2
REMARK VINA RESULT:      -7.3      3.879      9.769
REMARK  Name = 
REMARK  11 active torsions:
REMARK  status: ('A' for Active; 'I' for Inactive)
REMARK    1  A    between atoms: C_1  and  C_2
REMARK    2  A    between atoms: C_2  and  N_3
REMARK    3  A    between atoms: N_3  and  C_4
REMARK    4  A    between atoms: N_3  and  C_6
REMARK    5  A    between atoms: C_4  and  C_5
REMARK    6  A    between atoms: C_6  and  C_7
REMARK    7  A    between atoms: C_7  and  N_8
REMARK    8  A    between atoms: C_9  and  C_11
REMARK    9  A    between atoms: C_12  and  C_13
REMARK   10  A    between atoms: C_15  and  C_16
REMARK   11  A    between atoms: C_28  and  C_29
REMARK                            x       y       z     vdW  Elec       q    Type
REMARK                         _______ _______ _______ _____ _____    ______ ____
ROOT
ATOM      1  C   UNL     1       8.585  -2.462  24.220  0.00  0.00    +0.060 A 
ATOM      2  C   UNL     1       9.189  -1.384  23.481  0.00  0.00    -0.013 A 
ATOM      3  C   UNL     1       9.610  -1.458  22.048  0.00  0.00    +0.047 C 
ATOM      4  C   UNL     1       9.310  -0.295  24.334  0.00  0.00    +0.044 A 
ATOM      5  N   UNL     1       8.789  -0.671  25.544  0.00  0.00    -0.358 N 
ATOM      6  H   UNL     1       8.757  -0.084  26.373  0.00  0.00    +0.166 HD
ATOM      7  C   UNL     1       8.365  -1.982  25.507  0.00  0.00    +0.026 A 
ATOM      8  C   UNL     1       7.852  -2.616  26.751  0.00  0.00    +0.064 C 
ENDROOT
BRANCH   4   9
ATOM      9  C   UNL     1       9.864   0.988  24.095  0.00  0.00    +0.039 C 
ATOM     10  C   UNL     1       9.352   2.210  24.278  0.00  0.00    +0.048 C 
ATOM     11  C   UNL     1      10.126   3.424  23.969  0.00  0.00    +0.010 A 
ATOM     12  C   UNL     1      11.407   3.622  23.479  0.00  0.00    +0.030 A 
ATOM     13  C   UNL     1      11.838   4.936  23.294  0.00  0.00    +0.042 A 
ATOM     14  C   UNL     1      11.002   6.025  23.598  0.00  0.00    +0.022 A 
ATOM     15  C   UNL     1       9.712   5.815  24.096  0.00  0.00    +0.025 A 
ATOM     16 CL   UNL     1      13.423   5.222  22.685  0.00  0.00    -0.084 Cl
ATOM     17  C   UNL     1       9.301   4.509  24.271  0.00  0.00    +0.042 A 
ATOM     18  N   UNL     1       8.072   4.064  24.750  0.00  0.00    -0.281 N 
ATOM     19  H   UNL     1       7.303   4.650  25.039  0.00  0.00    +0.155 HD
ATOM     20  C   UNL     1       8.013   2.677  24.790  0.00  0.00    +0.249 C 
ATOM     21  O   UNL     1       7.074   1.995  25.161  0.00  0.00    -0.270 OA
ENDBRANCH   4   9
BRANCH   1  24
ATOM     22  N   UNL     1       7.360  -3.920  22.742  0.00  0.00    -0.310 N 
ATOM     23  H   UNL     1       7.076  -3.084  22.245  0.00  0.00    +0.149 HD
ATOM     24  C   UNL     1       8.348  -3.809  23.692  0.00  0.00    +0.246 C 
ATOM     25  O   UNL     1       9.018  -4.776  24.046  0.00  0.00    -0.270 OA
BRANCH  22  26
ATOM     26  C   UNL     1       7.106  -5.205  22.129  0.00  0.00    +0.120 C 
BRANCH  26  27
ATOM     27  C   UNL     1       5.684  -5.730  22.392  0.00  0.00    +0.103 C 
BRANCH  27  28
ATOM     28  N   UNL     1       5.054  -5.235  23.640  0.00  0.00    -0.301 NA
BRANCH  28  30
ATOM     29  C   UNL     1       2.705  -6.007  23.108  0.00  0.00    +0.020 C 
ATOM     30  C   UNL     1       3.649  -4.847  23.414  0.00  0.00    +0.081 C 
ENDBRANCH  28  30
BRANCH  28  31
ATOM     31  C   UNL     1       5.236  -6.202  24.739  0.00  0.00    +0.081 C 
ATOM     32  C   UNL     1       5.999  -5.707  25.967  0.00  0.00    +0.020 C 
ENDBRANCH  28  31
ENDBRANCH  27  28
ENDBRANCH  26  27
ENDBRANCH  22  26
ENDBRANCH   1  24
TORSDOF 7
ENDMDL
MODEL 3
REMARK VINA RESULT:      -6.7      3.259      8.717
REMARK  Name = 
REMARK  11 active torsions:
REMARK  status: ('A' for Active; 'I' for Inactive)
REMARK    1  A    between atoms: C_1  and  C_2
REMARK    2  A    between atoms: C_2  and  N_3
REMARK    3  A    between atoms: N_3  and  C_4
REMARK    4  A    between atoms: N_3  and  C_6
REMARK    5  A    between atoms: C_4  and  C_5
REMARK    6  A    between atoms: C_6  and  C_7
REMARK    7  A    between atoms: C_7  and  N_8
REMARK    8  A    between atoms: C_9  and  C_11
REMARK    9  A    between atoms: C_12  and  C_13
REMARK   10  A    between atoms: C_15  and  C_16
REMARK   11  A    between atoms: C_28  and  C_29
REMARK                            x       y       z     vdW  Elec       q    Type
REMARK                         _______ _______ _______ _____ _____    ______ ____
ROOT
ATOM      1  C   UNL     1       5.553  -4.564  23.118  0.00  0.00    +0.060 A 
ATOM      2  C   UNL     1       5.690  -3.221  23.619  0.00  0.00    -0.013 A 
ATOM      3  C   UNL     1       4.891  -2.641  24.742  0.00  0.00    +0.047 C 
ATOM      4  C   UNL     1       6.672  -2.584  22.873  0.00  0.00    +0.044 A 
ATOM      5  N   UNL     1       7.139  -3.492  21.960  0.00  0.00    -0.358 N 
ATOM      6  H   UNL     1       7.854  -3.303  21.263  0.00  0.00    +0.166 HD
ATOM      7  C   UNL     1       6.464  -4.689  22.074  0.00  0.00    +0.026 A 
ATOM      8  C   UNL     1       6.756  -5.783  21.109  0.00  0.00    +0.064 C 
ENDROOT
BRANCH   4   9
ATOM      9  C   UNL     1       7.152  -1.252  22.955  0.00  0.00    +0.039 C 
ATOM     10  C   UNL     1       8.365  -0.776  23.259  0.00  0.00    +0.048 C 
ATOM     11  C   UNL     1       8.646   0.669  23.269  0.00  0.00    +0.010 A 
ATOM     12  C   UNL     1       7.861   1.780  23.006  0.00  0.00    +0.030 A 
ATOM     13  C   UNL     1       8.456   3.038  23.114  0.00  0.00    +0.042 A 
ATOM     14  C   UNL     1       9.808   3.175  23.476  0.00  0.00    +0.022 A 
ATOM     15  C   UNL     1      10.593   2.046  23.736  0.00  0.00    +0.025 A 
ATOM     16 CL   UNL     1       7.511   4.443  22.797  0.00  0.00    -0.084 Cl
ATOM     17  C   UNL     1       9.989   0.810  23.625  0.00  0.00    +0.042 A 
ATOM     18  N   UNL     1      10.568  -0.438  23.834  0.00  0.00    -0.281 N 
ATOM     19  H   UNL     1      11.527  -0.608  24.098  0.00  0.00    +0.155 HD
ATOM     20  C   UNL     1       9.654  -1.464  23.632  0.00  0.00    +0.249 C 
ATOM     21  O   UNL     1       9.862  -2.660  23.738  0.00  0.00    -0.270 OA
ENDBRANCH   4   9
BRANCH   1  24
ATOM     22  N   UNL     1       4.938  -6.274  24.702  0.00  0.00    -0.310 N 
ATOM     23  H   UNL     1       5.680  -5.915  25.291  0.00  0.00    +0.149 HD
ATOM     24  C   UNL     1       4.571  -5.541  23.598  0.00  0.00    +0.246 C 
ATOM     25  O   UNL     1       3.468  -5.670  23.071  0.00  0.00    -0.270 OA
BRANCH  22  26
ATOM     26  C   UNL     1       4.001  -7.216  25.272  0.00  0.00    +0.120 C 
BRANCH  26  27
ATOM     27  C   UNL     1       3.404  -6.742  26.607  0.00  0.00    +0.103 C 
BRANCH  27  28
ATOM     28  N   UNL     1       3.707  -5.334  26.965  0.00  0.00    -0.301 NA
BRANCH  28  30
ATOM     29  C   UNL     1       1.680  -4.336  25.827  0.00  0.00    +0.020 C 
ATOM     30  C   UNL     1       2.472  -4.542  27.115  0.00  0.00    +0.081 C 
ENDBRANCH  28  30
BRANCH  28  31
ATOM     31  C   UNL     1       4.601  -5.271  28.136  0.00  0.00    +0.081 C 
ATOM     32  C   UNL     1       6.069  -4.948  27.860  0.00  0.00    +0.020 C 
ENDBRANCH  28  31
ENDBRANCH  27  28
ENDBRANCH  26  27
ENDBRANCH  22  26
ENDBRANCH   1  24
TORSDOF 7
ENDMDL
MODEL 4
REMARK VINA RESULT:      -6.6      3.780      9.846
REMARK  Name = 
REMARK  11 active torsions:
REMARK  status: ('A' for Active; 'I' for Inactive)
REMARK    1  A    between atoms: C_1  and  C_2
REMARK    2  A    between atoms: C_2  and  N_3
REMARK    3  A    between atoms: N_3  and  C_4
REMARK    4  A    between atoms: N_3  and  C_6
REMARK    5  A    between atoms: C_4  and  C_5
REMARK    6  A    between atoms: C_6  and  C_7
REMARK    7  A    between atoms: C_7  and  N_8
REMARK    8  A    between atoms: C_9  and  C_11
REMARK    9  A    between atoms: C_12  and  C_13
REMARK   10  A    between atoms: C_15  and  C_16
REMARK   11  A    between atoms: C_28  and  C_29
REMARK                            x       y       z     vdW  Elec       q    Type
REMARK                         _______ _______ _______ _____ _____    ______ ____
ROOT
ATOM      1  C   UNL     1       8.395  -2.546  24.964  0.00  0.00    +0.060 A 
ATOM      2  C   UNL     1       8.915  -1.252  25.326  0.00  0.00    -0.013 A 
ATOM      3  C   UNL     1       9.062  -0.750  26.727  0.00  0.00    +0.047 C 
ATOM      4  C   UNL     1       9.235  -0.577  24.156  0.00  0.00    +0.044 A 
ATOM      5  N   UNL     1       8.944  -1.416  23.113  0.00  0.00    -0.358 N 
ATOM      6  H   UNL     1       9.059  -1.186  22.130  0.00  0.00    +0.166 HD
ATOM      7  C   UNL     1       8.416  -2.604  23.574  0.00  0.00    +0.026 A 
ATOM      8  C   UNL     1       7.945  -3.619  22.595  0.00  0.00    +0.064 C 
ENDROOT
BRANCH   4   9
ATOM      9  C   UNL     1       9.749   0.732  23.976  0.00  0.00    +0.039 C 
ATOM     10  C   UNL     1       9.195   1.929  24.202  0.00  0.00    +0.048 C 
ATOM     11  C   UNL     1       9.931   3.179  23.952  0.00  0.00    +0.010 A 
ATOM     12  C   UNL     1      11.211   3.438  23.485  0.00  0.00    +0.030 A 
ATOM     13  C   UNL     1      11.600   4.772  23.359  0.00  0.00    +0.042 A 
ATOM     14  C   UNL     1      10.725   5.820  23.697  0.00  0.00    +0.022 A 
ATOM     15  C   UNL     1       9.437   5.548  24.171  0.00  0.00    +0.025 A 
ATOM     16 CL   UNL     1      13.181   5.134  22.781  0.00  0.00    -0.084 Cl
ATOM     17  C   UNL     1       9.068   4.223  24.288  0.00  0.00    +0.042 A 
ATOM     18  N   UNL     1       7.849   3.719  24.734  0.00  0.00    -0.281 N 
ATOM     19  H   UNL     1       7.059   4.267  25.037  0.00  0.00    +0.155 HD
ATOM     20  C   UNL     1       7.836   2.330  24.716  0.00  0.00    +0.249 C 
ATOM     21  O   UNL     1       6.916   1.603  25.049  0.00  0.00    -0.270 OA
ENDBRANCH   4   9
BRANCH   1  24
ATOM     22  N   UNL     1       6.515  -3.693  25.945  0.00  0.00    -0.310 N 
ATOM     23  H   UNL     1       5.979  -3.378  25.146  0.00  0.00    +0.149 HD
ATOM     24  C   UNL     1       7.881  -3.537  25.914  0.00  0.00    +0.246 C 
ATOM     25  O   UNL     1       8.628  -4.218  26.614  0.00  0.00    -0.270 OA
BRANCH  22  26
ATOM     26  C   UNL     1       5.935  -4.694  26.813  0.00  0.00    +0.120 C 
BRANCH  26  27
ATOM     27  C   UNL     1       5.633  -6.018  26.092  0.00  0.00    +0.103 C 
BRANCH  27  28
ATOM     28  N   UNL     1       4.384  -6.025  25.292  0.00  0.00    -0.301 NA
BRANCH  28  30
ATOM     29  C   UNL     1       4.617  -4.943  23.018  0.00  0.00    +0.020 C 
ATOM     30  C   UNL     1       4.669  -6.216  23.857  0.00  0.00    +0.081 C 
ENDBRANCH  28  30
BRANCH  28  31
ATOM     31  C   UNL     1       3.415  -6.993  25.840  0.00  0.00    +0.081 C 
ATOM     32  C   UNL     1       2.698  -7.889  24.831  0.00  0.00    +0.020 C 
ENDBRANCH  28  31
ENDBRANCH  27  28
ENDBRANCH  26  27
ENDBRANCH  22  26
ENDBRANCH   1  24
TORSDOF 7
ENDMDL
MODEL 5
REMARK VINA RESULT:      -6.5      2.847      9.479
REMARK  Name = 
REMARK  11 active torsions:
REMARK  status: ('A' for Active; 'I' for Inactive)
REMARK    1  A    between atoms: C_1  and  C_2
REMARK    2  A    between atoms: C_2  and  N_3
REMARK    3  A    between atoms: N_3  and  C_4
REMARK    4  A    between atoms: N_3  and  C_6
REMARK    5  A    between atoms: C_4  and  C_5
REMARK    6  A    between atoms: C_6  and  C_7
REMARK    7  A    between atoms: C_7  and  N_8
REMARK    8  A    between atoms: C_9  and  C_11
REMARK    9  A    between atoms: C_12  and  C_13
REMARK   10  A    between atoms: C_15  and  C_16
REMARK   11  A    between atoms: C_28  and  C_29
REMARK                            x       y       z     vdW  Elec       q    Type
REMARK                         _______ _______ _______ _____ _____    ______ ____
ROOT
ATOM      1  C   UNL     1       6.051  -5.044  24.149  0.00  0.00    +0.060 A 
ATOM      2  C   UNL     1       6.160  -3.643  24.469  0.00  0.00    -0.013 A 
ATOM      3  C   UNL     1       5.612  -3.001  25.703  0.00  0.00    +0.047 C 
ATOM      4  C   UNL     1       6.843  -3.020  23.433  0.00  0.00    +0.044 A 
ATOM      5  N   UNL     1       7.161  -3.990  22.518  0.00  0.00    -0.358 N 
ATOM      6  H   UNL     1       7.651  -3.827  21.642  0.00  0.00    +0.166 HD
ATOM      7  C   UNL     1       6.675  -5.216  22.918  0.00  0.00    +0.026 A 
ATOM      8  C   UNL     1       6.833  -6.389  22.018  0.00  0.00    +0.064 C 
ENDROOT
BRANCH   4   9
ATOM      9  C   UNL     1       7.177  -1.653  23.259  0.00  0.00    +0.039 C 
ATOM     10  C   UNL     1       8.365  -1.038  23.245  0.00  0.00    +0.048 C 
ATOM     11  C   UNL     1       8.478   0.415  23.032  0.00  0.00    +0.010 A 
ATOM     12  C   UNL     1       7.536   1.408  22.814  0.00  0.00    +0.030 A 
ATOM     13  C   UNL     1       7.995   2.716  22.651  0.00  0.00    +0.042 A 
ATOM     14  C   UNL     1       9.368   3.017  22.702  0.00  0.00    +0.022 A 
ATOM     15  C   UNL     1      10.310   2.006  22.918  0.00  0.00    +0.025 A 
ATOM     16 CL   UNL     1       6.855   3.978  22.381  0.00  0.00    -0.084 Cl
ATOM     17  C   UNL     1       9.839   0.719  23.079  0.00  0.00    +0.042 A 
ATOM     18  N   UNL     1      10.585  -0.435  23.302  0.00  0.00    -0.281 N 
ATOM     19  H   UNL     1      11.590  -0.484  23.376  0.00  0.00    +0.155 HD
ATOM     20  C   UNL     1       9.771  -1.554  23.416  0.00  0.00    +0.249 C 
ATOM     21  O   UNL     1      10.129  -2.703  23.611  0.00  0.00    -0.270 OA
ENDBRANCH   4   9
BRANCH   1  24
ATOM     22  N   UNL     1       4.156  -6.504  24.441  0.00  0.00    -0.310 N 
ATOM     23  H   UNL     1       3.995  -6.401  23.446  0.00  0.00    +0.149 HD
ATOM     24  C   UNL     1       5.338  -6.034  24.962  0.00  0.00    +0.246 C 
ATOM     25  O   UNL     1       5.789  -6.450  26.027  0.00  0.00    -0.270 OA
BRANCH  22  26
ATOM     26  C   UNL     1       3.423  -7.527  25.155  0.00  0.00    +0.120 C 
BRANCH  26  27
ATOM     27  C   UNL     1       1.930  -7.567  24.789  0.00  0.00    +0.103 C 
BRANCH  27  28
ATOM     28  N   UNL     1       1.571  -8.537  23.725  0.00  0.00    -0.301 NA
BRANCH  28  30
ATOM     29  C   UNL     1       0.996 -10.339  25.404  0.00  0.00    +0.020 C 
ATOM     30  C   UNL     1       0.565  -9.505  24.201  0.00  0.00    +0.081 C 
ENDBRANCH  28  30
BRANCH  28  31
ATOM     31  C   UNL     1       1.183  -7.837  22.486  0.00  0.00    +0.081 C 
ATOM     32  C   UNL     1       1.000  -6.323  22.584  0.00  0.00    +0.020 C 
ENDBRANCH  28  31
ENDBRANCH  27  28
ENDBRANCH  26  27
ENDBRANCH  22  26
ENDBRANCH   1  24
TORSDOF 7
ENDMDL
MODEL 6
REMARK VINA RESULT:      -6.5      2.110      3.272
REMARK  Name = 
REMARK  11 active torsions:
REMARK  status: ('A' for Active; 'I' for Inactive)
REMARK    1  A    between atoms: C_1  and  C_2
REMARK    2  A    between atoms: C_2  and  N_3
REMARK    3  A    between atoms: N_3  and  C_4
REMARK    4  A    between atoms: N_3  and  C_6
REMARK    5  A    between atoms: C_4  and  C_5
REMARK    6  A    between atoms: C_6  and  C_7
REMARK    7  A    between atoms: C_7  and  N_8
REMARK    8  A    between atoms: C_9  and  C_11
REMARK    9  A    between atoms: C_12  and  C_13
REMARK   10  A    between atoms: C_15  and  C_16
REMARK   11  A    between atoms: C_28  and  C_29
REMARK                            x       y       z     vdW  Elec       q    Type
REMARK                         _______ _______ _______ _____ _____    ______ ____
ROOT
ATOM      1  C   UNL     1       8.298  -0.238  23.635  0.00  0.00    +0.060 A 
ATOM      2  C   UNL     1       7.179  -0.975  24.163  0.00  0.00    -0.013 A 
ATOM      3  C   UNL     1       6.454  -0.643  25.427  0.00  0.00    +0.047 C 
ATOM      4  C   UNL     1       6.917  -2.031  23.300  0.00  0.00    +0.044 A 
ATOM      5  N   UNL     1       7.820  -1.946  22.272  0.00  0.00    -0.358 N 
ATOM      6  H   UNL     1       7.882  -2.598  21.495  0.00  0.00    +0.166 HD
ATOM      7  C   UNL     1       8.678  -0.884  22.463  0.00  0.00    +0.026 A 
ATOM      8  C   UNL     1       9.796  -0.671  21.506  0.00  0.00    +0.064 C 
ENDROOT
BRANCH   4   9
ATOM      9  C   UNL     1       5.941  -3.055  23.389  0.00  0.00    +0.039 C 
ATOM     10  C   UNL     1       5.862  -4.121  24.194  0.00  0.00    +0.048 C 
ATOM     11  C   UNL     1       4.732  -5.061  24.120  0.00  0.00    +0.010 A 
ATOM     12  C   UNL     1       3.599  -5.107  23.323  0.00  0.00    +0.030 A 
ATOM     13  C   UNL     1       2.710  -6.165  23.515  0.00  0.00    +0.042 A 
ATOM     14  C   UNL     1       2.953  -7.152  24.487  0.00  0.00    +0.022 A 
ATOM     15  C   UNL     1       4.098  -7.095  25.289  0.00  0.00    +0.025 A 
ATOM     16 CL   UNL     1       1.292  -6.257  22.542  0.00  0.00    -0.084 Cl
ATOM     17  C   UNL     1       4.967  -6.042  25.085  0.00  0.00    +0.042 A 
ATOM     18  N   UNL     1       6.157  -5.783  25.759  0.00  0.00    -0.281 N 
ATOM     19  H   UNL     1       6.548  -6.341  26.503  0.00  0.00    +0.155 HD
ATOM     20  C   UNL     1       6.771  -4.631  25.284  0.00  0.00    +0.249 C 
ATOM     21  O   UNL     1       7.819  -4.147  25.674  0.00  0.00    -0.270 OA
ENDBRANCH   4   9
BRANCH   1  24
ATOM     22  N   UNL     1       8.390   2.144  23.994  0.00  0.00    -0.310 N 
ATOM     23  H   UNL     1       7.451   2.180  23.616  0.00  0.00    +0.149 HD
ATOM     24  C   UNL     1       8.925   0.913  24.291  0.00  0.00    +0.246 C 
ATOM     25  O   UNL     1       9.850   0.784  25.091  0.00  0.00    -0.270 OA
BRANCH  22  26
ATOM     26  C   UNL     1       8.915   3.323  24.647  0.00  0.00    +0.120 C 
BRANCH  26  27
ATOM     27  C   UNL     1       9.630   4.282  23.680  0.00  0.00    +0.103 C 
BRANCH  27  28
ATOM     28  N   UNL     1       9.916   5.629  24.229  0.00  0.00    -0.301 NA
BRANCH  28  30
ATOM     29  C   UNL     1      12.178   4.945  23.330  0.00  0.00    +0.020 C 
ATOM     30  C   UNL     1      11.339   5.983  24.069  0.00  0.00    +0.081 C 
ENDBRANCH  28  30
BRANCH  28  31
ATOM     31  C   UNL     1       8.987   6.631  23.672  0.00  0.00    +0.081 C 
ATOM     32  C   UNL     1       7.996   6.135  22.621  0.00  0.00    +0.020 C 
ENDBRANCH  28  31
ENDBRANCH  27  28
ENDBRANCH  26  27
ENDBRANCH  22  26
ENDBRANCH   1  24
TORSDOF 7
ENDMDL
MODEL 7
REMARK VINA RESULT:      -6.3      2.655      4.285
REMARK  Name = 
REMARK  11 active torsions:
REMARK  status: ('A' for Active; 'I' for Inactive)
REMARK    1  A    between atoms: C_1  and  C_2
REMARK    2  A    between atoms: C_2  and  N_3
REMARK    3  A    between atoms: N_3  and  C_4
REMARK    4  A    between atoms: N_3  and  C_6
REMARK    5  A    between atoms: C_4  and  C_5
REMARK    6  A    between atoms: C_6  and  C_7
REMARK    7  A    between atoms: C_7  and  N_8
REMARK    8  A    between atoms: C_9  and  C_11
REMARK    9  A    between atoms: C_12  and  C_13
REMARK   10  A    between atoms: C_15  and  C_16
REMARK   11  A    between atoms: C_28  and  C_29
REMARK                            x       y       z     vdW  Elec       q    Type
REMARK                         _______ _______ _______ _____ _____    ______ ____
ROOT
ATOM      1  C   UNL     1       7.739   0.693  22.940  0.00  0.00    +0.060 A 
ATOM      2  C   UNL     1       6.659   0.120  23.702  0.00  0.00    -0.013 A 
ATOM      3  C   UNL     1       5.702   0.896  24.547  0.00  0.00    +0.047 C 
ATOM      4  C   UNL     1       6.686  -1.255  23.513  0.00  0.00    +0.044 A 
ATOM      5  N   UNL     1       7.722  -1.526  22.659  0.00  0.00    -0.358 N 
ATOM      6  H   UNL     1       7.996  -2.455  22.351  0.00  0.00    +0.166 HD
ATOM      7  C   UNL     1       8.387  -0.368  22.315  0.00  0.00    +0.026 A 
ATOM      8  C   UNL     1       9.606  -0.453  21.467  0.00  0.00    +0.064 C 
ENDROOT
BRANCH   4   9
ATOM      9  C   UNL     1       5.856  -2.263  24.066  0.00  0.00    +0.039 C 
ATOM     10  C   UNL     1       6.160  -3.446  24.610  0.00  0.00    +0.048 C 
ATOM     11  C   UNL     1       5.120  -4.341  25.143  0.00  0.00    +0.010 A 
ATOM     12  C   UNL     1       3.740  -4.233  25.225  0.00  0.00    +0.030 A 
ATOM     13  C   UNL     1       3.037  -5.292  25.799  0.00  0.00    +0.042 A 
ATOM     14  C   UNL     1       3.704  -6.432  26.282  0.00  0.00    +0.022 A 
ATOM     15  C   UNL     1       5.098  -6.530  26.198  0.00  0.00    +0.025 A 
ATOM     16 CL   UNL     1       1.322  -5.195  25.917  0.00  0.00    -0.084 Cl
ATOM     17  C   UNL     1       5.778  -5.474  25.626  0.00  0.00    +0.042 A 
ATOM     18  N   UNL     1       7.152  -5.352  25.439  0.00  0.00    -0.281 N 
ATOM     19  H   UNL     1       7.847  -6.033  25.703  0.00  0.00    +0.155 HD
ATOM     20  C   UNL     1       7.477  -4.148  24.827  0.00  0.00    +0.249 C 
ATOM     21  O   UNL     1       8.593  -3.755  24.535  0.00  0.00    -0.270 OA
ENDBRANCH   4   9
BRANCH   1  24
ATOM     22  N   UNL     1       8.943   2.537  23.921  0.00  0.00    -0.310 N 
ATOM     23  H   UNL     1       9.508   1.842  24.393  0.00  0.00    +0.149 HD
ATOM     24  C   UNL     1       8.091   2.116  22.927  0.00  0.00    +0.246 C 
ATOM     25  O   UNL     1       7.681   2.882  22.057  0.00  0.00    -0.270 OA
BRANCH  22  26
ATOM     26  C   UNL     1       9.384   3.914  23.941  0.00  0.00    +0.120 C 
BRANCH  26  27
ATOM     27  C   UNL     1      10.899   4.067  23.726  0.00  0.00    +0.103 C 
BRANCH  27  28
ATOM     28  N   UNL     1      11.365   5.459  23.516  0.00  0.00    -0.301 NA
BRANCH  28  30
ATOM     29  C   UNL     1      12.011   6.980  25.430  0.00  0.00    +0.020 C 
ATOM     30  C   UNL     1      10.900   6.349  24.596  0.00  0.00    +0.081 C 
ENDBRANCH  28  30
BRANCH  28  31
ATOM     31  C   UNL     1      12.824   5.497  23.300  0.00  0.00    +0.081 C 
ATOM     32  C   UNL     1      13.300   5.555  21.849  0.00  0.00    +0.020 C 
ENDBRANCH  28  31
ENDBRANCH  27  28
ENDBRANCH  26  27
ENDBRANCH  22  26
ENDBRANCH   1  24
TORSDOF 7
ENDMDL
MODEL 8
REMARK VINA RESULT:      -6.3      3.511      9.742
REMARK  Name = 
REMARK  11 active torsions:
REMARK  status: ('A' for Active; 'I' for Inactive)
REMARK    1  A    between atoms: C_1  and  C_2
REMARK    2  A    between atoms: C_2  and  N_3
REMARK    3  A    between atoms: N_3  and  C_4
REMARK    4  A    between atoms: N_3  and  C_6
REMARK    5  A    between atoms: C_4  and  C_5
REMARK    6  A    between atoms: C_6  and  C_7
REMARK    7  A    between atoms: C_7  and  N_8
REMARK    8  A    between atoms: C_9  and  C_11
REMARK    9  A    between atoms: C_12  and  C_13
REMARK   10  A    between atoms: C_15  and  C_16
REMARK   11  A    between atoms: C_28  and  C_29
REMARK                            x       y       z     vdW  Elec       q    Type
REMARK                         _______ _______ _______ _____ _____    ______ ____
ROOT
ATOM      1  C   UNL     1       7.438  -2.449  24.358  0.00  0.00    +0.060 A 
ATOM      2  C   UNL     1       7.973  -1.297  25.037  0.00  0.00    -0.013 A 
ATOM      3  C   UNL     1       8.687  -1.331  26.351  0.00  0.00    +0.047 C 
ATOM      4  C   UNL     1       7.697  -0.178  24.263  0.00  0.00    +0.044 A 
ATOM      5  N   UNL     1       7.036  -0.614  23.145  0.00  0.00    -0.358 N 
ATOM      6  H   UNL     1       6.690  -0.014  22.401  0.00  0.00    +0.166 HD
ATOM      7  C   UNL     1       6.849  -1.979  23.189  0.00  0.00    +0.026 A 
ATOM      8  C   UNL     1       6.068  -2.642  22.111  0.00  0.00    +0.064 C 
ENDROOT
BRANCH   4   9
ATOM      9  C   UNL     1       7.986   1.189  24.508  0.00  0.00    +0.039 C 
ATOM     10  C   UNL     1       8.897   2.001  23.961  0.00  0.00    +0.048 C 
ATOM     11  C   UNL     1       9.012   3.412  24.365  0.00  0.00    +0.010 A 
ATOM     12  C   UNL     1       8.319   4.187  25.281  0.00  0.00    +0.030 A 
ATOM     13  C   UNL     1       8.696   5.522  25.423  0.00  0.00    +0.042 A 
ATOM     14  C   UNL     1       9.744   6.068  24.661  0.00  0.00    +0.022 A 
ATOM     15  C   UNL     1      10.436   5.278  23.735  0.00  0.00    +0.025 A 
ATOM     16 CL   UNL     1       7.859   6.515  26.554  0.00  0.00    -0.084 Cl
ATOM     17  C   UNL     1      10.050   3.959  23.608  0.00  0.00    +0.042 A 
ATOM     18  N   UNL     1      10.589   2.996  22.759  0.00  0.00    -0.281 N 
ATOM     19  H   UNL     1      11.348   3.140  22.110  0.00  0.00    +0.155 HD
ATOM     20  C   UNL     1       9.948   1.773  22.904  0.00  0.00    +0.249 C 
ATOM     21  O   UNL     1      10.193   0.743  22.301  0.00  0.00    -0.270 OA
ENDBRANCH   4   9
BRANCH   1  24
ATOM     22  N   UNL     1       6.451  -4.154  25.748  0.00  0.00    -0.310 N 
ATOM     23  H   UNL     1       5.608  -3.593  25.738  0.00  0.00    +0.149 HD
ATOM     24  C   UNL     1       7.467  -3.817  24.884  0.00  0.00    +0.246 C 
ATOM     25  O   UNL     1       8.323  -4.630  24.543  0.00  0.00    -0.270 OA
BRANCH  22  26
ATOM     26  C   UNL     1       6.375  -5.503  26.264  0.00  0.00    +0.120 C 
BRANCH  26  27
ATOM     27  C   UNL     1       5.321  -6.364  25.550  0.00  0.00    +0.103 C 
BRANCH  27  28
ATOM     28  N   UNL     1       4.309  -5.604  24.777  0.00  0.00    -0.301 NA
BRANCH  28  30
ATOM     29  C   UNL     1       5.661  -6.170  22.716  0.00  0.00    +0.020 C 
ATOM     30  C   UNL     1       4.287  -6.024  23.363  0.00  0.00    +0.081 C 
ENDBRANCH  28  30
BRANCH  28  31
ATOM     31  C   UNL     1       2.991  -5.665  25.436  0.00  0.00    +0.081 C 
ATOM     32  C   UNL     1       2.626  -6.984  26.116  0.00  0.00    +0.020 C 
ENDBRANCH  28  31
ENDBRANCH  27  28
ENDBRANCH  26  27
ENDBRANCH  22  26
ENDBRANCH   1  24
TORSDOF 7
ENDMDL
MODEL 9
REMARK VINA RESULT:      -6.3      3.543      9.176
REMARK  Name = 
REMARK  11 active torsions:
REMARK  status: ('A' for Active; 'I' for Inactive)
REMARK    1  A    between atoms: C_1  and  C_2
REMARK    2  A    between atoms: C_2  and  N_3
REMARK    3  A    between atoms: N_3  and  C_4
REMARK    4  A    between atoms: N_3  and  C_6
REMARK    5  A    between atoms: C_4  and  C_5
REMARK    6  A    between atoms: C_6  and  C_7
REMARK    7  A    between atoms: C_7  and  N_8
REMARK    8  A    between atoms: C_9  and  C_11
REMARK    9  A    between atoms: C_12  and  C_13
REMARK   10  A    between atoms: C_15  and  C_16
REMARK   11  A    between atoms: C_28  and  C_29
REMARK                            x       y       z     vdW  Elec       q    Type
REMARK                         _______ _______ _______ _____ _____    ______ ____
ROOT
ATOM      1  C   UNL     1       8.027  -3.912  23.848  0.00  0.00    +0.060 A 
ATOM      2  C   UNL     1       7.940  -2.532  23.447  0.00  0.00    -0.013 A 
ATOM      3  C   UNL     1       6.943  -1.982  22.477  0.00  0.00    +0.047 C 
ATOM      4  C   UNL     1       8.939  -1.831  24.108  0.00  0.00    +0.044 A 
ATOM      5  N   UNL     1       9.607  -2.728  24.898  0.00  0.00    -0.358 N 
ATOM      6  H   UNL     1      10.404  -2.506  25.488  0.00  0.00    +0.166 HD
ATOM      7  C   UNL     1       9.088  -3.996  24.742  0.00  0.00    +0.026 A 
ATOM      8  C   UNL     1       9.735  -5.138  25.443  0.00  0.00    +0.064 C 
ENDROOT
BRANCH   4   9
ATOM      9  C   UNL     1       9.287  -0.458  24.031  0.00  0.00    +0.039 C 
ATOM     10  C   UNL     1       8.636   0.634  24.446  0.00  0.00    +0.048 C 
ATOM     11  C   UNL     1       9.202   1.982  24.272  0.00  0.00    +0.010 A 
ATOM     12  C   UNL     1      10.388   2.439  23.719  0.00  0.00    +0.030 A 
ATOM     13  C   UNL     1      10.616   3.815  23.711  0.00  0.00    +0.042 A 
ATOM     14  C   UNL     1       9.676   4.711  24.249  0.00  0.00    +0.022 A 
ATOM     15  C   UNL     1       8.483   4.240  24.809  0.00  0.00    +0.025 A 
ATOM     16 CL   UNL     1      12.077   4.420  23.029  0.00  0.00    -0.084 Cl
ATOM     17  C   UNL     1       8.273   2.876  24.808  0.00  0.00    +0.042 A 
ATOM     18  N   UNL     1       7.171   2.187  25.306  0.00  0.00    -0.281 N 
ATOM     19  H   UNL     1       6.364   2.604  25.745  0.00  0.00    +0.155 HD
ATOM     20  C   UNL     1       7.305   0.816  25.130  0.00  0.00    +0.249 C 
ATOM     21  O   UNL     1       6.509  -0.045  25.463  0.00  0.00    -0.270 OA
ENDBRANCH   4   9
BRANCH   1  24
ATOM     22  N   UNL     1       6.014  -5.230  23.998  0.00  0.00    -0.310 N 
ATOM     23  H   UNL     1       5.647  -4.498  24.595  0.00  0.00    +0.149 HD
ATOM     24  C   UNL     1       7.186  -4.991  23.320  0.00  0.00    +0.246 C 
ATOM     25  O   UNL     1       7.489  -5.619  22.308  0.00  0.00    -0.270 OA
BRANCH  22  26
ATOM     26  C   UNL     1       5.101  -6.238  23.505  0.00  0.00    +0.120 C 
BRANCH  26  27
ATOM     27  C   UNL     1       4.242  -6.869  24.613  0.00  0.00    +0.103 C 
BRANCH  27  28
ATOM     28  N   UNL     1       2.819  -6.451  24.617  0.00  0.00    -0.301 NA
BRANCH  28  30
ATOM     29  C   UNL     1       2.947  -4.235  25.830  0.00  0.00    +0.020 C 
ATOM     30  C   UNL     1       2.487  -5.690  25.836  0.00  0.00    +0.081 C 
ENDBRANCH  28  30
BRANCH  28  31
ATOM     31  C   UNL     1       2.474  -5.750  23.366  0.00  0.00    +0.081 C 
ATOM     32  C   UNL     1       1.214  -6.222  22.641  0.00  0.00    +0.020 C 
ENDBRANCH  28  31
ENDBRANCH  27  28
ENDBRANCH  26  27
ENDBRANCH  22  26
ENDBRANCH   1  24
TORSDOF 7
ENDMDL
