MODEL 1
REMARK VINA RESULT:      -7.8      0.000      0.000
REMARK  Name = 
REMARK  11 active torsions:
REMARK  status: ('A' for Active; 'I' for Inactive)
REMARK    1  A    between atoms: C_5  and  C_6
REMARK    2  A    between atoms: C_6  and  S_7
REMARK    3  A    between atoms: S_7  and  C_8
REMARK    4  A    between atoms: N_15  and  C_16
REMARK    5  A    between atoms: CA_17  and  C_36
REMARK    6  A    between atoms: CA_21  and  N_23
REMARK    7  A    between atoms: C_24  and  C_26
REMARK    8  A    between atoms: C_26  and  C_30
REMARK    9  A    between atoms: N_27  and  O_28
REMARK   10  A    between atoms: O_28  and  C_29
REMARK   11  A    between atoms: C_36  and  O_37
REMARK                            x       y       z     vdW  Elec       q    Type
REMARK                         _______ _______ _______ _____ _____    ______ ____
ROOT
ATOM      1  C   UNL     1       9.492  -0.429  25.318  0.00  0.00    +0.169 C 
ATOM      2  CA  UNL     1       9.890  -0.064  23.831  0.00  0.00    +0.191 C 
ATOM      3  C   UNL     1      10.139  -1.611  23.769  0.00  0.00    +0.244 C 
ATOM      4  O   UNL     1      10.499  -2.377  22.891  0.00  0.00    -0.273 OA
ATOM      5  N   UNL     1       9.458  -1.805  24.918  0.00  0.00    -0.249 N 
ATOM      6  CA  UNL     1       8.664  -2.810  25.394  0.00  0.00    +0.123 C 
ATOM      7  C   UNL     1       7.573  -2.603  26.186  0.00  0.00    -0.021 C 
ATOM      8  C   UNL     1       7.182  -1.257  26.753  0.00  0.00    +0.104 C 
ATOM      9  S   UNL     1       8.228   0.201  26.399  0.00  0.00    -0.131 S 
ENDROOT
BRANCH   2  10
ATOM     10  N   UNL     1       9.117   0.439  22.607  0.00  0.00    -0.296 N 
ATOM     11  H   UNL     1       9.147  -0.142  21.771  0.00  0.00    +0.150 HD
ATOM     12  C   UNL     1       8.232   1.499  22.357  0.00  0.00    +0.268 C 
ATOM     13  O   UNL     1       7.691   1.596  21.263  0.00  0.00    -0.268 OA
BRANCH  12  14
ATOM     14  C   UNL     1       8.078   2.655  23.318  0.00  0.00    +0.190 C 
ATOM     15  N   UNL     1       7.047   2.793  24.081  0.00  0.00    -0.078 NA
BRANCH  14  16
ATOM     16  C   UNL     1       9.152   3.579  23.689  0.00  0.00    +0.107 A 
ATOM     17  N   UNL     1      10.501   3.350  23.368  0.00  0.00    -0.223 NA
ATOM     18  C   UNL     1      11.205   4.446  23.507  0.00  0.00    +0.156 A 
ATOM     19  N   UNL     1      12.522   4.561  23.230  0.00  0.00    -0.338 N 
ATOM     20  H   UNL     1      12.916   3.815  22.666  0.00  0.00    +0.144 HD
ATOM     21  H   UNL     1      12.877   5.466  23.022  0.00  0.00    +0.144 HD
ATOM     22  S   UNL     1      10.311   5.833  24.002  0.00  0.00    -0.060 S 
ATOM     23  C   UNL     1       8.886   4.888  24.055  0.00  0.00    +0.078 A 
ENDBRANCH  14  16
BRANCH  15  24
ATOM     24  O   UNL     1       6.058   1.812  24.128  0.00  0.00    -0.396 OA
ATOM     25  C   UNL     1       4.995   1.854  25.065  0.00  0.00    +0.313 C 
ENDBRANCH  15  24
ENDBRANCH  12  14
ENDBRANCH   2  10
BRANCH   6  26
ATOM     26  C   UNL     1       9.026  -4.237  25.032  0.00  0.00    +0.351 C 
ATOM     27  OXT UNL     1       9.703  -4.913  25.785  0.00  0.00    -0.244 OA
BRANCH  26  28
ATOM     28  O   UNL     1       8.632  -4.700  23.848  0.00  0.00    -0.476 OA
ATOM     29  H   UNL     1       9.314  -4.843  23.158  0.00  0.00    +0.295 HD
ENDBRANCH  26  28
ENDBRANCH   6  26
BRANCH   7  30
ATOM     30  C   UNL     1       6.588  -3.766  26.520  0.00  0.00    +0.111 C 
BRANCH  30  31
ATOM     31  S   UNL     1       4.955  -3.901  25.681  0.00  0.00    -0.082 S 
BRANCH  31  32
ATOM     32  C   UNL     1       5.284  -4.583  24.070  0.00  0.00    +0.187 A 
ATOM     33  N   UNL     1       5.024  -5.925  23.808  0.00  0.00    -0.264 N 
ATOM     34  C   UNL     1       4.481  -6.908  24.729  0.00  0.00    +0.173 C 
ATOM     35  N   UNL     1       5.531  -6.467  22.603  0.00  0.00    -0.257 N 
ATOM     36  H   UNL     1       5.315  -7.429  22.351  0.00  0.00    +0.190 HD
ATOM     37  C   UNL     1       5.875  -5.640  21.554  0.00  0.00    +0.330 A 
ATOM     38  O   UNL     1       6.205  -6.062  20.462  0.00  0.00    -0.260 OA
ATOM     39  C   UNL     1       5.746  -4.159  21.888  0.00  0.00    +0.338 A 
ATOM     40  O   UNL     1       5.635  -3.426  20.911  0.00  0.00    -0.260 OA
ATOM     41  N   UNL     1       5.643  -3.717  23.187  0.00  0.00    -0.179 NA
ENDBRANCH  31  32
ENDBRANCH  30  31
ENDBRANCH   7  30
TORSDOF 9
ENDMDL
MODEL 2
REMARK VINA RESULT:      -7.5      2.947      7.871
REMARK  Name = 
REMARK  11 active torsions:
REMARK  status: ('A' for Active; 'I' for Inactive)
REMARK    1  A    between atoms: C_5  and  C_6
REMARK    2  A    between atoms: C_6  and  S_7
REMARK    3  A    between atoms: S_7  and  C_8
REMARK    4  A    between atoms: N_15  and  C_16
REMARK    5  A    between atoms: CA_17  and  C_36
REMARK    6  A    between atoms: CA_21  and  N_23
REMARK    7  A    between atoms: C_24  and  C_26
REMARK    8  A    between atoms: C_26  and  C_30
REMARK    9  A    between atoms: N_27  and  O_28
REMARK   10  A    between atoms: O_28  and  C_29
REMARK   11  A    between atoms: C_36  and  O_37
REMARK                            x       y       z     vdW  Elec       q    Type
REMARK                         _______ _______ _______ _____ _____    ______ ____
ROOT
ATOM      1  C   UNL     1       2.810  -5.285  25.399  0.00  0.00    +0.169 C 
ATOM      2  CA  UNL     1       3.191  -6.717  25.953  0.00  0.00    +0.191 C 
ATOM      3  C   UNL     1       4.038  -6.743  24.633  0.00  0.00    +0.244 C 
ATOM      4  O   UNL     1       4.796  -7.553  24.128  0.00  0.00    -0.273 OA
ATOM      5  N   UNL     1       3.898  -5.410  24.473  0.00  0.00    -0.249 N 
ATOM      6  CA  UNL     1       4.694  -4.426  23.959  0.00  0.00    +0.123 C 
ATOM      7  C   UNL     1       4.736  -3.153  24.446  0.00  0.00    -0.021 C 
ATOM      8  C   UNL     1       3.812  -2.628  25.521  0.00  0.00    +0.104 C 
ATOM      9  S   UNL     1       2.528  -3.730  26.215  0.00  0.00    -0.131 S 
ENDROOT
BRANCH   2  10
ATOM     10  N   UNL     1       3.995  -7.221  27.156  0.00  0.00    -0.296 N 
ATOM     11  H   UNL     1       3.758  -8.143  27.518  0.00  0.00    +0.150 HD
ATOM     12  C   UNL     1       5.119  -6.764  27.863  0.00  0.00    +0.268 C 
ATOM     13  O   UNL     1       5.597  -7.452  28.757  0.00  0.00    -0.268 OA
BRANCH  12  14
ATOM     14  C   UNL     1       5.640  -5.354  27.709  0.00  0.00    +0.190 C 
ATOM     15  N   UNL     1       5.082  -4.340  28.278  0.00  0.00    -0.078 NA
BRANCH  14  16
ATOM     16  C   UNL     1       6.944  -5.004  27.141  0.00  0.00    +0.107 A 
ATOM     17  N   UNL     1       7.827  -5.962  26.612  0.00  0.00    -0.223 NA
ATOM     18  C   UNL     1       8.753  -5.388  25.883  0.00  0.00    +0.156 A 
ATOM     19  N   UNL     1       9.719  -6.042  25.204  0.00  0.00    -0.338 N 
ATOM     20  H   UNL     1       9.564  -7.036  25.074  0.00  0.00    +0.144 HD
ATOM     21  H   UNL     1      10.131  -5.584  24.423  0.00  0.00    +0.144 HD
ATOM     22  S   UNL     1       8.622  -3.675  25.750  0.00  0.00    -0.060 S 
ATOM     23  C   UNL     1       7.243  -3.706  26.761  0.00  0.00    +0.078 A 
ENDBRANCH  14  16
BRANCH  15  24
ATOM     24  O   UNL     1       4.015  -4.514  29.159  0.00  0.00    -0.396 OA
ATOM     25  C   UNL     1       3.770  -3.624  30.235  0.00  0.00    +0.313 C 
ENDBRANCH  15  24
ENDBRANCH  12  14
ENDBRANCH   2  10
BRANCH   6  26
ATOM     26  C   UNL     1       5.571  -4.767  22.769  0.00  0.00    +0.351 C 
ATOM     27  OXT UNL     1       5.205  -4.508  21.638  0.00  0.00    -0.244 OA
BRANCH  26  28
ATOM     28  O   UNL     1       6.715  -5.406  23.000  0.00  0.00    -0.476 OA
ATOM     29  H   UNL     1       7.530  -4.870  23.105  0.00  0.00    +0.295 HD
ENDBRANCH  26  28
ENDBRANCH   6  26
BRANCH   7  30
ATOM     30  C   UNL     1       5.816  -2.138  23.957  0.00  0.00    +0.111 C 
BRANCH  30  31
ATOM     31  S   UNL     1       6.004  -0.490  24.755  0.00  0.00    -0.082 S 
BRANCH  31  32
ATOM     32  C   UNL     1       7.734  -0.087  24.650  0.00  0.00    +0.187 A 
ATOM     33  N   UNL     1       8.509  -0.013  25.805  0.00  0.00    -0.264 N 
ATOM     34  C   UNL     1       8.070  -0.237  27.171  0.00  0.00    +0.173 C 
ATOM     35  N   UNL     1       9.804   0.548  25.689  0.00  0.00    -0.257 N 
ATOM     36  H   UNL     1      10.419   0.569  26.499  0.00  0.00    +0.190 HD
ATOM     37  C   UNL     1      10.431   0.613  24.462  0.00  0.00    +0.330 A 
ATOM     38  O   UNL     1      11.584   0.978  24.329  0.00  0.00    -0.260 OA
ATOM     39  C   UNL     1       9.555   0.131  23.312  0.00  0.00    +0.338 A 
ATOM     40  O   UNL     1      10.175  -0.216  22.313  0.00  0.00    -0.260 OA
ATOM     41  N   UNL     1       8.194  -0.009  23.450  0.00  0.00    -0.179 NA
ENDBRANCH  31  32
ENDBRANCH  30  31
ENDBRANCH   7  30
TORSDOF 9
ENDMDL
MODEL 3
REMARK VINA RESULT:      -7.5      2.795      6.807
REMARK  Name = 
REMARK  11 active torsions:
REMARK  status: ('A' for Active; 'I' for Inactive)
REMARK    1  A    between atoms: C_5  and  C_6
REMARK    2  A    between atoms: C_6  and  S_7
REMARK    3  A    between atoms: S_7  and  C_8
REMARK    4  A    between atoms: N_15  and  C_16
REMARK    5  A    between atoms: CA_17  and  C_36
REMARK    6  A    between atoms: CA_21  and  N_23
REMARK    7  A    between atoms: C_24  and  C_26
REMARK    8  A    between atoms: C_26  and  C_30
REMARK    9  A    between atoms: N_27  and  O_28
REMARK   10  A    between atoms: O_28  and  C_29
REMARK   11  A    between atoms: C_36  and  O_37
REMARK                            x       y       z     vdW  Elec       q    Type
REMARK                         _______ _______ _______ _____ _____    ______ ____
ROOT
ATOM      1  C   UNL     1       5.905  -5.628  24.654  0.00  0.00    +0.169 C 
ATOM      2  CA  UNL     1       5.686  -5.774  26.215  0.00  0.00    +0.191 C 
ATOM      3  C   UNL     1       7.172  -5.274  26.231  0.00  0.00    +0.244 C 
ATOM      4  O   UNL     1       7.972  -5.023  27.117  0.00  0.00    -0.273 OA
ATOM      5  N   UNL     1       7.094  -4.880  24.943  0.00  0.00    -0.249 N 
ATOM      6  CA  UNL     1       7.652  -3.860  24.225  0.00  0.00    +0.123 C 
ATOM      7  C   UNL     1       7.014  -3.209  23.212  0.00  0.00    -0.021 C 
ATOM      8  C   UNL     1       5.667  -3.619  22.658  0.00  0.00    +0.104 C 
ATOM      9  S   UNL     1       4.826  -5.090  23.347  0.00  0.00    -0.131 S 
ENDROOT
BRANCH   2  10
ATOM     10  N   UNL     1       4.826  -5.041  27.249  0.00  0.00    -0.296 N 
ATOM     11  H   UNL     1       4.415  -5.603  27.992  0.00  0.00    +0.150 HD
ATOM     12  C   UNL     1       4.529  -3.696  27.522  0.00  0.00    +0.268 C 
ATOM     13  O   UNL     1       3.854  -3.408  28.502  0.00  0.00    -0.268 OA
BRANCH  12  14
ATOM     14  C   UNL     1       4.834  -2.595  26.533  0.00  0.00    +0.190 C 
ATOM     15  N   UNL     1       4.173  -2.442  25.436  0.00  0.00    -0.078 NA
BRANCH  14  16
ATOM     16  C   UNL     1       5.701  -1.446  26.805  0.00  0.00    +0.107 A 
ATOM     17  N   UNL     1       7.094  -1.561  26.960  0.00  0.00    -0.223 NA
ATOM     18  C   UNL     1       7.670  -0.388  26.866  0.00  0.00    +0.156 A 
ATOM     19  N   UNL     1       9.002  -0.174  26.924  0.00  0.00    -0.338 N 
ATOM     20  H   UNL     1       9.583  -0.997  26.800  0.00  0.00    +0.144 HD
ATOM     21  H   UNL     1       9.360   0.650  26.498  0.00  0.00    +0.144 HD
ATOM     22  S   UNL     1       6.604   0.930  26.558  0.00  0.00    -0.060 S 
ATOM     23  C   UNL     1       5.276  -0.148  26.579  0.00  0.00    +0.078 A 
ENDBRANCH  14  16
BRANCH  15  24
ATOM     24  O   UNL     1       3.062  -3.237  25.156  0.00  0.00    -0.396 OA
ATOM     25  C   UNL     1       1.759  -2.897  25.599  0.00  0.00    +0.313 C 
ENDBRANCH  15  24
ENDBRANCH  12  14
ENDBRANCH   2  10
BRANCH   6  26
ATOM     26  C   UNL     1       9.068  -3.438  24.568  0.00  0.00    +0.351 C 
ATOM     27  OXT UNL     1       9.985  -4.234  24.492  0.00  0.00    -0.244 OA
BRANCH  26  28
ATOM     28  O   UNL     1       9.261  -2.197  25.006  0.00  0.00    -0.476 OA
ATOM     29  H   UNL     1      10.180  -1.910  25.191  0.00  0.00    +0.295 HD
ENDBRANCH  26  28
ENDBRANCH   6  26
BRANCH   7  30
ATOM     30  C   UNL     1       7.618  -1.919  22.575  0.00  0.00    +0.111 C 
BRANCH  30  31
ATOM     31  S   UNL     1       6.885  -0.262  22.903  0.00  0.00    -0.082 S 
BRANCH  31  32
ATOM     32  C   UNL     1       8.259   0.853  23.098  0.00  0.00    +0.187 A 
ATOM     33  N   UNL     1       8.111   2.208  22.813  0.00  0.00    -0.264 N 
ATOM     34  C   UNL     1       6.909   2.879  22.351  0.00  0.00    +0.173 C 
ATOM     35  N   UNL     1       9.285   2.995  22.746  0.00  0.00    -0.257 N 
ATOM     36  H   UNL     1       9.213   3.999  22.594  0.00  0.00    +0.190 HD
ATOM     37  C   UNL     1      10.450   2.567  23.348  0.00  0.00    +0.330 A 
ATOM     38  O   UNL     1      11.449   3.257  23.418  0.00  0.00    -0.260 OA
ATOM     39  C   UNL     1      10.335   1.175  23.959  0.00  0.00    +0.338 A 
ATOM     40  O   UNL     1      11.163   0.934  24.831  0.00  0.00    -0.260 OA
ATOM     41  N   UNL     1       9.306   0.324  23.629  0.00  0.00    -0.179 NA
ENDBRANCH  31  32
ENDBRANCH  30  31
ENDBRANCH   7  30
TORSDOF 9
ENDMDL
MODEL 4
REMARK VINA RESULT:      -7.4      2.454      3.501
REMARK  Name = 
REMARK  11 active torsions:
REMARK  status: ('A' for Active; 'I' for Inactive)
REMARK    1  A    between atoms: C_5  and  C_6
REMARK    2  A    between atoms: C_6  and  S_7
REMARK    3  A    between atoms: S_7  and  C_8
REMARK    4  A    between atoms: N_15  and  C_16
REMARK    5  A    between atoms: CA_17  and  C_36
REMARK    6  A    between atoms: CA_21  and  N_23
REMARK    7  A    between atoms: C_24  and  C_26
REMARK    8  A    between atoms: C_26  and  C_30
REMARK    9  A    between atoms: N_27  and  O_28
REMARK   10  A    between atoms: O_28  and  C_29
REMARK   11  A    between atoms: C_36  and  O_37
REMARK                            x       y       z     vdW  Elec       q    Type
REMARK                         _______ _______ _______ _____ _____    ______ ____
ROOT
ATOM      1  C   UNL     1       7.972   1.025  24.825  0.00  0.00    +0.169 C 
ATOM      2  CA  UNL     1       8.590   2.319  24.156  0.00  0.00    +0.191 C 
ATOM      3  C   UNL     1       9.624   1.264  23.629  0.00  0.00    +0.244 C 
ATOM      4  O   UNL     1      10.606   1.326  22.908  0.00  0.00    -0.273 OA
ATOM      5  N   UNL     1       8.810   0.241  23.965  0.00  0.00    -0.249 N 
ATOM      6  CA  UNL     1       8.564  -0.992  23.431  0.00  0.00    +0.123 C 
ATOM      7  C   UNL     1       7.339  -1.591  23.439  0.00  0.00    -0.021 C 
ATOM      8  C   UNL     1       6.130  -1.034  24.157  0.00  0.00    +0.104 C 
ATOM      9  S   UNL     1       6.290   0.520  25.108  0.00  0.00    -0.131 S 
ENDROOT
BRANCH   2  10
ATOM     10  N   UNL     1       8.134   3.273  23.048  0.00  0.00    -0.296 N 
ATOM     11  H   UNL     1       7.805   2.852  22.181  0.00  0.00    +0.150 HD
ATOM     12  C   UNL     1       7.934   4.659  22.949  0.00  0.00    +0.268 C 
ATOM     13  O   UNL     1       7.467   5.136  21.922  0.00  0.00    -0.268 OA
BRANCH  12  14
ATOM     14  C   UNL     1       8.471   5.619  23.985  0.00  0.00    +0.190 C 
ATOM     15  N   UNL     1       7.708   6.245  24.815  0.00  0.00    -0.078 NA
BRANCH  14  16
ATOM     16  C   UNL     1       9.885   5.753  24.344  0.00  0.00    +0.107 A 
ATOM     17  N   UNL     1      10.927   5.253  23.543  0.00  0.00    -0.223 NA
ATOM     18  C   UNL     1      12.076   5.773  23.898  0.00  0.00    +0.156 A 
ATOM     19  N   UNL     1      13.256   5.529  23.289  0.00  0.00    -0.338 N 
ATOM     20  H   UNL     1      13.194   5.103  22.370  0.00  0.00    +0.144 HD
ATOM     21  H   UNL     1      13.976   6.209  23.379  0.00  0.00    +0.144 HD
ATOM     22  S   UNL     1      11.998   6.913  25.187  0.00  0.00    -0.060 S 
ATOM     23  C   UNL     1      10.307   6.671  25.291  0.00  0.00    +0.078 A 
ENDBRANCH  14  16
BRANCH  15  24
ATOM     24  O   UNL     1       6.340   5.984  24.863  0.00  0.00    -0.396 OA
ATOM     25  C   UNL     1       5.599   6.052  26.070  0.00  0.00    +0.313 C 
ENDBRANCH  15  24
ENDBRANCH  12  14
ENDBRANCH   2  10
BRANCH   6  26
ATOM     26  C   UNL     1       9.724  -1.743  22.807  0.00  0.00    +0.351 C 
ATOM     27  OXT UNL     1      10.354  -2.557  23.457  0.00  0.00    -0.244 OA
BRANCH  26  28
ATOM     28  O   UNL     1      10.063  -1.442  21.556  0.00  0.00    -0.476 OA
ATOM     29  H   UNL     1      10.320  -0.517  21.358  0.00  0.00    +0.295 HD
ENDBRANCH  26  28
ENDBRANCH   6  26
BRANCH   7  30
ATOM     30  C   UNL     1       7.076  -2.898  22.630  0.00  0.00    +0.111 C 
BRANCH  30  31
ATOM     31  S   UNL     1       5.721  -4.053  23.101  0.00  0.00    -0.082 S 
BRANCH  31  32
ATOM     32  C   UNL     1       6.195  -4.754  24.668  0.00  0.00    +0.187 A 
ATOM     33  N   UNL     1       5.567  -5.902  25.143  0.00  0.00    -0.264 N 
ATOM     34  C   UNL     1       4.512  -6.657  24.491  0.00  0.00    +0.173 C 
ATOM     35  N   UNL     1       5.805  -6.268  26.489  0.00  0.00    -0.257 N 
ATOM     36  H   UNL     1       5.407  -7.129  26.857  0.00  0.00    +0.190 HD
ATOM     37  C   UNL     1       6.911  -5.790  27.160  0.00  0.00    +0.330 A 
ATOM     38  O   UNL     1       7.220  -6.165  28.275  0.00  0.00    -0.260 OA
ATOM     39  C   UNL     1       7.727  -4.796  26.342  0.00  0.00    +0.338 A 
ATOM     40  O   UNL     1       8.892  -4.672  26.708  0.00  0.00    -0.260 OA
ATOM     41  N   UNL     1       7.215  -4.191  25.219  0.00  0.00    -0.179 NA
ENDBRANCH  31  32
ENDBRANCH  30  31
ENDBRANCH   7  30
TORSDOF 9
ENDMDL
MODEL 5
REMARK VINA RESULT:      -7.3      1.595      2.812
REMARK  Name = 
REMARK  11 active torsions:
REMARK  status: ('A' for Active; 'I' for Inactive)
REMARK    1  A    between atoms: C_5  and  C_6
REMARK    2  A    between atoms: C_6  and  S_7
REMARK    3  A    between atoms: S_7  and  C_8
REMARK    4  A    between atoms: N_15  and  C_16
REMARK    5  A    between atoms: CA_17  and  C_36
REMARK    6  A    between atoms: CA_21  and  N_23
REMARK    7  A    between atoms: C_24  and  C_26
REMARK    8  A    between atoms: C_26  and  C_30
REMARK    9  A    between atoms: N_27  and  O_28
REMARK   10  A    between atoms: O_28  and  C_29
REMARK   11  A    between atoms: C_36  and  O_37
REMARK                            x       y       z     vdW  Elec       q    Type
REMARK                         _______ _______ _______ _____ _____    ______ ____
ROOT
ATOM      1  C   UNL     1       9.022  -0.497  25.690  0.00  0.00    +0.169 C 
ATOM      2  CA  UNL     1       9.732  -0.358  24.282  0.00  0.00    +0.191 C 
ATOM      3  C   UNL     1       9.789  -1.919  24.422  0.00  0.00    +0.244 C 
ATOM      4  O   UNL     1      10.204  -2.819  23.711  0.00  0.00    -0.273 OA
ATOM      5  N   UNL     1       8.889  -1.901  25.428  0.00  0.00    -0.249 N 
ATOM      6  CA  UNL     1       7.899  -2.751  25.833  0.00  0.00    +0.123 C 
ATOM      7  C   UNL     1       6.716  -2.337  26.369  0.00  0.00    -0.021 C 
ATOM      8  C   UNL     1       6.401  -0.899  26.714  0.00  0.00    +0.104 C 
ATOM      9  S   UNL     1       7.671   0.388  26.433  0.00  0.00    -0.131 S 
ENDROOT
BRANCH   2  10
ATOM     10  N   UNL     1       9.268   0.072  22.887  0.00  0.00    -0.296 N 
ATOM     11  H   UNL     1       9.419  -0.586  22.125  0.00  0.00    +0.150 HD
ATOM     12  C   UNL     1       8.543   1.158  22.371  0.00  0.00    +0.268 C 
ATOM     13  O   UNL     1       8.246   1.184  21.184  0.00  0.00    -0.268 OA
BRANCH  12  14
ATOM     14  C   UNL     1       8.293   2.409  23.182  0.00  0.00    +0.190 C 
ATOM     15  N   UNL     1       9.249   3.151  23.628  0.00  0.00    -0.078 NA
BRANCH  14  16
ATOM     16  C   UNL     1       6.989   3.060  23.331  0.00  0.00    +0.107 A 
ATOM     17  N   UNL     1       5.856   2.676  22.593  0.00  0.00    -0.223 NA
ATOM     18  C   UNL     1       4.765   3.167  23.127  0.00  0.00    +0.156 A 
ATOM     19  N   UNL     1       3.513   2.938  22.678  0.00  0.00    -0.338 N 
ATOM     20  H   UNL     1       3.414   2.158  22.036  0.00  0.00    +0.144 HD
ATOM     21  H   UNL     1       2.761   3.039  23.321  0.00  0.00    +0.144 HD
ATOM     22  S   UNL     1       5.004   4.095  24.560  0.00  0.00    -0.060 S 
ATOM     23  C   UNL     1       6.691   3.838  24.437  0.00  0.00    +0.078 A 
ENDBRANCH  14  16
BRANCH  15  24
ATOM     24  O   UNL     1      10.575   2.886  23.291  0.00  0.00    -0.396 OA
ATOM     25  C   UNL     1      11.583   3.882  23.344  0.00  0.00    +0.313 C 
ENDBRANCH  15  24
ENDBRANCH  12  14
ENDBRANCH   2  10
BRANCH   6  26
ATOM     26  C   UNL     1       8.138  -4.242  25.690  0.00  0.00    +0.351 C 
ATOM     27  OXT UNL     1       8.524  -4.899  26.639  0.00  0.00    -0.244 OA
BRANCH  26  28
ATOM     28  O   UNL     1       7.968  -4.790  24.489  0.00  0.00    -0.476 OA
ATOM     29  H   UNL     1       8.767  -4.992  23.957  0.00  0.00    +0.295 HD
ENDBRANCH  26  28
ENDBRANCH   6  26
BRANCH   7  30
ATOM     30  C   UNL     1       5.547  -3.340  26.614  0.00  0.00    +0.111 C 
BRANCH  30  31
ATOM     31  S   UNL     1       4.160  -3.498  25.414  0.00  0.00    -0.082 S 
BRANCH  31  32
ATOM     32  C   UNL     1       4.836  -4.318  23.986  0.00  0.00    +0.187 A 
ATOM     33  N   UNL     1       4.762  -5.704  23.871  0.00  0.00    -0.264 N 
ATOM     34  C   UNL     1       4.167  -6.631  24.818  0.00  0.00    +0.173 C 
ATOM     35  N   UNL     1       5.527  -6.317  22.850  0.00  0.00    -0.257 N 
ATOM     36  H   UNL     1       5.457  -7.322  22.701  0.00  0.00    +0.190 HD
ATOM     37  C   UNL     1       5.966  -5.584  21.768  0.00  0.00    +0.330 A 
ATOM     38  O   UNL     1       6.525  -6.088  20.812  0.00  0.00    -0.260 OA
ATOM     39  C   UNL     1       5.631  -4.101  21.871  0.00  0.00    +0.338 A 
ATOM     40  O   UNL     1       5.622  -3.507  20.798  0.00  0.00    -0.260 OA
ATOM     41  N   UNL     1       5.257  -3.525  23.063  0.00  0.00    -0.179 NA
ENDBRANCH  31  32
ENDBRANCH  30  31
ENDBRANCH   7  30
TORSDOF 9
ENDMDL
MODEL 6
REMARK VINA RESULT:      -7.3      2.866      9.167
REMARK  Name = 
REMARK  11 active torsions:
REMARK  status: ('A' for Active; 'I' for Inactive)
REMARK    1  A    between atoms: C_5  and  C_6
REMARK    2  A    between atoms: C_6  and  S_7
REMARK    3  A    between atoms: S_7  and  C_8
REMARK    4  A    between atoms: N_15  and  C_16
REMARK    5  A    between atoms: CA_17  and  C_36
REMARK    6  A    between atoms: CA_21  and  N_23
REMARK    7  A    between atoms: C_24  and  C_26
REMARK    8  A    between atoms: C_26  and  C_30
REMARK    9  A    between atoms: N_27  and  O_28
REMARK   10  A    between atoms: O_28  and  C_29
REMARK   11  A    between atoms: C_36  and  O_37
REMARK                            x       y       z     vdW  Elec       q    Type
REMARK                         _______ _______ _______ _____ _____    ______ ____
ROOT
ATOM      1  C   UNL     1       7.470  -1.736  22.935  0.00  0.00    +0.169 C 
ATOM      2  CA  UNL     1       8.474  -2.958  22.977  0.00  0.00    +0.191 C 
ATOM      3  C   UNL     1       9.493  -1.827  22.599  0.00  0.00    +0.244 C 
ATOM      4  O   UNL     1      10.697  -1.801  22.406  0.00  0.00    -0.273 OA
ATOM      5  N   UNL     1       8.608  -0.865  22.934  0.00  0.00    -0.249 N 
ATOM      6  CA  UNL     1       8.723   0.386  23.472  0.00  0.00    +0.123 C 
ATOM      7  C   UNL     1       7.815   0.926  24.334  0.00  0.00    -0.021 C 
ATOM      8  C   UNL     1       6.500   0.273  24.697  0.00  0.00    +0.104 C 
ATOM      9  S   UNL     1       6.054  -1.327  23.931  0.00  0.00    -0.131 S 
ENDROOT
BRANCH   2  10
ATOM     10  N   UNL     1       9.014  -3.864  24.088  0.00  0.00    -0.296 N 
ATOM     11  H   UNL     1      10.018  -3.842  24.256  0.00  0.00    +0.150 HD
ATOM     12  C   UNL     1       8.437  -4.683  25.072  0.00  0.00    +0.268 C 
ATOM     13  O   UNL     1       9.150  -5.236  25.899  0.00  0.00    -0.268 OA
BRANCH  12  14
ATOM     14  C   UNL     1       6.981  -5.084  25.023  0.00  0.00    +0.190 C 
ATOM     15  N   UNL     1       6.421  -5.545  23.956  0.00  0.00    -0.078 NA
BRANCH  14  16
ATOM     16  C   UNL     1       6.121  -5.248  26.197  0.00  0.00    +0.107 A 
ATOM     17  N   UNL     1       5.762  -6.507  26.710  0.00  0.00    -0.223 NA
ATOM     18  C   UNL     1       5.278  -6.395  27.922  0.00  0.00    +0.156 A 
ATOM     19  N   UNL     1       4.889  -7.428  28.699  0.00  0.00    -0.338 N 
ATOM     20  H   UNL     1       5.212  -8.344  28.402  0.00  0.00    +0.144 HD
ATOM     21  H   UNL     1       4.882  -7.294  29.684  0.00  0.00    +0.144 HD
ATOM     22  S   UNL     1       5.243  -4.791  28.551  0.00  0.00    -0.060 S 
ATOM     23  C   UNL     1       5.899  -4.207  27.083  0.00  0.00    +0.078 A 
ENDBRANCH  14  16
BRANCH  15  24
ATOM     24  O   UNL     1       7.172  -5.795  22.808  0.00  0.00    -0.396 OA
ATOM     25  C   UNL     1       6.577  -5.908  21.526  0.00  0.00    +0.313 C 
ENDBRANCH  15  24
ENDBRANCH  12  14
ENDBRANCH   2  10
BRANCH   6  26
ATOM     26  C   UNL     1       9.922   1.225  23.076  0.00  0.00    +0.351 C 
ATOM     27  OXT UNL     1      10.026   1.657  21.943  0.00  0.00    -0.244 OA
BRANCH  26  28
ATOM     28  O   UNL     1      10.875   1.421  23.984  0.00  0.00    -0.476 OA
ATOM     29  H   UNL     1      11.663   1.942  23.722  0.00  0.00    +0.295 HD
ENDBRANCH  26  28
ENDBRANCH   6  26
BRANCH   7  30
ATOM     30  C   UNL     1       8.107   2.267  25.077  0.00  0.00    +0.111 C 
BRANCH  30  31
ATOM     31  S   UNL     1       7.739   3.891  24.291  0.00  0.00    -0.082 S 
BRANCH  31  32
ATOM     32  C   UNL     1       9.223   4.861  24.450  0.00  0.00    +0.187 A 
ATOM     33  N   UNL     1       9.341   5.802  25.470  0.00  0.00    -0.264 N 
ATOM     34  C   UNL     1       8.356   6.118  26.489  0.00  0.00    +0.173 C 
ATOM     35  N   UNL     1      10.425   6.709  25.400  0.00  0.00    -0.257 N 
ATOM     36  H   UNL     1      10.575   7.376  26.155  0.00  0.00    +0.190 HD
ATOM     37  C   UNL     1      11.534   6.418  24.634  0.00  0.00    +0.330 A 
ATOM     38  O   UNL     1      12.536   7.108  24.633  0.00  0.00    -0.260 OA
ATOM     39  C   UNL     1      11.394   5.124  23.841  0.00  0.00    +0.338 A 
ATOM     40  O   UNL     1      12.458   4.623  23.494  0.00  0.00    -0.260 OA
ATOM     41  N   UNL     1      10.172   4.524  23.648  0.00  0.00    -0.179 NA
ENDBRANCH  31  32
ENDBRANCH  30  31
ENDBRANCH   7  30
TORSDOF 9
ENDMDL
MODEL 7
REMARK VINA RESULT:      -7.1      1.747      2.547
REMARK  Name = 
REMARK  11 active torsions:
REMARK  status: ('A' for Active; 'I' for Inactive)
REMARK    1  A    between atoms: C_5  and  C_6
REMARK    2  A    between atoms: C_6  and  S_7
REMARK    3  A    between atoms: S_7  and  C_8
REMARK    4  A    between atoms: N_15  and  C_16
REMARK    5  A    between atoms: CA_17  and  C_36
REMARK    6  A    between atoms: CA_21  and  N_23
REMARK    7  A    between atoms: C_24  and  C_26
REMARK    8  A    between atoms: C_26  and  C_30
REMARK    9  A    between atoms: N_27  and  O_28
REMARK   10  A    between atoms: O_28  and  C_29
REMARK   11  A    between atoms: C_36  and  O_37
REMARK                            x       y       z     vdW  Elec       q    Type
REMARK                         _______ _______ _______ _____ _____    ______ ____
ROOT
ATOM      1  C   UNL     1       6.821  -0.618  27.145  0.00  0.00    +0.169 C 
ATOM      2  CA  UNL     1       7.778  -0.192  25.958  0.00  0.00    +0.191 C 
ATOM      3  C   UNL     1       8.135  -1.718  26.013  0.00  0.00    +0.244 C 
ATOM      4  O   UNL     1       8.880  -2.437  25.369  0.00  0.00    -0.273 OA
ATOM      5  N   UNL     1       7.052  -1.984  26.773  0.00  0.00    -0.249 N 
ATOM      6  CA  UNL     1       6.202  -3.049  26.877  0.00  0.00    +0.123 C 
ATOM      7  C   UNL     1       4.869  -2.933  27.139  0.00  0.00    -0.021 C 
ATOM      8  C   UNL     1       4.186  -1.629  27.485  0.00  0.00    +0.104 C 
ATOM      9  S   UNL     1       5.181  -0.098  27.595  0.00  0.00    -0.131 S 
ENDROOT
BRANCH   2  10
ATOM     10  N   UNL     1       7.553   0.291  24.522  0.00  0.00    -0.296 N 
ATOM     11  H   UNL     1       6.675   0.029  24.077  0.00  0.00    +0.150 HD
ATOM     12  C   UNL     1       8.235   1.146  23.642  0.00  0.00    +0.268 C 
ATOM     13  O   UNL     1       7.748   1.412  22.551  0.00  0.00    -0.268 OA
BRANCH  12  14
ATOM     14  C   UNL     1       9.657   1.589  23.900  0.00  0.00    +0.190 C 
ATOM     15  N   UNL     1      10.656   0.774  23.868  0.00  0.00    -0.078 NA
BRANCH  14  16
ATOM     16  C   UNL     1      10.099   2.984  23.953  0.00  0.00    +0.107 A 
ATOM     17  N   UNL     1      11.290   3.430  23.354  0.00  0.00    -0.223 NA
ATOM     18  C   UNL     1      11.299   4.737  23.253  0.00  0.00    +0.156 A 
ATOM     19  N   UNL     1      12.283   5.462  22.680  0.00  0.00    -0.338 N 
ATOM     20  H   UNL     1      12.928   4.938  22.097  0.00  0.00    +0.144 HD
ATOM     21  H   UNL     1      12.055   6.365  22.333  0.00  0.00    +0.144 HD
ATOM     22  S   UNL     1       9.882   5.526  23.834  0.00  0.00    -0.060 S 
ATOM     23  C   UNL     1       9.224   4.009  24.274  0.00  0.00    +0.078 A 
ENDBRANCH  14  16
BRANCH  15  24
ATOM     24  O   UNL     1      10.481  -0.555  23.486  0.00  0.00    -0.396 OA
ATOM     25  C   UNL     1      10.326  -0.937  22.129  0.00  0.00    +0.313 C 
ENDBRANCH  15  24
ENDBRANCH  12  14
ENDBRANCH   2  10
BRANCH   6  26
ATOM     26  C   UNL     1       6.780  -4.440  26.705  0.00  0.00    +0.351 C 
ATOM     27  OXT UNL     1       7.151  -5.079  27.673  0.00  0.00    -0.244 OA
BRANCH  26  28
ATOM     28  O   UNL     1       6.919  -4.910  25.468  0.00  0.00    -0.476 OA
ATOM     29  H   UNL     1       7.806  -5.225  25.191  0.00  0.00    +0.295 HD
ENDBRANCH  26  28
ENDBRANCH   6  26
BRANCH   7  30
ATOM     30  C   UNL     1       3.917  -4.164  27.036  0.00  0.00    +0.111 C 
BRANCH  30  31
ATOM     31  S   UNL     1       2.872  -4.438  25.545  0.00  0.00    -0.082 S 
BRANCH  31  32
ATOM     32  C   UNL     1       3.988  -4.923  24.245  0.00  0.00    +0.187 A 
ATOM     33  N   UNL     1       4.148  -6.268  23.922  0.00  0.00    -0.264 N 
ATOM     34  C   UNL     1       3.483  -7.402  24.540  0.00  0.00    +0.173 C 
ATOM     35  N   UNL     1       5.218  -6.612  23.063  0.00  0.00    -0.257 N 
ATOM     36  H   UNL     1       5.334  -7.577  22.762  0.00  0.00    +0.190 HD
ATOM     37  C   UNL     1       5.795  -5.660  22.249  0.00  0.00    +0.330 A 
ATOM     38  O   UNL     1       6.637  -5.930  21.412  0.00  0.00    -0.260 OA
ATOM     39  C   UNL     1       5.232  -4.261  22.466  0.00  0.00    +0.338 A 
ATOM     40  O   UNL     1       5.397  -3.495  21.522  0.00  0.00    -0.260 OA
ATOM     41  N   UNL     1       4.500  -3.943  23.585  0.00  0.00    -0.179 NA
ENDBRANCH  31  32
ENDBRANCH  30  31
ENDBRANCH   7  30
TORSDOF 9
ENDMDL
MODEL 8
REMARK VINA RESULT:      -7.0      2.557      8.100
REMARK  Name = 
REMARK  11 active torsions:
REMARK  status: ('A' for Active; 'I' for Inactive)
REMARK    1  A    between atoms: C_5  and  C_6
REMARK    2  A    between atoms: C_6  and  S_7
REMARK    3  A    between atoms: S_7  and  C_8
REMARK    4  A    between atoms: N_15  and  C_16
REMARK    5  A    between atoms: CA_17  and  C_36
REMARK    6  A    between atoms: CA_21  and  N_23
REMARK    7  A    between atoms: C_24  and  C_26
REMARK    8  A    between atoms: C_26  and  C_30
REMARK    9  A    between atoms: N_27  and  O_28
REMARK   10  A    between atoms: O_28  and  C_29
REMARK   11  A    between atoms: C_36  and  O_37
REMARK                            x       y       z     vdW  Elec       q    Type
REMARK                         _______ _______ _______ _____ _____    ______ ____
ROOT
ATOM      1  C   UNL     1       7.367  -1.754  23.066  0.00  0.00    +0.169 C 
ATOM      2  CA  UNL     1       8.348  -2.991  22.964  0.00  0.00    +0.191 C 
ATOM      3  C   UNL     1       9.380  -1.847  22.669  0.00  0.00    +0.244 C 
ATOM      4  O   UNL     1      10.579  -1.824  22.447  0.00  0.00    -0.273 OA
ATOM      5  N   UNL     1       8.523  -0.906  23.118  0.00  0.00    -0.249 N 
ATOM      6  CA  UNL     1       8.675   0.285  23.770  0.00  0.00    +0.123 C 
ATOM      7  C   UNL     1       7.800   0.755  24.704  0.00  0.00    -0.021 C 
ATOM      8  C   UNL     1       6.482   0.093  25.037  0.00  0.00    +0.104 C 
ATOM      9  S   UNL     1       5.985  -1.417  24.134  0.00  0.00    -0.131 S 
ENDROOT
BRANCH   2  10
ATOM     10  N   UNL     1       8.897  -4.009  23.968  0.00  0.00    -0.296 N 
ATOM     11  H   UNL     1       9.908  -4.046  24.084  0.00  0.00    +0.150 HD
ATOM     12  C   UNL     1       8.330  -4.880  24.912  0.00  0.00    +0.268 C 
ATOM     13  O   UNL     1       9.055  -5.530  25.654  0.00  0.00    -0.268 OA
BRANCH  12  14
ATOM     14  C   UNL     1       6.855  -5.210  24.909  0.00  0.00    +0.190 C 
ATOM     15  N   UNL     1       6.244  -5.654  23.864  0.00  0.00    -0.078 NA
BRANCH  14  16
ATOM     16  C   UNL     1       6.023  -5.320  26.109  0.00  0.00    +0.107 A 
ATOM     17  N   UNL     1       5.590  -6.553  26.627  0.00  0.00    -0.223 NA
ATOM     18  C   UNL     1       5.153  -6.414  27.855  0.00  0.00    +0.156 A 
ATOM     19  N   UNL     1       4.714  -7.421  28.639  0.00  0.00    -0.338 N 
ATOM     20  H   UNL     1       4.961  -8.356  28.328  0.00  0.00    +0.144 HD
ATOM     21  H   UNL     1       4.747  -7.294  29.624  0.00  0.00    +0.144 HD
ATOM     22  S   UNL     1       5.253  -4.816  28.491  0.00  0.00    -0.060 S 
ATOM     23  C   UNL     1       5.903  -4.271  27.006  0.00  0.00    +0.078 A 
ENDBRANCH  14  16
BRANCH  15  24
ATOM     24  O   UNL     1       6.948  -5.953  22.698  0.00  0.00    -0.396 OA
ATOM     25  C   UNL     1       6.423  -5.686  21.409  0.00  0.00    +0.313 C 
ENDBRANCH  15  24
ENDBRANCH  12  14
ENDBRANCH   2  10
BRANCH   6  26
ATOM     26  C   UNL     1       9.881   1.137  23.424  0.00  0.00    +0.351 C 
ATOM     27  OXT UNL     1       9.827   1.942  22.512  0.00  0.00    -0.244 OA
BRANCH  26  28
ATOM     28  O   UNL     1      11.005   0.936  24.106  0.00  0.00    -0.476 OA
ATOM     29  H   UNL     1      11.223   1.558  24.832  0.00  0.00    +0.295 HD
ENDBRANCH  26  28
ENDBRANCH   6  26
BRANCH   7  30
ATOM     30  C   UNL     1       8.137   2.013  25.563  0.00  0.00    +0.111 C 
BRANCH  30  31
ATOM     31  S   UNL     1       7.660   3.702  25.007  0.00  0.00    -0.082 S 
BRANCH  31  32
ATOM     32  C   UNL     1       6.082   3.528  24.203  0.00  0.00    +0.187 A 
ATOM     33  N   UNL     1       6.003   3.473  22.814  0.00  0.00    -0.264 N 
ATOM     34  C   UNL     1       7.106   3.541  21.871  0.00  0.00    +0.173 C 
ATOM     35  N   UNL     1       4.720   3.584  22.226  0.00  0.00    -0.257 N 
ATOM     36  H   UNL     1       4.617   3.495  21.218  0.00  0.00    +0.190 HD
ATOM     37  C   UNL     1       3.587   3.322  22.966  0.00  0.00    +0.330 A 
ATOM     38  O   UNL     1       2.472   3.291  22.478  0.00  0.00    -0.260 OA
ATOM     39  C   UNL     1       3.880   3.023  24.431  0.00  0.00    +0.338 A 
ATOM     40  O   UNL     1       2.997   2.398  25.009  0.00  0.00    -0.260 OA
ATOM     41  N   UNL     1       5.092   3.333  25.003  0.00  0.00    -0.179 NA
ENDBRANCH  31  32
ENDBRANCH  30  31
ENDBRANCH   7  30
TORSDOF 9
ENDMDL
MODEL 9
REMARK VINA RESULT:      -7.0      2.632      8.453
REMARK  Name = 
REMARK  11 active torsions:
REMARK  status: ('A' for Active; 'I' for Inactive)
REMARK    1  A    between atoms: C_5  and  C_6
REMARK    2  A    between atoms: C_6  and  S_7
REMARK    3  A    between atoms: S_7  and  C_8
REMARK    4  A    between atoms: N_15  and  C_16
REMARK    5  A    between atoms: CA_17  and  C_36
REMARK    6  A    between atoms: CA_21  and  N_23
REMARK    7  A    between atoms: C_24  and  C_26
REMARK    8  A    between atoms: C_26  and  C_30
REMARK    9  A    between atoms: N_27  and  O_28
REMARK   10  A    between atoms: O_28  and  C_29
REMARK   11  A    between atoms: C_36  and  O_37
REMARK                            x       y       z     vdW  Elec       q    Type
REMARK                         _______ _______ _______ _____ _____    ______ ____
ROOT
ATOM      1  C   UNL     1       7.243  -1.681  23.312  0.00  0.00    +0.169 C 
ATOM      2  CA  UNL     1       8.375  -2.776  23.153  0.00  0.00    +0.191 C 
ATOM      3  C   UNL     1       9.278  -1.495  23.106  0.00  0.00    +0.244 C 
ATOM      4  O   UNL     1      10.479  -1.308  23.008  0.00  0.00    -0.273 OA
ATOM      5  N   UNL     1       8.277  -0.725  23.583  0.00  0.00    -0.249 N 
ATOM      6  CA  UNL     1       8.227   0.376  24.390  0.00  0.00    +0.123 C 
ATOM      7  C   UNL     1       7.226   0.616  25.284  0.00  0.00    -0.021 C 
ATOM      8  C   UNL     1       5.977  -0.228  25.402  0.00  0.00    +0.104 C 
ATOM      9  S   UNL     1       5.747  -1.648  24.273  0.00  0.00    -0.131 S 
ENDROOT
BRANCH   2  10
ATOM     10  N   UNL     1       8.960  -3.853  24.072  0.00  0.00    -0.296 N 
ATOM     11  H   UNL     1       9.974  -3.883  24.162  0.00  0.00    +0.150 HD
ATOM     12  C   UNL     1       8.426  -4.795  24.966  0.00  0.00    +0.268 C 
ATOM     13  O   UNL     1       9.177  -5.485  25.644  0.00  0.00    -0.268 OA
BRANCH  12  14
ATOM     14  C   UNL     1       6.956  -5.145  24.973  0.00  0.00    +0.190 C 
ATOM     15  N   UNL     1       6.339  -5.576  23.926  0.00  0.00    -0.078 NA
BRANCH  14  16
ATOM     16  C   UNL     1       6.140  -5.291  26.181  0.00  0.00    +0.107 A 
ATOM     17  N   UNL     1       5.685  -6.536  26.648  0.00  0.00    -0.223 NA
ATOM     18  C   UNL     1       5.270  -6.444  27.887  0.00  0.00    +0.156 A 
ATOM     19  N   UNL     1       4.818  -7.477  28.631  0.00  0.00    -0.338 N 
ATOM     20  H   UNL     1       5.037  -8.401  28.273  0.00  0.00    +0.144 HD
ATOM     21  H   UNL     1       4.870  -7.396  29.620  0.00  0.00    +0.144 HD
ATOM     22  S   UNL     1       5.419  -4.881  28.596  0.00  0.00    -0.060 S 
ATOM     23  C   UNL     1       6.060  -4.283  27.127  0.00  0.00    +0.078 A 
ENDBRANCH  14  16
BRANCH  15  24
ATOM     24  O   UNL     1       7.033  -5.841  22.747  0.00  0.00    -0.396 OA
ATOM     25  C   UNL     1       6.380  -5.949  21.493  0.00  0.00    +0.313 C 
ENDBRANCH  15  24
ENDBRANCH  12  14
ENDBRANCH   2  10
BRANCH   6  26
ATOM     26  C   UNL     1       9.343   1.397  24.273  0.00  0.00    +0.351 C 
ATOM     27  OXT UNL     1       9.222   2.363  23.542  0.00  0.00    -0.244 OA
BRANCH  26  28
ATOM     28  O   UNL     1      10.468   1.172  24.945  0.00  0.00    -0.476 OA
ATOM     29  H   UNL     1      11.165   1.862  24.924  0.00  0.00    +0.295 HD
ENDBRANCH  26  28
ENDBRANCH   6  26
BRANCH   7  30
ATOM     30  C   UNL     1       7.333   1.775  26.323  0.00  0.00    +0.111 C 
BRANCH  30  31
ATOM     31  S   UNL     1       6.134   3.173  26.317  0.00  0.00    -0.082 S 
BRANCH  31  32
ATOM     32  C   UNL     1       6.471   4.103  24.837  0.00  0.00    +0.187 A 
ATOM     33  N   UNL     1       5.735   3.871  23.678  0.00  0.00    -0.264 N 
ATOM     34  C   UNL     1       4.659   2.912  23.502  0.00  0.00    +0.173 C 
ATOM     35  N   UNL     1       6.205   4.454  22.477  0.00  0.00    -0.257 N 
ATOM     36  H   UNL     1       5.665   4.351  21.621  0.00  0.00    +0.190 HD
ATOM     37  C   UNL     1       7.067   5.530  22.512  0.00  0.00    +0.330 A 
ATOM     38  O   UNL     1       7.406   6.136  21.513  0.00  0.00    -0.260 OA
ATOM     39  C   UNL     1       7.499   5.908  23.923  0.00  0.00    +0.338 A 
ATOM     40  O   UNL     1       7.904   7.061  24.038  0.00  0.00    -0.260 OA
ATOM     41  N   UNL     1       7.328   5.053  24.986  0.00  0.00    -0.179 NA
ENDBRANCH  31  32
ENDBRANCH  30  31
ENDBRANCH   7  30
TORSDOF 9
ENDMDL
