MODEL 1
REMARK VINA RESULT:      -7.4      0.000      0.000
REMARK  Name = 
REMARK  3 active torsions:
REMARK  status: ('A' for Active; 'I' for Inactive)
REMARK    1  A    between atoms: C_1  and  C_2
REMARK    2  A    between atoms: C_15  and  C_16
REMARK    3  A    between atoms: C_20  and  O_21
REMARK                            x       y       z     vdW  Elec       q    Type
REMARK                         _______ _______ _______ _____ _____    ______ ____
ROOT
ATOM      1  C   UNL     1      11.284   0.727  24.472  0.00  0.00    +0.014 C 
ATOM      2  C   UNL     1      10.148   0.789  23.405  0.00  0.00    -0.003 C 
ATOM      3  C   UNL     1      10.168   2.201  22.763  0.00  0.00    +0.121 C 
ATOM      4  C   UNL     1       9.355   3.046  23.738  0.00  0.00    +0.032 C 
ATOM      5  C   UNL     1       8.194   2.141  24.089  0.00  0.00    +0.007 C 
ATOM      6  C   UNL     1       8.794   0.714  24.159  0.00  0.00    +0.001 C 
ATOM      7  C   UNL     1       7.764  -0.337  23.695  0.00  0.00    -0.004 C 
ATOM      8  C   UNL     1       6.711  -0.463  24.800  0.00  0.00    +0.004 C 
ATOM      9  C   UNL     1       5.693  -1.517  24.485  0.00  0.00    +0.005 C 
ATOM     10  C   UNL     1       6.267  -2.925  24.280  0.00  0.00    +0.002 C 
ATOM     11  C   UNL     1       7.763  -3.029  23.804  0.00  0.00    -0.025 C 
ATOM     12  C   UNL     1       8.640  -3.415  25.030  0.00  0.00    +0.012 C 
ATOM     13  C   UNL     1       7.943  -4.183  22.747  0.00  0.00    +0.015 C 
ATOM     14  C   UNL     1       7.034  -5.412  22.856  0.00  0.00    +0.075 C 
ATOM     15  C   UNL     1       5.630  -5.091  23.264  0.00  0.00    +0.134 C 
ATOM     16  O   UNL     1       4.800  -5.979  23.461  0.00  0.00    -0.297 OA
ATOM     17  C   UNL     1       5.271  -3.641  23.377  0.00  0.00    +0.078 C 
ATOM     18  C   UNL     1       8.307  -1.688  23.152  0.00  0.00    -0.001 C 
ATOM     19  C   UNL     1       9.840  -1.678  22.943  0.00  0.00    +0.005 C 
ATOM     20  C   UNL     1      10.337  -0.347  22.389  0.00  0.00    +0.010 C 
ENDROOT
BRANCH   3  21
ATOM     21  O   UNL     1       9.542   2.233  21.485  0.00  0.00    -0.391 OA
ATOM     22  H   UNL     1       9.943   2.938  20.950  0.00  0.00    +0.210 HD
ENDBRANCH   3  21
TORSDOF 1
ENDMDL
MODEL 2
REMARK VINA RESULT:      -7.3      1.208      6.443
REMARK  Name = 
REMARK  3 active torsions:
REMARK  status: ('A' for Active; 'I' for Inactive)
REMARK    1  A    between atoms: C_1  and  C_2
REMARK    2  A    between atoms: C_15  and  C_16
REMARK    3  A    between atoms: C_20  and  O_21
REMARK                            x       y       z     vdW  Elec       q    Type
REMARK                         _______ _______ _______ _____ _____    ______ ____
ROOT
ATOM      1  C   UNL     1       6.276  -4.335  25.724  0.00  0.00    +0.014 C 
ATOM      2  C   UNL     1       6.169  -3.660  24.322  0.00  0.00    -0.003 C 
ATOM      3  C   UNL     1       5.363  -4.605  23.393  0.00  0.00    +0.121 C 
ATOM      4  C   UNL     1       6.414  -5.586  22.885  0.00  0.00    +0.032 C 
ATOM      5  C   UNL     1       7.600  -4.694  22.591  0.00  0.00    +0.007 C 
ATOM      6  C   UNL     1       7.595  -3.623  23.711  0.00  0.00    +0.001 C 
ATOM      7  C   UNL     1       8.121  -2.272  23.180  0.00  0.00    -0.004 C 
ATOM      8  C   UNL     1       9.634  -2.415  22.990  0.00  0.00    +0.004 C 
ATOM      9  C   UNL     1      10.264  -1.131  22.542  0.00  0.00    +0.005 C 
ATOM     10  C   UNL     1      10.064   0.052  23.499  0.00  0.00    +0.002 C 
ATOM     11  C   UNL     1       8.798   0.014  24.433  0.00  0.00    -0.025 C 
ATOM     12  C   UNL     1       9.258  -0.392  25.863  0.00  0.00    +0.012 C 
ATOM     13  C   UNL     1       8.148   1.443  24.564  0.00  0.00    +0.015 C 
ATOM     14  C   UNL     1       9.068   2.667  24.484  0.00  0.00    +0.075 C 
ATOM     15  C   UNL     1      10.178   2.525  23.489  0.00  0.00    +0.134 C 
ATOM     16  O   UNL     1      11.039   3.395  23.360  0.00  0.00    -0.297 OA
ATOM     17  C   UNL     1      10.165   1.298  22.630  0.00  0.00    +0.078 C 
ATOM     18  C   UNL     1       7.673  -0.983  23.923  0.00  0.00    -0.001 C 
ATOM     19  C   UNL     1       6.560  -1.245  24.964  0.00  0.00    +0.005 C 
ATOM     20  C   UNL     1       5.540  -2.267  24.472  0.00  0.00    +0.010 C 
ENDROOT
BRANCH   3  21
ATOM     21  O   UNL     1       4.787  -3.924  22.284  0.00  0.00    -0.391 OA
ATOM     22  H   UNL     1       4.650  -2.990  22.518  0.00  0.00    +0.210 HD
ENDBRANCH   3  21
TORSDOF 1
ENDMDL
MODEL 3
REMARK VINA RESULT:      -7.2      1.634      6.323
REMARK  Name = 
REMARK  3 active torsions:
REMARK  status: ('A' for Active; 'I' for Inactive)
REMARK    1  A    between atoms: C_1  and  C_2
REMARK    2  A    between atoms: C_15  and  C_16
REMARK    3  A    between atoms: C_20  and  O_21
REMARK                            x       y       z     vdW  Elec       q    Type
REMARK                         _______ _______ _______ _____ _____    ______ ____
ROOT
ATOM      1  C   UNL     1       5.277  -3.675  23.494  0.00  0.00    +0.014 C 
ATOM      2  C   UNL     1       6.820  -3.852  23.632  0.00  0.00    -0.003 C 
ATOM      3  C   UNL     1       7.104  -5.330  24.004  0.00  0.00    +0.121 C 
ATOM      4  C   UNL     1       6.924  -5.357  25.519  0.00  0.00    +0.032 C 
ATOM      5  C   UNL     1       7.605  -4.081  25.965  0.00  0.00    +0.007 C 
ATOM      6  C   UNL     1       7.275  -3.035  24.871  0.00  0.00    +0.001 C 
ATOM      7  C   UNL     1       8.441  -2.040  24.695  0.00  0.00    -0.004 C 
ATOM      8  C   UNL     1       8.442  -1.118  25.918  0.00  0.00    +0.004 C 
ATOM      9  C   UNL     1       9.497  -0.058  25.817  0.00  0.00    +0.005 C 
ATOM     10  C   UNL     1       9.374   0.858  24.592  0.00  0.00    +0.002 C 
ATOM     11  C   UNL     1       8.644   0.272  23.327  0.00  0.00    -0.025 C 
ATOM     12  C   UNL     1       7.209   0.872  23.270  0.00  0.00    +0.012 C 
ATOM     13  C   UNL     1       9.366   0.718  22.000  0.00  0.00    +0.015 C 
ATOM     14  C   UNL     1      10.067   2.080  21.979  0.00  0.00    +0.075 C 
ATOM     15  C   UNL     1      10.756   2.425  23.263  0.00  0.00    +0.134 C 
ATOM     16  O   UNL     1      11.304   3.515  23.424  0.00  0.00    -0.297 OA
ATOM     17  C   UNL     1      10.784   1.366  24.323  0.00  0.00    +0.078 C 
ATOM     18  C   UNL     1       8.567  -1.313  23.327  0.00  0.00    -0.001 C 
ATOM     19  C   UNL     1       7.615  -1.887  22.252  0.00  0.00    +0.005 C 
ATOM     20  C   UNL     1       7.505  -3.406  22.332  0.00  0.00    +0.010 C 
ENDROOT
BRANCH   3  21
ATOM     21  O   UNL     1       8.432  -5.732  23.686  0.00  0.00    -0.391 OA
ATOM     22  H   UNL     1       8.985  -4.941  23.565  0.00  0.00    +0.210 HD
ENDBRANCH   3  21
TORSDOF 1
ENDMDL
MODEL 4
REMARK VINA RESULT:      -7.2      1.582      2.738
REMARK  Name = 
REMARK  3 active torsions:
REMARK  status: ('A' for Active; 'I' for Inactive)
REMARK    1  A    between atoms: C_1  and  C_2
REMARK    2  A    between atoms: C_15  and  C_16
REMARK    3  A    between atoms: C_20  and  O_21
REMARK                            x       y       z     vdW  Elec       q    Type
REMARK                         _______ _______ _______ _____ _____    ______ ____
ROOT
ATOM      1  C   UNL     1       9.051   0.928  21.654  0.00  0.00    +0.014 C 
ATOM      2  C   UNL     1       8.740   0.731  23.169  0.00  0.00    -0.003 C 
ATOM      3  C   UNL     1       9.424   1.880  23.955  0.00  0.00    +0.121 C 
ATOM      4  C   UNL     1      10.853   1.381  24.141  0.00  0.00    +0.032 C 
ATOM      5  C   UNL     1      10.662  -0.077  24.498  0.00  0.00    +0.007 C 
ATOM      6  C   UNL     1       9.471  -0.558  23.632  0.00  0.00    +0.001 C 
ATOM      7  C   UNL     1       8.648  -1.629  24.379  0.00  0.00    -0.004 C 
ATOM      8  C   UNL     1       9.476  -2.917  24.387  0.00  0.00    +0.004 C 
ATOM      9  C   UNL     1       8.738  -4.052  25.029  0.00  0.00    +0.005 C 
ATOM     10  C   UNL     1       7.401  -4.408  24.364  0.00  0.00    +0.002 C 
ATOM     11  C   UNL     1       6.666  -3.264  23.572  0.00  0.00    -0.025 C 
ATOM     12  C   UNL     1       6.891  -3.503  22.050  0.00  0.00    +0.012 C 
ATOM     13  C   UNL     1       5.109  -3.323  23.806  0.00  0.00    +0.015 C 
ATOM     14  C   UNL     1       4.465  -4.693  24.049  0.00  0.00    +0.075 C 
ATOM     15  C   UNL     1       5.302  -5.616  24.879  0.00  0.00    +0.134 C 
ATOM     16  O   UNL     1       4.951  -6.774  25.102  0.00  0.00    -0.297 OA
ATOM     17  C   UNL     1       6.562  -5.050  25.460  0.00  0.00    +0.078 C 
ATOM     18  C   UNL     1       7.160  -1.810  23.969  0.00  0.00    -0.001 C 
ATOM     19  C   UNL     1       6.662  -0.702  23.010  0.00  0.00    +0.005 C 
ATOM     20  C   UNL     1       7.219   0.669  23.376  0.00  0.00    +0.010 C 
ENDROOT
BRANCH   3  21
ATOM     21  O   UNL     1       8.836   2.097  25.233  0.00  0.00    -0.391 OA
ATOM     22  H   UNL     1       8.069   2.687  25.136  0.00  0.00    +0.210 HD
ENDBRANCH   3  21
TORSDOF 1
ENDMDL
MODEL 5
REMARK VINA RESULT:      -7.2      1.679      2.015
REMARK  Name = 
REMARK  3 active torsions:
REMARK  status: ('A' for Active; 'I' for Inactive)
REMARK    1  A    between atoms: C_1  and  C_2
REMARK    2  A    between atoms: C_15  and  C_16
REMARK    3  A    between atoms: C_20  and  O_21
REMARK                            x       y       z     vdW  Elec       q    Type
REMARK                         _______ _______ _______ _____ _____    ______ ____
ROOT
ATOM      1  C   UNL     1       9.645   2.324  24.287  0.00  0.00    +0.014 C 
ATOM      2  C   UNL     1       9.042   1.339  23.238  0.00  0.00    -0.003 C 
ATOM      3  C   UNL     1       8.860   2.109  21.904  0.00  0.00    +0.121 C 
ATOM      4  C   UNL     1       7.518   2.812  22.079  0.00  0.00    +0.032 C 
ATOM      5  C   UNL     1       6.657   1.748  22.726  0.00  0.00    +0.007 C 
ATOM      6  C   UNL     1       7.600   0.995  23.698  0.00  0.00    +0.001 C 
ATOM      7  C   UNL     1       7.207  -0.495  23.796  0.00  0.00    -0.004 C 
ATOM      8  C   UNL     1       5.911  -0.572  24.608  0.00  0.00    +0.004 C 
ATOM      9  C   UNL     1       5.473  -1.989  24.829  0.00  0.00    +0.005 C 
ATOM     10  C   UNL     1       6.492  -2.869  25.565  0.00  0.00    +0.002 C 
ATOM     11  C   UNL     1       8.008  -2.462  25.453  0.00  0.00    -0.025 C 
ATOM     12  C   UNL     1       8.427  -1.769  26.782  0.00  0.00    +0.012 C 
ATOM     13  C   UNL     1       8.926  -3.734  25.305  0.00  0.00    +0.015 C 
ATOM     14  C   UNL     1       8.477  -5.033  25.983  0.00  0.00    +0.075 C 
ATOM     15  C   UNL     1       7.000  -5.265  25.927  0.00  0.00    +0.134 C 
ATOM     16  O   UNL     1       6.480  -6.230  26.488  0.00  0.00    -0.297 OA
ATOM     17  C   UNL     1       6.191  -4.294  25.122  0.00  0.00    +0.078 C 
ATOM     18  C   UNL     1       8.309  -1.503  24.225  0.00  0.00    -0.001 C 
ATOM     19  C   UNL     1       9.720  -0.870  24.265  0.00  0.00    +0.005 C 
ATOM     20  C   UNL     1       9.946   0.104  23.114  0.00  0.00    +0.010 C 
ENDROOT
BRANCH   3  21
ATOM     21  O   UNL     1       8.790   1.244  20.776  0.00  0.00    -0.391 OA
ATOM     22  H   UNL     1       9.340   1.606  20.060  0.00  0.00    +0.210 HD
ENDBRANCH   3  21
TORSDOF 1
ENDMDL
MODEL 6
REMARK VINA RESULT:      -7.2      1.887      6.217
REMARK  Name = 
REMARK  3 active torsions:
REMARK  status: ('A' for Active; 'I' for Inactive)
REMARK    1  A    between atoms: C_1  and  C_2
REMARK    2  A    between atoms: C_15  and  C_16
REMARK    3  A    between atoms: C_20  and  O_21
REMARK                            x       y       z     vdW  Elec       q    Type
REMARK                         _______ _______ _______ _____ _____    ______ ____
ROOT
ATOM      1  C   UNL     1       7.912  -5.260  23.393  0.00  0.00    +0.014 C 
ATOM      2  C   UNL     1       8.097  -4.517  24.753  0.00  0.00    -0.003 C 
ATOM      3  C   UNL     1       7.761  -5.512  25.895  0.00  0.00    +0.121 C 
ATOM      4  C   UNL     1       6.243  -5.425  26.007  0.00  0.00    +0.032 C 
ATOM      5  C   UNL     1       5.976  -3.940  25.885  0.00  0.00    +0.007 C 
ATOM      6  C   UNL     1       6.999  -3.425  24.841  0.00  0.00    +0.001 C 
ATOM      7  C   UNL     1       7.437  -1.982  25.170  0.00  0.00    -0.004 C 
ATOM      8  C   UNL     1       6.261  -1.060  24.833  0.00  0.00    +0.004 C 
ATOM      9  C   UNL     1       6.603   0.384  25.047  0.00  0.00    +0.005 C 
ATOM     10  C   UNL     1       7.794   0.892  24.224  0.00  0.00    +0.002 C 
ATOM     11  C   UNL     1       8.865  -0.172  23.777  0.00  0.00    -0.025 C 
ATOM     12  C   UNL     1       8.632  -0.497  22.273  0.00  0.00    +0.012 C 
ATOM     13  C   UNL     1      10.324   0.413  23.885  0.00  0.00    +0.015 C 
ATOM     14  C   UNL     1      10.520   1.916  23.655  0.00  0.00    +0.075 C 
ATOM     15  C   UNL     1       9.417   2.762  24.211  0.00  0.00    +0.134 C 
ATOM     16  O   UNL     1       9.398   3.981  24.045  0.00  0.00    -0.297 OA
ATOM     17  C   UNL     1       8.365   2.061  25.015  0.00  0.00    +0.078 C 
ATOM     18  C   UNL     1       8.816  -1.507  24.633  0.00  0.00    -0.001 C 
ATOM     19  C   UNL     1       9.655  -2.660  24.032  0.00  0.00    +0.005 C 
ATOM     20  C   UNL     1       9.522  -3.948  24.835  0.00  0.00    +0.010 C 
ENDROOT
BRANCH   3  21
ATOM     21  O   UNL     1       8.343  -5.137  27.138  0.00  0.00    -0.391 OA
ATOM     22  H   UNL     1       8.051  -4.238  27.370  0.00  0.00    +0.210 HD
ENDBRANCH   3  21
TORSDOF 1
ENDMDL
MODEL 7
REMARK VINA RESULT:      -7.0      1.803      3.102
REMARK  Name = 
REMARK  3 active torsions:
REMARK  status: ('A' for Active; 'I' for Inactive)
REMARK    1  A    between atoms: C_1  and  C_2
REMARK    2  A    between atoms: C_15  and  C_16
REMARK    3  A    between atoms: C_20  and  O_21
REMARK                            x       y       z     vdW  Elec       q    Type
REMARK                         _______ _______ _______ _____ _____    ______ ____
ROOT
ATOM      1  C   UNL     1       7.326   2.234  23.342  0.00  0.00    +0.014 C 
ATOM      2  C   UNL     1       8.503   1.313  23.790  0.00  0.00    -0.003 C 
ATOM      3  C   UNL     1       9.833   1.996  23.377  0.00  0.00    +0.121 C 
ATOM      4  C   UNL     1      10.008   1.582  21.920  0.00  0.00    +0.032 C 
ATOM      5  C   UNL     1       9.615   0.121  21.931  0.00  0.00    +0.007 C 
ATOM      6  C   UNL     1       8.437   0.021  22.933  0.00  0.00    +0.001 C 
ATOM      7  C   UNL     1       8.455  -1.337  23.667  0.00  0.00    -0.004 C 
ATOM      8  C   UNL     1       8.009  -2.404  22.662  0.00  0.00    +0.004 C 
ATOM      9  C   UNL     1       7.920  -3.761  23.291  0.00  0.00    +0.005 C 
ATOM     10  C   UNL     1       6.951  -3.859  24.477  0.00  0.00    +0.002 C 
ATOM     11  C   UNL     1       6.662  -2.536  25.279  0.00  0.00    -0.025 C 
ATOM     12  C   UNL     1       5.264  -2.001  24.851  0.00  0.00    +0.012 C 
ATOM     13  C   UNL     1       6.575  -2.820  26.826  0.00  0.00    +0.015 C 
ATOM     14  C   UNL     1       6.047  -4.185  27.283  0.00  0.00    +0.075 C 
ATOM     15  C   UNL     1       6.487  -5.324  26.417  0.00  0.00    +0.134 C 
ATOM     16  O   UNL     1       6.088  -6.472  26.616  0.00  0.00    -0.297 OA
ATOM     17  C   UNL     1       7.467  -5.009  25.329  0.00  0.00    +0.078 C 
ATOM     18  C   UNL     1       7.762  -1.415  25.055  0.00  0.00    -0.001 C 
ATOM     19  C   UNL     1       7.352  -0.026  25.600  0.00  0.00    +0.005 C 
ATOM     20  C   UNL     1       8.396   1.042  25.298  0.00  0.00    +0.010 C 
ENDROOT
BRANCH   3  21
ATOM     21  O   UNL     1      10.947   1.531  24.132  0.00  0.00    -0.391 OA
ATOM     22  H   UNL     1      11.127   0.604  23.898  0.00  0.00    +0.210 HD
ENDBRANCH   3  21
TORSDOF 1
ENDMDL
MODEL 8
REMARK VINA RESULT:      -7.0      2.771      5.155
REMARK  Name = 
REMARK  3 active torsions:
REMARK  status: ('A' for Active; 'I' for Inactive)
REMARK    1  A    between atoms: C_1  and  C_2
REMARK    2  A    between atoms: C_15  and  C_16
REMARK    3  A    between atoms: C_20  and  O_21
REMARK                            x       y       z     vdW  Elec       q    Type
REMARK                         _______ _______ _______ _____ _____    ______ ____
ROOT
ATOM      1  C   UNL     1       7.449   5.864  21.867  0.00  0.00    +0.014 C 
ATOM      2  C   UNL     1       7.609   5.298  23.312  0.00  0.00    -0.003 C 
ATOM      3  C   UNL     1       7.514   6.484  24.307  0.00  0.00    +0.121 C 
ATOM      4  C   UNL     1       8.931   7.047  24.326  0.00  0.00    +0.032 C 
ATOM      5  C   UNL     1       9.792   5.802  24.358  0.00  0.00    +0.007 C 
ATOM      6  C   UNL     1       9.064   4.778  23.451  0.00  0.00    +0.001 C 
ATOM      7  C   UNL     1       9.273   3.340  23.972  0.00  0.00    -0.004 C 
ATOM      8  C   UNL     1      10.721   2.949  23.665  0.00  0.00    +0.004 C 
ATOM      9  C   UNL     1      11.016   1.535  24.066  0.00  0.00    +0.005 C 
ATOM     10  C   UNL     1      10.135   0.478  23.388  0.00  0.00    +0.002 C 
ATOM     11  C   UNL     1       8.712   0.935  22.895  0.00  0.00    -0.025 C 
ATOM     12  C   UNL     1       8.769   1.126  21.352  0.00  0.00    +0.012 C 
ATOM     13  C   UNL     1       7.633  -0.179  23.167  0.00  0.00    +0.015 C 
ATOM     14  C   UNL     1       8.079  -1.645  23.125  0.00  0.00    +0.075 C 
ATOM     15  C   UNL     1       9.442  -1.879  23.699  0.00  0.00    +0.134 C 
ATOM     16  O   UNL     1       9.966  -2.992  23.673  0.00  0.00    -0.297 OA
ATOM     17  C   UNL     1      10.116  -0.707  24.344  0.00  0.00    +0.078 C 
ATOM     18  C   UNL     1       8.211   2.273  23.587  0.00  0.00    -0.001 C 
ATOM     19  C   UNL     1       6.960   2.886  22.915  0.00  0.00    +0.005 C 
ATOM     20  C   UNL     1       6.553   4.209  23.555  0.00  0.00    +0.010 C 
ENDROOT
BRANCH   3  21
ATOM     21  O   UNL     1       7.158   6.071  25.622  0.00  0.00    -0.391 OA
ATOM     22  H   UNL     1       7.474   6.732  26.261  0.00  0.00    +0.210 HD
ENDBRANCH   3  21
TORSDOF 1
ENDMDL
MODEL 9
REMARK VINA RESULT:      -6.7      3.240      5.312
REMARK  Name = 
REMARK  3 active torsions:
REMARK  status: ('A' for Active; 'I' for Inactive)
REMARK    1  A    between atoms: C_1  and  C_2
REMARK    2  A    between atoms: C_15  and  C_16
REMARK    3  A    between atoms: C_20  and  O_21
REMARK                            x       y       z     vdW  Elec       q    Type
REMARK                         _______ _______ _______ _____ _____    ______ ____
ROOT
ATOM      1  C   UNL     1       5.879   5.503  25.045  0.00  0.00    +0.014 C 
ATOM      2  C   UNL     1       7.313   5.466  24.431  0.00  0.00    -0.003 C 
ATOM      3  C   UNL     1       7.710   6.917  24.049  0.00  0.00    +0.121 C 
ATOM      4  C   UNL     1       7.081   7.108  22.674  0.00  0.00    +0.032 C 
ATOM      5  C   UNL     1       7.370   5.794  21.981  0.00  0.00    +0.007 C 
ATOM      6  C   UNL     1       7.222   4.711  23.078  0.00  0.00    +0.001 C 
ATOM      7  C   UNL     1       8.204   3.545  22.833  0.00  0.00    -0.004 C 
ATOM      8  C   UNL     1       7.676   2.749  21.635  0.00  0.00    +0.004 C 
ATOM      9  C   UNL     1       8.518   1.543  21.351  0.00  0.00    +0.005 C 
ATOM     10  C   UNL     1       8.627   0.546  22.511  0.00  0.00    +0.002 C 
ATOM     11  C   UNL     1       8.429   1.112  23.966  0.00  0.00    -0.025 C 
ATOM     12  C   UNL     1       7.002   0.723  24.451  0.00  0.00    +0.012 C 
ATOM     13  C   UNL     1       9.439   0.446  24.976  0.00  0.00    +0.015 C 
ATOM     14  C   UNL     1       9.876  -0.999  24.715  0.00  0.00    +0.075 C 
ATOM     15  C   UNL     1      10.070  -1.320  23.265  0.00  0.00    +0.134 C 
ATOM     16  O   UNL     1      10.353  -2.459  22.893  0.00  0.00    -0.297 OA
ATOM     17  C   UNL     1       9.947  -0.184  22.297  0.00  0.00    +0.078 C 
ATOM     18  C   UNL     1       8.621   2.685  24.058  0.00  0.00    -0.001 C 
ATOM     19  C   UNL     1       8.155   3.289  25.403  0.00  0.00    +0.005 C 
ATOM     20  C   UNL     1       8.280   4.808  25.426  0.00  0.00    +0.010 C 
ENDROOT
BRANCH   3  21
ATOM     21  O   UNL     1       9.119   7.090  23.946  0.00  0.00    -0.391 OA
ATOM     22  H   UNL     1       9.488   7.249  24.832  0.00  0.00    +0.210 HD
ENDBRANCH   3  21
TORSDOF 1
ENDMDL
