MODEL 1
REMARK VINA RESULT:      -7.0      0.000      0.000
REMARK  Name = 
REMARK  9 active torsions:
REMARK  status: ('A' for Active; 'I' for Inactive)
REMARK    1  A    between atoms: C_1  and  O_2
REMARK    2  A    between atoms: O_2  and  C_3
REMARK    3  A    between atoms: C_10  and  S_12
REMARK    4  A    between atoms: S_12  and  C_14
REMARK    5  A    between atoms: C_14  and  C_15
REMARK    6  A    between atoms: C_18  and  C_19
REMARK    7  A    between atoms: C_20  and  O_21
REMARK    8  A    between atoms: O_21  and  C_22
REMARK    9  A    between atoms: C_23  and  C_24
REMARK                            x       y       z     vdW  Elec       q    Type
REMARK                         _______ _______ _______ _____ _____    ______ ____
ROOT
ATOM      1  S   UNL     1       8.486  -4.317  24.132  0.00  0.00    +0.095 S 
ATOM      2  O   UNL     1       9.658  -4.760  24.966  0.00  0.00    -0.249 OA
ENDROOT
BRANCH   1   8
ATOM      3  C   UNL     1      10.357   1.567  23.270  0.00  0.00    +0.122 A 
ATOM      4  C   UNL     1       9.968   1.332  21.945  0.00  0.00    +0.048 A 
ATOM      5  C   UNL     1       9.453   0.086  21.541  0.00  0.00    +0.033 A 
ATOM      6  C   UNL     1       9.302  -0.924  22.503  0.00  0.00    +0.090 A 
ATOM      7  N   UNL     1       8.812  -2.213  22.392  0.00  0.00    -0.220 NA
ATOM      8  C   UNL     1       8.898  -2.716  23.607  0.00  0.00    +0.198 A 
ATOM      9  N   UNL     1       9.408  -1.806  24.486  0.00  0.00    -0.331 N 
ATOM     10  H   UNL     1       9.535  -1.980  25.474  0.00  0.00    +0.168 HD
ATOM     11  C   UNL     1       9.684  -0.651  23.812  0.00  0.00    +0.070 A 
ATOM     12  C   UNL     1      10.214   0.568  24.237  0.00  0.00    +0.073 A 
BRANCH   3  14
ATOM     13  C   UNL     1       9.837   3.815  23.807  0.00  0.00    +0.277 C 
ATOM     14  O   UNL     1      10.828   2.829  23.529  0.00  0.00    -0.495 OA
ENDBRANCH   3  14
ENDBRANCH   1   8
BRANCH   1  15
ATOM     15  C   UNL     1       7.065  -3.973  25.198  0.00  0.00    +0.167 C 
BRANCH  15  16
ATOM     16  C   UNL     1       5.946  -4.979  25.037  0.00  0.00    +0.060 A 
ATOM     17  C   UNL     1       4.965  -4.879  24.016  0.00  0.00    +0.014 A 
ATOM     18  C   UNL     1       5.120  -3.740  23.046  0.00  0.00    +0.049 C 
ATOM     19  C   UNL     1       3.948  -5.854  24.012  0.00  0.00    +0.129 A 
ATOM     20  C   UNL     1       3.948  -6.856  25.009  0.00  0.00    +0.010 A 
ATOM     21  C   UNL     1       2.899  -7.935  25.048  0.00  0.00    +0.049 C 
ATOM     22  C   UNL     1       4.935  -6.838  25.973  0.00  0.00    +0.118 A 
ATOM     23  N   UNL     1       5.914  -5.922  26.016  0.00  0.00    -0.258 NA
BRANCH  19  24
ATOM     24  O   UNL     1       2.885  -6.024  23.167  0.00  0.00    -0.494 OA
ATOM     25  C   UNL     1       1.716  -5.240  23.209  0.00  0.00    +0.277 C 
ENDBRANCH  19  24
ENDBRANCH  15  16
ENDBRANCH   1  15
TORSDOF 5
ENDMDL
MODEL 2
REMARK VINA RESULT:      -6.8      2.622      8.520
REMARK  Name = 
REMARK  9 active torsions:
REMARK  status: ('A' for Active; 'I' for Inactive)
REMARK    1  A    between atoms: C_1  and  O_2
REMARK    2  A    between atoms: O_2  and  C_3
REMARK    3  A    between atoms: C_10  and  S_12
REMARK    4  A    between atoms: S_12  and  C_14
REMARK    5  A    between atoms: C_14  and  C_15
REMARK    6  A    between atoms: C_18  and  C_19
REMARK    7  A    between atoms: C_20  and  O_21
REMARK    8  A    between atoms: O_21  and  C_22
REMARK    9  A    between atoms: C_23  and  C_24
REMARK                            x       y       z     vdW  Elec       q    Type
REMARK                         _______ _______ _______ _____ _____    ______ ____
ROOT
ATOM      1  S   UNL     1      10.192  -0.583  22.488  0.00  0.00    +0.095 S 
ATOM      2  O   UNL     1       9.268   0.284  21.677  0.00  0.00    -0.249 OA
ENDROOT
BRANCH   1   8
ATOM      3  C   UNL     1       7.087  -5.132  25.409  0.00  0.00    +0.122 A 
ATOM      4  C   UNL     1       6.437  -5.269  24.176  0.00  0.00    +0.048 A 
ATOM      5  C   UNL     1       6.750  -4.436  23.086  0.00  0.00    +0.033 A 
ATOM      6  C   UNL     1       7.758  -3.472  23.242  0.00  0.00    +0.090 A 
ATOM      7  N   UNL     1       8.276  -2.551  22.349  0.00  0.00    -0.220 NA
ATOM      8  C   UNL     1       9.201  -1.902  23.026  0.00  0.00    +0.198 A 
ATOM      9  N   UNL     1       9.305  -2.374  24.301  0.00  0.00    -0.331 N 
ATOM     10  H   UNL     1       9.971  -2.032  24.981  0.00  0.00    +0.168 HD
ATOM     11  C   UNL     1       8.392  -3.375  24.476  0.00  0.00    +0.070 A 
ATOM     12  C   UNL     1       8.090  -4.174  25.579  0.00  0.00    +0.073 A 
BRANCH   3  14
ATOM     13  C   UNL     1       5.318  -6.391  26.358  0.00  0.00    +0.277 C 
ATOM     14  O   UNL     1       6.694  -6.017  26.381  0.00  0.00    -0.495 OA
ENDBRANCH   3  14
ENDBRANCH   1   8
BRANCH   1  15
ATOM     15  C   UNL     1      10.573   0.223  24.063  0.00  0.00    +0.167 C 
BRANCH  15  16
ATOM     16  C   UNL     1      10.246   1.700  24.066  0.00  0.00    +0.060 A 
ATOM     17  C   UNL     1       9.031   2.216  24.590  0.00  0.00    +0.014 A 
ATOM     18  C   UNL     1       8.089   1.219  25.206  0.00  0.00    +0.049 C 
ATOM     19  C   UNL     1       8.831   3.607  24.483  0.00  0.00    +0.129 A 
ATOM     20  C   UNL     1       9.822   4.401  23.863  0.00  0.00    +0.010 A 
ATOM     21  C   UNL     1       9.675   5.894  23.733  0.00  0.00    +0.049 C 
ATOM     22  C   UNL     1      10.952   3.788  23.360  0.00  0.00    +0.118 A 
ATOM     23  N   UNL     1      11.174   2.468  23.435  0.00  0.00    -0.258 NA
BRANCH  19  24
ATOM     24  O   UNL     1       7.784   4.387  24.892  0.00  0.00    -0.494 OA
ATOM     25  C   UNL     1       7.452   4.610  26.242  0.00  0.00    +0.277 C 
ENDBRANCH  19  24
ENDBRANCH  15  16
ENDBRANCH   1  15
TORSDOF 5
ENDMDL
MODEL 3
REMARK VINA RESULT:      -6.8      1.393      1.990
REMARK  Name = 
REMARK  9 active torsions:
REMARK  status: ('A' for Active; 'I' for Inactive)
REMARK    1  A    between atoms: C_1  and  O_2
REMARK    2  A    between atoms: O_2  and  C_3
REMARK    3  A    between atoms: C_10  and  S_12
REMARK    4  A    between atoms: S_12  and  C_14
REMARK    5  A    between atoms: C_14  and  C_15
REMARK    6  A    between atoms: C_18  and  C_19
REMARK    7  A    between atoms: C_20  and  O_21
REMARK    8  A    between atoms: O_21  and  C_22
REMARK    9  A    between atoms: C_23  and  C_24
REMARK                            x       y       z     vdW  Elec       q    Type
REMARK                         _______ _______ _______ _____ _____    ______ ____
ROOT
ATOM      1  S   UNL     1       8.796  -4.211  24.294  0.00  0.00    +0.095 S 
ATOM      2  O   UNL     1      10.077  -4.641  24.956  0.00  0.00    -0.249 OA
ENDROOT
BRANCH   1   8
ATOM      3  C   UNL     1      10.234   1.776  23.315  0.00  0.00    +0.122 A 
ATOM      4  C   UNL     1       9.950   1.464  21.979  0.00  0.00    +0.048 A 
ATOM      5  C   UNL     1       9.564   0.167  21.595  0.00  0.00    +0.033 A 
ATOM      6  C   UNL     1       9.435  -0.819  22.585  0.00  0.00    +0.090 A 
ATOM      7  N   UNL     1       9.058  -2.147  22.495  0.00  0.00    -0.220 NA
ATOM      8  C   UNL     1       9.109  -2.600  23.732  0.00  0.00    +0.198 A 
ATOM      9  N   UNL     1       9.488  -1.621  24.603  0.00  0.00    -0.331 N 
ATOM     10  H   UNL     1       9.566  -1.751  25.603  0.00  0.00    +0.168 HD
ATOM     11  C   UNL     1       9.710  -0.470  23.902  0.00  0.00    +0.070 A 
ATOM     12  C   UNL     1      10.112   0.802  24.310  0.00  0.00    +0.073 A 
BRANCH   3  14
ATOM     13  C   UNL     1       9.535   3.930  24.008  0.00  0.00    +0.277 C 
ATOM     14  O   UNL     1      10.585   3.081  23.552  0.00  0.00    -0.495 OA
ENDBRANCH   3  14
ENDBRANCH   1   8
BRANCH   1  15
ATOM     15  C   UNL     1       7.529  -3.897  25.547  0.00  0.00    +0.167 C 
BRANCH  15  16
ATOM     16  C   UNL     1       6.359  -4.852  25.459  0.00  0.00    +0.060 A 
ATOM     17  C   UNL     1       5.695  -5.360  26.606  0.00  0.00    +0.014 A 
ATOM     18  C   UNL     1       6.175  -4.855  27.937  0.00  0.00    +0.049 C 
ATOM     19  C   UNL     1       4.653  -6.283  26.382  0.00  0.00    +0.129 A 
ATOM     20  C   UNL     1       4.336  -6.658  25.057  0.00  0.00    +0.010 A 
ATOM     21  C   UNL     1       3.223  -7.626  24.752  0.00  0.00    +0.049 C 
ATOM     22  C   UNL     1       5.070  -6.124  24.018  0.00  0.00    +0.118 A 
ATOM     23  N   UNL     1       6.073  -5.251  24.190  0.00  0.00    -0.258 NA
BRANCH  19  24
ATOM     24  O   UNL     1       3.837  -6.932  27.268  0.00  0.00    -0.494 OA
ATOM     25  C   UNL     1       2.873  -6.285  28.065  0.00  0.00    +0.277 C 
ENDBRANCH  19  24
ENDBRANCH  15  16
ENDBRANCH   1  15
TORSDOF 5
ENDMDL
MODEL 4
REMARK VINA RESULT:      -6.8      2.651      7.949
REMARK  Name = 
REMARK  9 active torsions:
REMARK  status: ('A' for Active; 'I' for Inactive)
REMARK    1  A    between atoms: C_1  and  O_2
REMARK    2  A    between atoms: O_2  and  C_3
REMARK    3  A    between atoms: C_10  and  S_12
REMARK    4  A    between atoms: S_12  and  C_14
REMARK    5  A    between atoms: C_14  and  C_15
REMARK    6  A    between atoms: C_18  and  C_19
REMARK    7  A    between atoms: C_20  and  O_21
REMARK    8  A    between atoms: O_21  and  C_22
REMARK    9  A    between atoms: C_23  and  C_24
REMARK                            x       y       z     vdW  Elec       q    Type
REMARK                         _______ _______ _______ _____ _____    ______ ____
ROOT
ATOM      1  S   UNL     1      10.176  -0.701  22.316  0.00  0.00    +0.095 S 
ATOM      2  O   UNL     1       9.231   0.183  21.547  0.00  0.00    -0.249 OA
ENDROOT
BRANCH   1   8
ATOM      3  C   UNL     1       7.130  -5.123  25.483  0.00  0.00    +0.122 A 
ATOM      4  C   UNL     1       6.384  -5.237  24.303  0.00  0.00    +0.048 A 
ATOM      5  C   UNL     1       6.645  -4.418  23.189  0.00  0.00    +0.033 A 
ATOM      6  C   UNL     1       7.698  -3.494  23.264  0.00  0.00    +0.090 A 
ATOM      7  N   UNL     1       8.181  -2.595  22.330  0.00  0.00    -0.220 NA
ATOM      8  C   UNL     1       9.179  -1.981  22.933  0.00  0.00    +0.198 A 
ATOM      9  N   UNL     1       9.361  -2.454  24.199  0.00  0.00    -0.331 N 
ATOM     10  H   UNL     1      10.089  -2.136  24.825  0.00  0.00    +0.168 HD
ATOM     11  C   UNL     1       8.426  -3.419  24.446  0.00  0.00    +0.070 A 
ATOM     12  C   UNL     1       8.178  -4.205  25.573  0.00  0.00    +0.073 A 
BRANCH   3  14
ATOM     13  C   UNL     1       5.399  -6.350  26.538  0.00  0.00    +0.277 C 
ATOM     14  O   UNL     1       6.778  -5.992  26.486  0.00  0.00    -0.495 OA
ENDBRANCH   3  14
ENDBRANCH   1   8
BRANCH   1  15
ATOM     15  C   UNL     1      10.673   0.116  23.852  0.00  0.00    +0.167 C 
BRANCH  15  16
ATOM     16  C   UNL     1       9.641   1.098  24.362  0.00  0.00    +0.060 A 
ATOM     17  C   UNL     1       9.735   2.496  24.138  0.00  0.00    +0.014 A 
ATOM     18  C   UNL     1      10.896   2.966  23.306  0.00  0.00    +0.049 C 
ATOM     19  C   UNL     1       8.732   3.302  24.714  0.00  0.00    +0.129 A 
ATOM     20  C   UNL     1       7.712   2.693  25.479  0.00  0.00    +0.010 A 
ATOM     21  C   UNL     1       6.604   3.498  26.105  0.00  0.00    +0.049 C 
ATOM     22  C   UNL     1       7.737   1.325  25.658  0.00  0.00    +0.118 A 
ATOM     23  N   UNL     1       8.678   0.527  25.134  0.00  0.00    -0.258 NA
BRANCH  19  24
ATOM     24  O   UNL     1       8.550   4.658  24.671  0.00  0.00    -0.494 OA
ATOM     25  C   UNL     1       8.236   5.370  23.498  0.00  0.00    +0.277 C 
ENDBRANCH  19  24
ENDBRANCH  15  16
ENDBRANCH   1  15
TORSDOF 5
ENDMDL
MODEL 5
REMARK VINA RESULT:      -6.8      2.268      3.574
REMARK  Name = 
REMARK  9 active torsions:
REMARK  status: ('A' for Active; 'I' for Inactive)
REMARK    1  A    between atoms: C_1  and  O_2
REMARK    2  A    between atoms: O_2  and  C_3
REMARK    3  A    between atoms: C_10  and  S_12
REMARK    4  A    between atoms: S_12  and  C_14
REMARK    5  A    between atoms: C_14  and  C_15
REMARK    6  A    between atoms: C_18  and  C_19
REMARK    7  A    between atoms: C_20  and  O_21
REMARK    8  A    between atoms: O_21  and  C_22
REMARK    9  A    between atoms: C_23  and  C_24
REMARK                            x       y       z     vdW  Elec       q    Type
REMARK                         _______ _______ _______ _____ _____    ______ ____
ROOT
ATOM      1  S   UNL     1       9.279  -1.643  22.791  0.00  0.00    +0.095 S 
ATOM      2  O   UNL     1      10.656  -1.905  22.241  0.00  0.00    -0.249 OA
ENDROOT
BRANCH   1   8
ATOM      3  C   UNL     1      10.222   4.431  23.828  0.00  0.00    +0.122 A 
ATOM      4  C   UNL     1       9.079   4.313  24.629  0.00  0.00    +0.048 A 
ATOM      5  C   UNL     1       8.398   3.089  24.760  0.00  0.00    +0.033 A 
ATOM      6  C   UNL     1       8.903   1.962  24.092  0.00  0.00    +0.090 A 
ATOM      7  N   UNL     1       8.456   0.654  24.060  0.00  0.00    -0.220 NA
ATOM      8  C   UNL     1       9.308   0.022  23.278  0.00  0.00    +0.198 A 
ATOM      9  N   UNL     1      10.280   0.862  22.822  0.00  0.00    -0.331 N 
ATOM     10  H   UNL     1      11.046   0.575  22.227  0.00  0.00    +0.168 HD
ATOM     11  C   UNL     1      10.048   2.114  23.318  0.00  0.00    +0.070 A 
ATOM     12  C   UNL     1      10.733   3.319  23.156  0.00  0.00    +0.073 A 
BRANCH   3  14
ATOM     13  C   UNL     1      12.218   5.706  23.854  0.00  0.00    +0.277 C 
ATOM     14  O   UNL     1      10.794   5.678  23.802  0.00  0.00    -0.495 OA
ENDBRANCH   3  14
ENDBRANCH   1   8
BRANCH   1  15
ATOM     15  C   UNL     1       9.087  -2.465  24.391  0.00  0.00    +0.167 C 
BRANCH  15  16
ATOM     16  C   UNL     1       7.979  -3.496  24.399  0.00  0.00    +0.060 A 
ATOM     17  C   UNL     1       7.749  -4.367  25.495  0.00  0.00    +0.014 A 
ATOM     18  C   UNL     1       8.632  -4.180  26.697  0.00  0.00    +0.049 C 
ATOM     19  C   UNL     1       6.717  -5.316  25.350  0.00  0.00    +0.129 A 
ATOM     20  C   UNL     1       5.986  -5.360  24.141  0.00  0.00    +0.010 A 
ATOM     21  C   UNL     1       4.860  -6.338  23.930  0.00  0.00    +0.049 C 
ATOM     22  C   UNL     1       6.317  -4.484  23.127  0.00  0.00    +0.118 A 
ATOM     23  N   UNL     1       7.297  -3.574  23.225  0.00  0.00    -0.258 NA
BRANCH  19  24
ATOM     24  O   UNL     1       6.260  -6.270  26.217  0.00  0.00    -0.494 OA
ATOM     25  C   UNL     1       5.615  -5.980  27.434  0.00  0.00    +0.277 C 
ENDBRANCH  19  24
ENDBRANCH  15  16
ENDBRANCH   1  15
TORSDOF 5
ENDMDL
MODEL 6
REMARK VINA RESULT:      -6.7      2.397      2.426
REMARK  Name = 
REMARK  9 active torsions:
REMARK  status: ('A' for Active; 'I' for Inactive)
REMARK    1  A    between atoms: C_1  and  O_2
REMARK    2  A    between atoms: O_2  and  C_3
REMARK    3  A    between atoms: C_10  and  S_12
REMARK    4  A    between atoms: S_12  and  C_14
REMARK    5  A    between atoms: C_14  and  C_15
REMARK    6  A    between atoms: C_18  and  C_19
REMARK    7  A    between atoms: C_20  and  O_21
REMARK    8  A    between atoms: O_21  and  C_22
REMARK    9  A    between atoms: C_23  and  C_24
REMARK                            x       y       z     vdW  Elec       q    Type
REMARK                         _______ _______ _______ _____ _____    ______ ____
ROOT
ATOM      1  S   UNL     1       8.867  -4.102  24.763  0.00  0.00    +0.095 S 
ATOM      2  O   UNL     1      10.184  -4.824  24.676  0.00  0.00    -0.249 OA
ENDROOT
BRANCH   1   8
ATOM      3  C   UNL     1      10.282   1.784  23.271  0.00  0.00    +0.122 A 
ATOM      4  C   UNL     1       9.988   1.360  21.968  0.00  0.00    +0.048 A 
ATOM      5  C   UNL     1       9.602   0.035  21.698  0.00  0.00    +0.033 A 
ATOM      6  C   UNL     1       9.483  -0.865  22.768  0.00  0.00    +0.090 A 
ATOM      7  N   UNL     1       9.109  -2.196  22.794  0.00  0.00    -0.220 NA
ATOM      8  C   UNL     1       9.171  -2.543  24.065  0.00  0.00    +0.198 A 
ATOM      9  N   UNL     1       9.554  -1.493  24.847  0.00  0.00    -0.331 N 
ATOM     10  H   UNL     1       9.641  -1.538  25.854  0.00  0.00    +0.168 HD
ATOM     11  C   UNL     1       9.768  -0.406  24.049  0.00  0.00    +0.070 A 
ATOM     12  C   UNL     1      10.171   0.898  24.345  0.00  0.00    +0.073 A 
BRANCH   3  14
ATOM     13  C   UNL     1       9.594   3.981  23.829  0.00  0.00    +0.277 C 
ATOM     14  O   UNL     1      10.631   3.105  23.394  0.00  0.00    -0.495 OA
ENDBRANCH   3  14
ENDBRANCH   1   8
BRANCH   1  15
ATOM     15  C   UNL     1       8.524  -3.646  26.480  0.00  0.00    +0.167 C 
BRANCH  15  16
ATOM     16  C   UNL     1       7.244  -4.254  27.010  0.00  0.00    +0.060 A 
ATOM     17  C   UNL     1       6.017  -3.541  27.057  0.00  0.00    +0.014 A 
ATOM     18  C   UNL     1       6.029  -2.148  26.494  0.00  0.00    +0.049 C 
ATOM     19  C   UNL     1       4.913  -4.210  27.623  0.00  0.00    +0.129 A 
ATOM     20  C   UNL     1       5.080  -5.524  28.116  0.00  0.00    +0.010 A 
ATOM     21  C   UNL     1       3.936  -6.297  28.717  0.00  0.00    +0.049 C 
ATOM     22  C   UNL     1       6.328  -6.109  28.047  0.00  0.00    +0.118 A 
ATOM     23  N   UNL     1       7.404  -5.503  27.524  0.00  0.00    -0.258 NA
BRANCH  19  24
ATOM     24  O   UNL     1       3.621  -3.796  27.801  0.00  0.00    -0.494 OA
ATOM     25  C   UNL     1       2.723  -3.552  26.745  0.00  0.00    +0.277 C 
ENDBRANCH  19  24
ENDBRANCH  15  16
ENDBRANCH   1  15
TORSDOF 5
ENDMDL
MODEL 7
REMARK VINA RESULT:      -6.6      1.974      8.589
REMARK  Name = 
REMARK  9 active torsions:
REMARK  status: ('A' for Active; 'I' for Inactive)
REMARK    1  A    between atoms: C_1  and  O_2
REMARK    2  A    between atoms: O_2  and  C_3
REMARK    3  A    between atoms: C_10  and  S_12
REMARK    4  A    between atoms: S_12  and  C_14
REMARK    5  A    between atoms: C_14  and  C_15
REMARK    6  A    between atoms: C_18  and  C_19
REMARK    7  A    between atoms: C_20  and  O_21
REMARK    8  A    between atoms: O_21  and  C_22
REMARK    9  A    between atoms: C_23  and  C_24
REMARK                            x       y       z     vdW  Elec       q    Type
REMARK                         _______ _______ _______ _____ _____    ______ ____
ROOT
ATOM      1  S   UNL     1       8.705  -2.814  23.949  0.00  0.00    +0.095 S 
ATOM      2  O   UNL     1       8.233  -2.350  22.597  0.00  0.00    -0.249 OA
ENDROOT
BRANCH   1   8
ATOM      3  C   UNL     1       4.268  -7.123  24.723  0.00  0.00    +0.122 A 
ATOM      4  C   UNL     1       4.555  -6.951  26.083  0.00  0.00    +0.048 A 
ATOM      5  C   UNL     1       5.548  -6.053  26.515  0.00  0.00    +0.033 A 
ATOM      6  C   UNL     1       6.237  -5.297  25.554  0.00  0.00    +0.090 A 
ATOM      7  N   UNL     1       7.228  -4.343  25.694  0.00  0.00    -0.220 NA
ATOM      8  C   UNL     1       7.509  -3.960  24.464  0.00  0.00    +0.198 A 
ATOM      9  N   UNL     1       6.736  -4.615  23.552  0.00  0.00    -0.331 N 
ATOM     10  H   UNL     1       6.774  -4.453  22.554  0.00  0.00    +0.168 HD
ATOM     11  C   UNL     1       5.915  -5.483  24.214  0.00  0.00    +0.070 A 
ATOM     12  C   UNL     1       4.948  -6.380  23.756  0.00  0.00    +0.073 A 
BRANCH   3  14
ATOM     13  C   UNL     1       1.937  -7.532  24.600  0.00  0.00    +0.277 C 
ATOM     14  O   UNL     1       3.267  -8.020  24.443  0.00  0.00    -0.495 OA
ENDBRANCH   3  14
ENDBRANCH   1   8
BRANCH   1  15
ATOM     15  C   UNL     1       8.468  -1.500  25.170  0.00  0.00    +0.167 C 
BRANCH  15  16
ATOM     16  C   UNL     1       9.015  -0.164  24.716  0.00  0.00    +0.060 A 
ATOM     17  C   UNL     1       8.185   0.882  24.234  0.00  0.00    +0.014 A 
ATOM     18  C   UNL     1       6.705   0.623  24.246  0.00  0.00    +0.049 C 
ATOM     19  C   UNL     1       8.830   2.056  23.794  0.00  0.00    +0.129 A 
ATOM     20  C   UNL     1      10.240   2.128  23.844  0.00  0.00    +0.010 A 
ATOM     21  C   UNL     1      10.986   3.361  23.405  0.00  0.00    +0.049 C 
ATOM     22  C   UNL     1      10.950   1.038  24.303  0.00  0.00    +0.118 A 
ATOM     23  N   UNL     1      10.374  -0.099  24.721  0.00  0.00    -0.258 NA
BRANCH  19  24
ATOM     24  O   UNL     1       8.311   3.218  23.291  0.00  0.00    -0.494 OA
ATOM     25  C   UNL     1       7.506   3.283  22.138  0.00  0.00    +0.277 C 
ENDBRANCH  19  24
ENDBRANCH  15  16
ENDBRANCH   1  15
TORSDOF 5
ENDMDL
MODEL 8
REMARK VINA RESULT:      -6.6      2.248      8.536
REMARK  Name = 
REMARK  9 active torsions:
REMARK  status: ('A' for Active; 'I' for Inactive)
REMARK    1  A    between atoms: C_1  and  O_2
REMARK    2  A    between atoms: O_2  and  C_3
REMARK    3  A    between atoms: C_10  and  S_12
REMARK    4  A    between atoms: S_12  and  C_14
REMARK    5  A    between atoms: C_14  and  C_15
REMARK    6  A    between atoms: C_18  and  C_19
REMARK    7  A    between atoms: C_20  and  O_21
REMARK    8  A    between atoms: O_21  and  C_22
REMARK    9  A    between atoms: C_23  and  C_24
REMARK                            x       y       z     vdW  Elec       q    Type
REMARK                         _______ _______ _______ _____ _____    ______ ____
ROOT
ATOM      1  S   UNL     1       9.683  -1.294  23.149  0.00  0.00    +0.095 S 
ATOM      2  O   UNL     1      10.914  -1.858  22.491  0.00  0.00    -0.249 OA
ENDROOT
BRANCH   1   8
ATOM      3  C   UNL     1       5.540  -5.909  23.780  0.00  0.00    +0.122 A 
ATOM      4  C   UNL     1       5.320  -5.690  22.414  0.00  0.00    +0.048 A 
ATOM      5  C   UNL     1       6.018  -4.691  21.710  0.00  0.00    +0.033 A 
ATOM      6  C   UNL     1       6.974  -3.927  22.396  0.00  0.00    +0.090 A 
ATOM      7  N   UNL     1       7.806  -2.912  21.957  0.00  0.00    -0.220 NA
ATOM      8  C   UNL     1       8.497  -2.554  23.020  0.00  0.00    +0.198 A 
ATOM      9  N   UNL     1       8.153  -3.299  24.110  0.00  0.00    -0.331 N 
ATOM     10  H   UNL     1       8.581  -3.203  25.021  0.00  0.00    +0.168 HD
ATOM     11  C   UNL     1       7.177  -4.183  23.747  0.00  0.00    +0.070 A 
ATOM     12  C   UNL     1       6.487  -5.154  24.475  0.00  0.00    +0.073 A 
BRANCH   3  14
ATOM     13  C   UNL     1       4.609  -6.844  25.748  0.00  0.00    +0.277 C 
ATOM     14  O   UNL     1       4.802  -6.923  24.337  0.00  0.00    -0.495 OA
ENDBRANCH   3  14
ENDBRANCH   1   8
BRANCH   1  15
ATOM     15  C   UNL     1       8.947  -0.022  22.095  0.00  0.00    +0.167 C 
BRANCH  15  16
ATOM     16  C   UNL     1       9.132   1.378  22.639  0.00  0.00    +0.060 A 
ATOM     17  C   UNL     1       8.075   2.323  22.704  0.00  0.00    +0.014 A 
ATOM     18  C   UNL     1       6.722   1.847  22.254  0.00  0.00    +0.049 C 
ATOM     19  C   UNL     1       8.397   3.608  23.184  0.00  0.00    +0.129 A 
ATOM     20  C   UNL     1       9.731   3.891  23.557  0.00  0.00    +0.010 A 
ATOM     21  C   UNL     1      10.134   5.239  24.093  0.00  0.00    +0.049 C 
ATOM     22  C   UNL     1      10.686   2.904  23.423  0.00  0.00    +0.118 A 
ATOM     23  N   UNL     1      10.420   1.673  22.962  0.00  0.00    -0.258 NA
BRANCH  19  24
ATOM     24  O   UNL     1       7.608   4.711  23.365  0.00  0.00    -0.494 OA
ATOM     25  C   UNL     1       7.031   5.445  22.312  0.00  0.00    +0.277 C 
ENDBRANCH  19  24
ENDBRANCH  15  16
ENDBRANCH   1  15
TORSDOF 5
ENDMDL
MODEL 9
REMARK VINA RESULT:      -6.6      3.394      5.215
REMARK  Name = 
REMARK  9 active torsions:
REMARK  status: ('A' for Active; 'I' for Inactive)
REMARK    1  A    between atoms: C_1  and  O_2
REMARK    2  A    between atoms: O_2  and  C_3
REMARK    3  A    between atoms: C_10  and  S_12
REMARK    4  A    between atoms: S_12  and  C_14
REMARK    5  A    between atoms: C_14  and  C_15
REMARK    6  A    between atoms: C_18  and  C_19
REMARK    7  A    between atoms: C_20  and  O_21
REMARK    8  A    between atoms: O_21  and  C_22
REMARK    9  A    between atoms: C_23  and  C_24
REMARK                            x       y       z     vdW  Elec       q    Type
REMARK                         _______ _______ _______ _____ _____    ______ ____
ROOT
ATOM      1  S   UNL     1       6.856   1.124  24.160  0.00  0.00    +0.095 S 
ATOM      2  O   UNL     1       5.577   1.786  23.723  0.00  0.00    -0.249 OA
ENDROOT
BRANCH   1   8
ATOM      3  C   UNL     1      11.740   4.950  23.551  0.00  0.00    +0.122 A 
ATOM      4  C   UNL     1      10.873   5.895  24.116  0.00  0.00    +0.048 A 
ATOM      5  C   UNL     1       9.551   5.562  24.462  0.00  0.00    +0.033 A 
ATOM      6  C   UNL     1       9.113   4.244  24.261  0.00  0.00    +0.090 A 
ATOM      7  N   UNL     1       7.894   3.645  24.524  0.00  0.00    -0.220 NA
ATOM      8  C   UNL     1       8.039   2.393  24.139  0.00  0.00    +0.198 A 
ATOM      9  N   UNL     1       9.293   2.165  23.655  0.00  0.00    -0.331 N 
ATOM     10  H   UNL     1       9.621   1.265  23.328  0.00  0.00    +0.168 HD
ATOM     11  C   UNL     1      10.005   3.329  23.712  0.00  0.00    +0.070 A 
ATOM     12  C   UNL     1      11.316   3.636  23.342  0.00  0.00    +0.073 A 
BRANCH   3  14
ATOM     13  C   UNL     1      13.318   5.560  21.893  0.00  0.00    +0.277 C 
ATOM     14  O   UNL     1      13.004   5.405  23.275  0.00  0.00    -0.495 OA
ENDBRANCH   3  14
ENDBRANCH   1   8
BRANCH   1  15
ATOM     15  C   UNL     1       7.478   0.053  22.841  0.00  0.00    +0.167 C 
BRANCH  15  16
ATOM     16  C   UNL     1       8.005  -1.271  23.352  0.00  0.00    +0.060 A 
ATOM     17  C   UNL     1       7.311  -2.495  23.168  0.00  0.00    +0.014 A 
ATOM     18  C   UNL     1       6.034  -2.430  22.377  0.00  0.00    +0.049 C 
ATOM     19  C   UNL     1       7.888  -3.647  23.740  0.00  0.00    +0.129 A 
ATOM     20  C   UNL     1       9.097  -3.526  24.464  0.00  0.00    +0.010 A 
ATOM     21  C   UNL     1       9.772  -4.721  25.083  0.00  0.00    +0.049 C 
ATOM     22  C   UNL     1       9.668  -2.278  24.606  0.00  0.00    +0.118 A 
ATOM     23  N   UNL     1       9.145  -1.159  24.085  0.00  0.00    -0.258 NA
BRANCH  19  24
ATOM     24  O   UNL     1       7.469  -4.949  23.729  0.00  0.00    -0.494 OA
ATOM     25  C   UNL     1       7.338  -5.721  22.559  0.00  0.00    +0.277 C 
ENDBRANCH  19  24
ENDBRANCH  15  16
ENDBRANCH   1  15
TORSDOF 5
ENDMDL
