MODEL 1
REMARK VINA RESULT:      -6.5      0.000      0.000
REMARK  Name = 
REMARK  27 active torsions:
REMARK  status: ('A' for Active; 'I' for Inactive)
REMARK    1  A    between atoms: C_1  and  C_2
REMARK    2  A    between atoms: C_2  and  C_3
REMARK    3  A    between atoms: C_3  and  C_5
REMARK    4  A    between atoms: C_3  and  C_6
REMARK    5  A    between atoms: C_6  and  N_8
REMARK    6  A    between atoms: C_6  and  C_51
REMARK    7  A    between atoms: C_9  and  C_11
REMARK    8  A    between atoms: C_11  and  O_13
REMARK    9  A    between atoms: C_11  and  C_21
REMARK   10  A    between atoms: O_13  and  C_14
REMARK   11  A    between atoms: C_14  and  C_15
REMARK   12  A    between atoms: C_21  and  O_23
REMARK   13  A    between atoms: C_21  and  C_24
REMARK   14  A    between atoms: C_24  and  O_26
REMARK   15  A    between atoms: C_24  and  C_27
REMARK   16  A    between atoms: C_27  and  O_29
REMARK   17  A    between atoms: C_27  and  C_37
REMARK   18  A    between atoms: O_29  and  C_30
REMARK   19  A    between atoms: C_30  and  C_31
REMARK   20  A    between atoms: N_39  and  C_40
REMARK   21  A    between atoms: C_40  and  C_42
REMARK   22  A    between atoms: C_40  and  C_47
REMARK   23  A    between atoms: C_42  and  C_44
REMARK   24  A    between atoms: C_42  and  C_45
REMARK   25  A    between atoms: C_45  and  C_46
REMARK   26  A    between atoms: N_49  and  C_50
REMARK   27  A    between atoms: N_53  and  C_54
REMARK                            x       y       z     vdW  Elec       q    Type
REMARK                         _______ _______ _______ _____ _____    ______ ____
ROOT
ATOM      1  C   UNL     1       6.694  -1.436  24.277  0.00  0.00    +0.184 C 
ENDROOT
BRANCH   1   2
ATOM      2  O   UNL     1       6.388  -0.957  22.950  0.00  0.00    -0.386 OA
ATOM      3  H   UNL     1       5.614  -0.356  23.033  0.00  0.00    +0.210 HD
ENDBRANCH   1   2
BRANCH   1   4
ATOM      4  C   UNL     1       6.662  -0.193  25.213  0.00  0.00    +0.184 C 
BRANCH   4   5
ATOM      5  O   UNL     1       7.957   0.117  25.750  0.00  0.00    -0.386 OA
ATOM      6  H   UNL     1       7.829   0.710  26.511  0.00  0.00    +0.210 HD
ENDBRANCH   4   5
BRANCH   4   7
ATOM      7  C   UNL     1       6.043   1.084  24.558  0.00  0.00    +0.235 C 
BRANCH   7   8
ATOM      8  C   UNL     1       5.725   2.186  25.585  0.00  0.00    +0.245 C 
ATOM      9  N   UNL     1       6.788   2.741  26.266  0.00  0.00    -0.302 N 
ATOM     10  H   UNL     1       7.747   2.473  26.066  0.00  0.00    +0.150 HD
ATOM     11  O   UNL     1       4.565   2.559  25.795  0.00  0.00    -0.273 OA
BRANCH   9  12
ATOM     12  C   UNL     1       6.567   3.764  27.292  0.00  0.00    +0.162 C 
BRANCH  12  13
ATOM     13  C   UNL     1       7.075   3.249  28.662  0.00  0.00    +0.233 C 
ATOM     14  N   UNL     1       7.232   1.877  28.732  0.00  0.00    -0.317 N 
ATOM     15  H   UNL     1       7.183   1.347  27.871  0.00  0.00    +0.148 HD
ATOM     16  C   UNL     1       7.875   1.239  29.856  0.00  0.00    +0.128 C 
ATOM     17  O   UNL     1       7.322   4.006  29.599  0.00  0.00    -0.274 OA
ENDBRANCH  12  13
BRANCH  12  18
ATOM     18  C   UNL     1       7.133   5.141  26.847  0.00  0.00    +0.015 C 
ATOM     19  C   UNL     1       6.049   6.148  26.452  0.00  0.00    +0.010 C 
BRANCH  18  20
ATOM     20  C   UNL     1       8.213   4.984  25.758  0.00  0.00    +0.002 C 
ATOM     21  C   UNL     1       9.108   6.212  25.628  0.00  0.00    +0.004 C 
ENDBRANCH  18  20
ENDBRANCH  12  18
ENDBRANCH   9  12
ENDBRANCH   7   8
BRANCH   7  22
ATOM     22  O   UNL     1       6.909   1.687  23.566  0.00  0.00    -0.360 OA
BRANCH  22  23
ATOM     23  C   UNL     1       6.178   2.342  22.532  0.00  0.00    +0.196 C 
BRANCH  23  24
ATOM     24  C   UNL     1       6.269   3.845  22.534  0.00  0.00    -0.022 A 
ATOM     25  C   UNL     1       5.098   4.548  22.867  0.00  0.00    +0.006 A 
ATOM     26  C   UNL     1       5.089   5.937  22.936  0.00  0.00    +0.000 A 
ATOM     27  C   UNL     1       6.249   6.647  22.651  0.00  0.00    +0.000 A 
ATOM     28  C   UNL     1       7.406   5.966  22.264  0.00  0.00    +0.000 A 
ATOM     29  C   UNL     1       7.417   4.568  22.198  0.00  0.00    +0.006 A 
ENDBRANCH  23  24
ENDBRANCH  22  23
ENDBRANCH   7  22
ENDBRANCH   4   7
ENDBRANCH   1   4
BRANCH   1  30
ATOM     30  C   UNL     1       8.048  -2.204  24.184  0.00  0.00    +0.235 C 
BRANCH  30  33
ATOM     31  N   UNL     1       6.638  -4.173  24.637  0.00  0.00    -0.302 N 
ATOM     32  H   UNL     1       5.953  -3.453  24.853  0.00  0.00    +0.150 HD
ATOM     33  C   UNL     1       7.914  -3.741  24.357  0.00  0.00    +0.245 C 
ATOM     34  O   UNL     1       8.841  -4.525  24.206  0.00  0.00    -0.273 OA
BRANCH  31  35
ATOM     35  C   UNL     1       6.279  -5.599  24.767  0.00  0.00    +0.162 C 
BRANCH  35  36
ATOM     36  C   UNL     1       5.460  -5.856  26.058  0.00  0.00    +0.233 C 
ATOM     37  N   UNL     1       4.920  -4.734  26.653  0.00  0.00    -0.317 N 
ATOM     38  H   UNL     1       5.320  -3.840  26.395  0.00  0.00    +0.148 HD
ATOM     39  C   UNL     1       4.143  -4.823  27.865  0.00  0.00    +0.128 C 
ATOM     40  O   UNL     1       5.180  -6.996  26.433  0.00  0.00    -0.274 OA
ENDBRANCH  35  36
BRANCH  35  41
ATOM     41  C   UNL     1       5.518  -6.052  23.492  0.00  0.00    +0.015 C 
ATOM     42  C   UNL     1       4.482  -4.986  23.097  0.00  0.00    +0.010 C 
BRANCH  41  44
ATOM     43  C   UNL     1       6.180  -5.578  21.024  0.00  0.00    +0.004 C 
ATOM     44  C   UNL     1       6.409  -6.409  22.280  0.00  0.00    +0.002 C 
ENDBRANCH  41  44
ENDBRANCH  35  41
ENDBRANCH  31  35
ENDBRANCH  30  33
BRANCH  30  45
ATOM     45  O   UNL     1       8.696  -2.074  22.887  0.00  0.00    -0.360 OA
BRANCH  45  46
ATOM     46  C   UNL     1      10.078  -1.717  22.955  0.00  0.00    +0.196 C 
BRANCH  46  47
ATOM     47  C   UNL     1      10.252  -0.220  22.921  0.00  0.00    -0.022 A 
ATOM     48  C   UNL     1      10.725   0.448  24.062  0.00  0.00    +0.006 A 
ATOM     49  C   UNL     1      10.785   1.840  24.089  0.00  0.00    +0.000 A 
ATOM     50  C   UNL     1      10.369   2.577  22.983  0.00  0.00    +0.000 A 
ATOM     51  C   UNL     1       9.879   1.924  21.853  0.00  0.00    +0.000 A 
ATOM     52  C   UNL     1       9.813   0.533  21.826  0.00  0.00    +0.006 A 
ENDBRANCH  46  47
ENDBRANCH  45  46
ENDBRANCH  30  45
ENDBRANCH   1  30
TORSDOF 21
ENDMDL
MODEL 2
REMARK VINA RESULT:      -6.5      2.410      6.707
REMARK  Name = 
REMARK  27 active torsions:
REMARK  status: ('A' for Active; 'I' for Inactive)
REMARK    1  A    between atoms: C_1  and  C_2
REMARK    2  A    between atoms: C_2  and  C_3
REMARK    3  A    between atoms: C_3  and  C_5
REMARK    4  A    between atoms: C_3  and  C_6
REMARK    5  A    between atoms: C_6  and  N_8
REMARK    6  A    between atoms: C_6  and  C_51
REMARK    7  A    between atoms: C_9  and  C_11
REMARK    8  A    between atoms: C_11  and  O_13
REMARK    9  A    between atoms: C_11  and  C_21
REMARK   10  A    between atoms: O_13  and  C_14
REMARK   11  A    between atoms: C_14  and  C_15
REMARK   12  A    between atoms: C_21  and  O_23
REMARK   13  A    between atoms: C_21  and  C_24
REMARK   14  A    between atoms: C_24  and  O_26
REMARK   15  A    between atoms: C_24  and  C_27
REMARK   16  A    between atoms: C_27  and  O_29
REMARK   17  A    between atoms: C_27  and  C_37
REMARK   18  A    between atoms: O_29  and  C_30
REMARK   19  A    between atoms: C_30  and  C_31
REMARK   20  A    between atoms: N_39  and  C_40
REMARK   21  A    between atoms: C_40  and  C_42
REMARK   22  A    between atoms: C_40  and  C_47
REMARK   23  A    between atoms: C_42  and  C_44
REMARK   24  A    between atoms: C_42  and  C_45
REMARK   25  A    between atoms: C_45  and  C_46
REMARK   26  A    between atoms: N_49  and  C_50
REMARK   27  A    between atoms: N_53  and  C_54
REMARK                            x       y       z     vdW  Elec       q    Type
REMARK                         _______ _______ _______ _____ _____    ______ ____
ROOT
ATOM      1  C   UNL     1       4.513  -1.325  26.325  0.00  0.00    +0.184 C 
ENDROOT
BRANCH   1   2
ATOM      2  O   UNL     1       4.866  -1.526  24.940  0.00  0.00    -0.386 OA
ATOM      3  H   UNL     1       4.159  -1.106  24.399  0.00  0.00    +0.210 HD
ENDBRANCH   1   2
BRANCH   1   4
ATOM      4  C   UNL     1       5.826  -1.493  27.144  0.00  0.00    +0.184 C 
BRANCH   4   5
ATOM      5  O   UNL     1       6.550  -2.675  26.772  0.00  0.00    -0.386 OA
ATOM      6  H   UNL     1       6.642  -3.229  27.567  0.00  0.00    +0.210 HD
ENDBRANCH   4   5
BRANCH   4   7
ATOM      7  C   UNL     1       6.775  -0.252  27.088  0.00  0.00    +0.235 C 
BRANCH   7   8
ATOM      8  C   UNL     1       8.190  -0.608  26.594  0.00  0.00    +0.245 C 
ATOM      9  N   UNL     1       8.361  -0.778  25.237  0.00  0.00    -0.302 N 
ATOM     10  H   UNL     1       7.600  -0.627  24.581  0.00  0.00    +0.150 HD
ATOM     11  O   UNL     1       9.135  -0.737  27.381  0.00  0.00    -0.273 OA
BRANCH   9  12
ATOM     12  C   UNL     1       9.666  -1.160  24.689  0.00  0.00    +0.162 C 
BRANCH  12  13
ATOM     13  C   UNL     1       9.587  -2.591  24.099  0.00  0.00    +0.233 C 
ATOM     14  N   UNL     1       8.601  -3.383  24.658  0.00  0.00    -0.317 N 
ATOM     15  H   UNL     1       7.914  -2.940  25.254  0.00  0.00    +0.148 HD
ATOM     16  C   UNL     1       8.253  -4.671  24.104  0.00  0.00    +0.128 C 
ATOM     17  O   UNL     1      10.337  -2.975  23.203  0.00  0.00    -0.274 OA
ENDBRANCH  12  13
BRANCH  12  18
ATOM     18  C   UNL     1      10.215  -0.072  23.726  0.00  0.00    +0.015 C 
ATOM     19  C   UNL     1      10.901   1.091  24.448  0.00  0.00    +0.010 C 
BRANCH  18  20
ATOM     20  C   UNL     1       9.133   0.407  22.737  0.00  0.00    +0.002 C 
ATOM     21  C   UNL     1       9.672   1.382  21.696  0.00  0.00    +0.004 C 
ENDBRANCH  18  20
ENDBRANCH  12  18
ENDBRANCH   9  12
ENDBRANCH   7   8
BRANCH   7  22
ATOM     22  O   UNL     1       6.287   0.794  26.213  0.00  0.00    -0.360 OA
BRANCH  22  23
ATOM     23  C   UNL     1       7.025   2.006  26.352  0.00  0.00    +0.196 C 
BRANCH  23  24
ATOM     24  C   UNL     1       7.264   2.763  25.073  0.00  0.00    -0.022 A 
ATOM     25  C   UNL     1       6.391   2.490  24.005  0.00  0.00    +0.006 A 
ATOM     26  C   UNL     1       6.504   3.167  22.795  0.00  0.00    +0.000 A 
ATOM     27  C   UNL     1       7.508   4.113  22.627  0.00  0.00    +0.000 A 
ATOM     28  C   UNL     1       8.417   4.355  23.659  0.00  0.00    +0.000 A 
ATOM     29  C   UNL     1       8.303   3.678  24.878  0.00  0.00    +0.006 A 
ENDBRANCH  23  24
ENDBRANCH  22  23
ENDBRANCH   7  22
ENDBRANCH   4   7
ENDBRANCH   1   4
BRANCH   1  30
ATOM     30  C   UNL     1       3.356  -2.319  26.650  0.00  0.00    +0.235 C 
BRANCH  30  33
ATOM     31  N   UNL     1       4.080  -4.200  25.233  0.00  0.00    -0.302 N 
ATOM     32  H   UNL     1       4.972  -4.007  25.681  0.00  0.00    +0.150 HD
ATOM     33  C   UNL     1       3.053  -3.328  25.509  0.00  0.00    +0.245 C 
ATOM     34  O   UNL     1       1.978  -3.395  24.930  0.00  0.00    -0.273 OA
BRANCH  31  35
ATOM     35  C   UNL     1       3.972  -5.285  24.237  0.00  0.00    +0.162 C 
BRANCH  35  36
ATOM     36  C   UNL     1       4.807  -4.967  22.969  0.00  0.00    +0.233 C 
ATOM     37  N   UNL     1       5.294  -6.064  22.289  0.00  0.00    -0.317 N 
ATOM     38  H   UNL     1       5.330  -6.940  22.795  0.00  0.00    +0.148 HD
ATOM     39  C   UNL     1       6.095  -5.918  21.097  0.00  0.00    +0.128 C 
ATOM     40  O   UNL     1       4.891  -3.824  22.516  0.00  0.00    -0.274 OA
ENDBRANCH  35  36
BRANCH  35  41
ATOM     41  C   UNL     1       4.395  -6.626  24.894  0.00  0.00    +0.015 C 
ATOM     42  C   UNL     1       5.297  -6.350  26.109  0.00  0.00    +0.010 C 
BRANCH  41  44
ATOM     43  C   UNL     1       1.838  -7.084  24.922  0.00  0.00    +0.004 C 
ATOM     44  C   UNL     1       3.234  -7.565  25.292  0.00  0.00    +0.002 C 
ENDBRANCH  41  44
ENDBRANCH  35  41
ENDBRANCH  31  35
ENDBRANCH  30  33
BRANCH  30  45
ATOM     45  O   UNL     1       3.640  -3.183  27.786  0.00  0.00    -0.360 OA
BRANCH  45  46
ATOM     46  C   UNL     1       2.508  -3.456  28.614  0.00  0.00    +0.196 C 
BRANCH  46  47
ATOM     47  C   UNL     1       2.334  -4.938  28.819  0.00  0.00    -0.022 A 
ATOM     48  C   UNL     1       3.416  -5.704  29.282  0.00  0.00    +0.006 A 
ATOM     49  C   UNL     1       3.311  -7.091  29.371  0.00  0.00    +0.000 A 
ATOM     50  C   UNL     1       2.130  -7.726  28.994  0.00  0.00    +0.000 A 
ATOM     51  C   UNL     1       1.057  -6.977  28.514  0.00  0.00    +0.000 A 
ATOM     52  C   UNL     1       1.162  -5.591  28.419  0.00  0.00    +0.006 A 
ENDBRANCH  46  47
ENDBRANCH  45  46
ENDBRANCH  30  45
ENDBRANCH   1  30
TORSDOF 21
ENDMDL
MODEL 3
REMARK VINA RESULT:      -6.3      1.557      8.233
REMARK  Name = 
REMARK  27 active torsions:
REMARK  status: ('A' for Active; 'I' for Inactive)
REMARK    1  A    between atoms: C_1  and  C_2
REMARK    2  A    between atoms: C_2  and  C_3
REMARK    3  A    between atoms: C_3  and  C_5
REMARK    4  A    between atoms: C_3  and  C_6
REMARK    5  A    between atoms: C_6  and  N_8
REMARK    6  A    between atoms: C_6  and  C_51
REMARK    7  A    between atoms: C_9  and  C_11
REMARK    8  A    between atoms: C_11  and  O_13
REMARK    9  A    between atoms: C_11  and  C_21
REMARK   10  A    between atoms: O_13  and  C_14
REMARK   11  A    between atoms: C_14  and  C_15
REMARK   12  A    between atoms: C_21  and  O_23
REMARK   13  A    between atoms: C_21  and  C_24
REMARK   14  A    between atoms: C_24  and  O_26
REMARK   15  A    between atoms: C_24  and  C_27
REMARK   16  A    between atoms: C_27  and  O_29
REMARK   17  A    between atoms: C_27  and  C_37
REMARK   18  A    between atoms: O_29  and  C_30
REMARK   19  A    between atoms: C_30  and  C_31
REMARK   20  A    between atoms: N_39  and  C_40
REMARK   21  A    between atoms: C_40  and  C_42
REMARK   22  A    between atoms: C_40  and  C_47
REMARK   23  A    between atoms: C_42  and  C_44
REMARK   24  A    between atoms: C_42  and  C_45
REMARK   25  A    between atoms: C_45  and  C_46
REMARK   26  A    between atoms: N_49  and  C_50
REMARK   27  A    between atoms: N_53  and  C_54
REMARK                            x       y       z     vdW  Elec       q    Type
REMARK                         _______ _______ _______ _____ _____    ______ ____
ROOT
ATOM      1  C   UNL     1       7.105  -1.211  24.777  0.00  0.00    +0.184 C 
ENDROOT
BRANCH   1   2
ATOM      2  O   UNL     1       5.900  -1.939  25.097  0.00  0.00    -0.386 OA
ATOM      3  H   UNL     1       5.664  -2.467  24.302  0.00  0.00    +0.210 HD
ENDBRANCH   1   2
BRANCH   1   4
ATOM      4  C   UNL     1       8.280  -1.990  25.437  0.00  0.00    +0.184 C 
BRANCH   4   5
ATOM      5  O   UNL     1       7.866  -2.703  26.613  0.00  0.00    -0.386 OA
ATOM      6  H   UNL     1       7.638  -3.610  26.345  0.00  0.00    +0.210 HD
ENDBRANCH   4   5
BRANCH   4   7
ATOM      7  C   UNL     1       9.027  -2.961  24.467  0.00  0.00    +0.235 C 
BRANCH   7   8
ATOM      8  C   UNL     1       8.409  -4.371  24.443  0.00  0.00    +0.245 C 
ATOM      9  N   UNL     1       7.034  -4.460  24.504  0.00  0.00    -0.302 N 
ATOM     10  H   UNL     1       6.447  -3.631  24.513  0.00  0.00    +0.150 HD
ATOM     11  O   UNL     1       9.114  -5.385  24.375  0.00  0.00    -0.273 OA
BRANCH   9  12
ATOM     12  C   UNL     1       6.369  -5.765  24.531  0.00  0.00    +0.162 C 
BRANCH  12  13
ATOM     13  C   UNL     1       5.610  -5.938  25.871  0.00  0.00    +0.233 C 
ATOM     14  N   UNL     1       5.548  -4.791  26.641  0.00  0.00    -0.317 N 
ATOM     15  H   UNL     1       5.828  -3.916  26.218  0.00  0.00    +0.148 HD
ATOM     16  C   UNL     1       4.721  -4.711  27.823  0.00  0.00    +0.128 C 
ATOM     17  O   UNL     1       5.102  -7.006  26.206  0.00  0.00    -0.274 OA
ENDBRANCH  12  13
BRANCH  12  18
ATOM     18  C   UNL     1       5.519  -5.993  23.250  0.00  0.00    +0.015 C 
ATOM     19  C   UNL     1       6.352  -6.051  21.967  0.00  0.00    +0.010 C 
BRANCH  18  20
ATOM     20  C   UNL     1       4.361  -4.979  23.152  0.00  0.00    +0.002 C 
ATOM     21  C   UNL     1       2.989  -5.632  23.284  0.00  0.00    +0.004 C 
ENDBRANCH  18  20
ENDBRANCH  12  18
ENDBRANCH   9  12
ENDBRANCH   7   8
BRANCH   7  22
ATOM     22  O   UNL     1       9.035  -2.495  23.096  0.00  0.00    -0.360 OA
BRANCH  22  23
ATOM     23  C   UNL     1      10.252  -1.839  22.751  0.00  0.00    +0.196 C 
BRANCH  23  24
ATOM     24  C   UNL     1      10.236  -0.339  22.889  0.00  0.00    -0.022 A 
ATOM     25  C   UNL     1       9.792   0.393  21.774  0.00  0.00    +0.006 A 
ATOM     26  C   UNL     1       9.701   1.781  21.816  0.00  0.00    +0.000 A 
ATOM     27  C   UNL     1      10.076   2.460  22.969  0.00  0.00    +0.000 A 
ATOM     28  C   UNL     1      10.572   1.751  24.065  0.00  0.00    +0.000 A 
ATOM     29  C   UNL     1      10.660   0.355  24.026  0.00  0.00    +0.006 A 
ENDBRANCH  23  24
ENDBRANCH  22  23
ENDBRANCH   7  22
ENDBRANCH   4   7
ENDBRANCH   1   4
BRANCH   1  30
ATOM     30  C   UNL     1       6.890   0.259  25.250  0.00  0.00    +0.235 C 
BRANCH  30  33
ATOM     31  N   UNL     1       6.607   2.582  24.479  0.00  0.00    -0.302 N 
ATOM     32  H   UNL     1       6.602   2.761  25.480  0.00  0.00    +0.150 HD
ATOM     33  C   UNL     1       6.634   1.262  24.093  0.00  0.00    +0.245 C 
ATOM     34  O   UNL     1       6.518   0.932  22.921  0.00  0.00    -0.273 OA
BRANCH  31  35
ATOM     35  C   UNL     1       6.451   3.698  23.526  0.00  0.00    +0.162 C 
BRANCH  35  36
ATOM     36  C   UNL     1       4.953   4.020  23.279  0.00  0.00    +0.233 C 
ATOM     37  N   UNL     1       4.271   3.107  22.503  0.00  0.00    -0.317 N 
ATOM     38  H   UNL     1       4.826   2.484  21.930  0.00  0.00    +0.148 HD
ATOM     39  C   UNL     1       2.874   3.283  22.183  0.00  0.00    +0.128 C 
ATOM     40  O   UNL     1       4.381   4.939  23.865  0.00  0.00    -0.274 OA
ENDBRANCH  35  36
BRANCH  35  41
ATOM     41  C   UNL     1       7.234   4.932  24.052  0.00  0.00    +0.015 C 
ATOM     42  C   UNL     1       8.061   4.537  25.286  0.00  0.00    +0.010 C 
BRANCH  41  44
ATOM     43  C   UNL     1       7.396   6.421  21.929  0.00  0.00    +0.004 C 
ATOM     44  C   UNL     1       8.130   5.641  23.010  0.00  0.00    +0.002 C 
ENDBRANCH  41  44
ENDBRANCH  35  41
ENDBRANCH  31  35
ENDBRANCH  30  33
BRANCH  30  45
ATOM     45  O   UNL     1       5.717   0.426  26.096  0.00  0.00    -0.360 OA
BRANCH  45  46
ATOM     46  C   UNL     1       6.017   0.662  27.474  0.00  0.00    +0.196 C 
BRANCH  46  47
ATOM     47  C   UNL     1       5.827   2.115  27.827  0.00  0.00    -0.022 A 
ATOM     48  C   UNL     1       4.685   2.793  27.374  0.00  0.00    +0.006 A 
ATOM     49  C   UNL     1       4.545   4.163  27.592  0.00  0.00    +0.000 A 
ATOM     50  C   UNL     1       5.545   4.868  28.257  0.00  0.00    +0.000 A 
ATOM     51  C   UNL     1       6.693   4.207  28.693  0.00  0.00    +0.000 A 
ATOM     52  C   UNL     1       6.836   2.840  28.471  0.00  0.00    +0.006 A 
ENDBRANCH  46  47
ENDBRANCH  45  46
ENDBRANCH  30  45
ENDBRANCH   1  30
TORSDOF 21
ENDMDL
MODEL 4
REMARK VINA RESULT:      -6.3      2.069      4.839
REMARK  Name = 
REMARK  27 active torsions:
REMARK  status: ('A' for Active; 'I' for Inactive)
REMARK    1  A    between atoms: C_1  and  C_2
REMARK    2  A    between atoms: C_2  and  C_3
REMARK    3  A    between atoms: C_3  and  C_5
REMARK    4  A    between atoms: C_3  and  C_6
REMARK    5  A    between atoms: C_6  and  N_8
REMARK    6  A    between atoms: C_6  and  C_51
REMARK    7  A    between atoms: C_9  and  C_11
REMARK    8  A    between atoms: C_11  and  O_13
REMARK    9  A    between atoms: C_11  and  C_21
REMARK   10  A    between atoms: O_13  and  C_14
REMARK   11  A    between atoms: C_14  and  C_15
REMARK   12  A    between atoms: C_21  and  O_23
REMARK   13  A    between atoms: C_21  and  C_24
REMARK   14  A    between atoms: C_24  and  O_26
REMARK   15  A    between atoms: C_24  and  C_27
REMARK   16  A    between atoms: C_27  and  O_29
REMARK   17  A    between atoms: C_27  and  C_37
REMARK   18  A    between atoms: O_29  and  C_30
REMARK   19  A    between atoms: C_30  and  C_31
REMARK   20  A    between atoms: N_39  and  C_40
REMARK   21  A    between atoms: C_40  and  C_42
REMARK   22  A    between atoms: C_40  and  C_47
REMARK   23  A    between atoms: C_42  and  C_44
REMARK   24  A    between atoms: C_42  and  C_45
REMARK   25  A    between atoms: C_45  and  C_46
REMARK   26  A    between atoms: N_49  and  C_50
REMARK   27  A    between atoms: N_53  and  C_54
REMARK                            x       y       z     vdW  Elec       q    Type
REMARK                         _______ _______ _______ _____ _____    ______ ____
ROOT
ATOM      1  C   UNL     1       6.050   0.339  25.499  0.00  0.00    +0.184 C 
ENDROOT
BRANCH   1   2
ATOM      2  O   UNL     1       5.110   0.794  24.502  0.00  0.00    -0.386 OA
ATOM      3  H   UNL     1       4.365   0.153  24.496  0.00  0.00    +0.210 HD
ENDBRANCH   1   2
BRANCH   1   4
ATOM      4  C   UNL     1       6.977   1.548  25.815  0.00  0.00    +0.184 C 
BRANCH   4   5
ATOM      5  O   UNL     1       7.926   1.248  26.850  0.00  0.00    -0.386 OA
ATOM      6  H   UNL     1       8.764   0.999  26.422  0.00  0.00    +0.210 HD
ENDBRANCH   4   5
BRANCH   4   7
ATOM      7  C   UNL     1       7.721   2.125  24.568  0.00  0.00    +0.235 C 
BRANCH   7   8
ATOM      8  C   UNL     1       6.947   3.272  23.892  0.00  0.00    +0.245 C 
ATOM      9  N   UNL     1       6.893   4.477  24.559  0.00  0.00    -0.302 N 
ATOM     10  H   UNL     1       7.384   4.623  25.437  0.00  0.00    +0.150 HD
ATOM     11  O   UNL     1       6.395   3.121  22.796  0.00  0.00    -0.273 OA
BRANCH   9  12
ATOM     12  C   UNL     1       6.140   5.606  24.005  0.00  0.00    +0.162 C 
BRANCH  12  13
ATOM     13  C   UNL     1       5.154   6.150  25.070  0.00  0.00    +0.233 C 
ATOM     14  N   UNL     1       5.195   5.479  26.278  0.00  0.00    -0.317 N 
ATOM     15  H   UNL     1       5.955   4.830  26.439  0.00  0.00    +0.148 HD
ATOM     16  C   UNL     1       4.492   5.964  27.443  0.00  0.00    +0.128 C 
ATOM     17  O   UNL     1       4.410   7.103  24.850  0.00  0.00    -0.274 OA
ENDBRANCH  12  13
BRANCH  12  18
ATOM     18  C   UNL     1       7.089   6.663  23.375  0.00  0.00    +0.015 C 
ATOM     19  C   UNL     1       7.403   6.398  21.900  0.00  0.00    +0.010 C 
BRANCH  18  20
ATOM     20  C   UNL     1       8.364   6.856  24.221  0.00  0.00    +0.002 C 
ATOM     21  C   UNL     1       9.625   6.377  23.511  0.00  0.00    +0.004 C 
ENDBRANCH  18  20
ENDBRANCH  12  18
ENDBRANCH   9  12
ENDBRANCH   7   8
BRANCH   7  22
ATOM     22  O   UNL     1       9.034   2.648  24.884  0.00  0.00    -0.360 OA
BRANCH  22  23
ATOM     23  C   UNL     1       9.979   2.409  23.845  0.00  0.00    +0.196 C 
BRANCH  23  24
ATOM     24  C   UNL     1       9.917   1.039  23.221  0.00  0.00    -0.022 A 
ATOM     25  C   UNL     1      10.279  -0.045  24.041  0.00  0.00    +0.006 A 
ATOM     26  C   UNL     1      10.216  -1.353  23.571  0.00  0.00    +0.000 A 
ATOM     27  C   UNL     1       9.810  -1.595  22.264  0.00  0.00    +0.000 A 
ATOM     28  C   UNL     1       9.501  -0.525  21.421  0.00  0.00    +0.000 A 
ATOM     29  C   UNL     1       9.560   0.790  21.893  0.00  0.00    +0.006 A 
ENDBRANCH  23  24
ENDBRANCH  22  23
ENDBRANCH   7  22
ENDBRANCH   4   7
ENDBRANCH   1   4
BRANCH   1  30
ATOM     30  C   UNL     1       6.738  -0.939  24.928  0.00  0.00    +0.235 C 
BRANCH  30  33
ATOM     31  N   UNL     1       6.523  -3.037  26.200  0.00  0.00    -0.302 N 
ATOM     32  H   UNL     1       5.623  -3.063  25.729  0.00  0.00    +0.150 HD
ATOM     33  C   UNL     1       7.279  -1.903  26.017  0.00  0.00    +0.245 C 
ATOM     34  O   UNL     1       8.319  -1.716  26.634  0.00  0.00    -0.273 OA
BRANCH  31  35
ATOM     35  C   UNL     1       6.901  -4.117  27.133  0.00  0.00    +0.162 C 
BRANCH  35  36
ATOM     36  C   UNL     1       5.812  -4.327  28.219  0.00  0.00    +0.233 C 
ATOM     37  N   UNL     1       4.628  -3.650  28.011  0.00  0.00    -0.317 N 
ATOM     38  H   UNL     1       4.651  -2.872  27.364  0.00  0.00    +0.148 HD
ATOM     39  C   UNL     1       3.532  -3.744  28.945  0.00  0.00    +0.128 C 
ATOM     40  O   UNL     1       5.942  -5.162  29.115  0.00  0.00    -0.274 OA
ENDBRANCH  35  36
BRANCH  35  41
ATOM     41  C   UNL     1       7.179  -5.415  26.327  0.00  0.00    +0.015 C 
ATOM     42  C   UNL     1       5.853  -6.014  25.830  0.00  0.00    +0.010 C 
BRANCH  41  44
ATOM     43  C   UNL     1       9.602  -4.909  25.537  0.00  0.00    +0.004 C 
ATOM     44  C   UNL     1       8.173  -5.265  25.152  0.00  0.00    +0.002 C 
ENDBRANCH  41  44
ENDBRANCH  35  41
ENDBRANCH  31  35
ENDBRANCH  30  33
BRANCH  30  45
ATOM     45  O   UNL     1       5.837  -1.784  24.158  0.00  0.00    -0.360 OA
BRANCH  45  46
ATOM     46  C   UNL     1       6.262  -2.023  22.815  0.00  0.00    +0.196 C 
BRANCH  46  47
ATOM     47  C   UNL     1       6.126  -3.481  22.457  0.00  0.00    -0.022 A 
ATOM     48  C   UNL     1       4.953  -4.171  22.802  0.00  0.00    +0.006 A 
ATOM     49  C   UNL     1       4.853  -5.544  22.583  0.00  0.00    +0.000 A 
ATOM     50  C   UNL     1       5.922  -6.240  22.024  0.00  0.00    +0.000 A 
ATOM     51  C   UNL     1       7.098  -5.568  21.696  0.00  0.00    +0.000 A 
ATOM     52  C   UNL     1       7.202  -4.197  21.920  0.00  0.00    +0.006 A 
ENDBRANCH  46  47
ENDBRANCH  45  46
ENDBRANCH  30  45
ENDBRANCH   1  30
TORSDOF 21
ENDMDL
MODEL 5
REMARK VINA RESULT:      -6.2      2.376      8.835
REMARK  Name = 
REMARK  27 active torsions:
REMARK  status: ('A' for Active; 'I' for Inactive)
REMARK    1  A    between atoms: C_1  and  C_2
REMARK    2  A    between atoms: C_2  and  C_3
REMARK    3  A    between atoms: C_3  and  C_5
REMARK    4  A    between atoms: C_3  and  C_6
REMARK    5  A    between atoms: C_6  and  N_8
REMARK    6  A    between atoms: C_6  and  C_51
REMARK    7  A    between atoms: C_9  and  C_11
REMARK    8  A    between atoms: C_11  and  O_13
REMARK    9  A    between atoms: C_11  and  C_21
REMARK   10  A    between atoms: O_13  and  C_14
REMARK   11  A    between atoms: C_14  and  C_15
REMARK   12  A    between atoms: C_21  and  O_23
REMARK   13  A    between atoms: C_21  and  C_24
REMARK   14  A    between atoms: C_24  and  O_26
REMARK   15  A    between atoms: C_24  and  C_27
REMARK   16  A    between atoms: C_27  and  O_29
REMARK   17  A    between atoms: C_27  and  C_37
REMARK   18  A    between atoms: O_29  and  C_30
REMARK   19  A    between atoms: C_30  and  C_31
REMARK   20  A    between atoms: N_39  and  C_40
REMARK   21  A    between atoms: C_40  and  C_42
REMARK   22  A    between atoms: C_40  and  C_47
REMARK   23  A    between atoms: C_42  and  C_44
REMARK   24  A    between atoms: C_42  and  C_45
REMARK   25  A    between atoms: C_45  and  C_46
REMARK   26  A    between atoms: N_49  and  C_50
REMARK   27  A    between atoms: N_53  and  C_54
REMARK                            x       y       z     vdW  Elec       q    Type
REMARK                         _______ _______ _______ _____ _____    ______ ____
ROOT
ATOM      1  C   UNL     1       9.336   1.453  22.205  0.00  0.00    +0.184 C 
ENDROOT
BRANCH   1   2
ATOM      2  O   UNL     1       8.740   1.171  20.920  0.00  0.00    -0.386 OA
ATOM      3  H   UNL     1       9.218   0.397  20.546  0.00  0.00    +0.210 HD
ENDBRANCH   1   2
BRANCH   1   4
ATOM      4  C   UNL     1       9.906   0.104  22.733  0.00  0.00    +0.184 C 
BRANCH   4   5
ATOM      5  O   UNL     1      11.206   0.257  23.321  0.00  0.00    -0.386 OA
ATOM      6  H   UNL     1      11.085   0.396  24.277  0.00  0.00    +0.210 HD
ENDBRANCH   4   5
BRANCH   4   7
ATOM      7  C   UNL     1       8.960  -0.643  23.728  0.00  0.00    +0.235 C 
BRANCH   7   8
ATOM      8  C   UNL     1       9.101  -2.175  23.648  0.00  0.00    +0.245 C 
ATOM      9  N   UNL     1       7.940  -2.917  23.647  0.00  0.00    -0.302 N 
ATOM     10  H   UNL     1       7.025  -2.475  23.647  0.00  0.00    +0.150 HD
ATOM     11  O   UNL     1      10.210  -2.719  23.590  0.00  0.00    -0.273 OA
BRANCH   9  12
ATOM     12  C   UNL     1       7.988  -4.382  23.618  0.00  0.00    +0.162 C 
BRANCH  12  13
ATOM     13  C   UNL     1       8.238  -4.925  25.047  0.00  0.00    +0.233 C 
ATOM     14  N   UNL     1       7.179  -4.743  25.918  0.00  0.00    -0.317 N 
ATOM     15  H   UNL     1       6.290  -4.448  25.534  0.00  0.00    +0.148 HD
ATOM     16  C   UNL     1       7.155  -5.353  27.227  0.00  0.00    +0.128 C 
ATOM     17  O   UNL     1       9.288  -5.478  25.367  0.00  0.00    -0.274 OA
ENDBRANCH  12  13
BRANCH  12  18
ATOM     18  C   UNL     1       6.751  -4.973  22.887  0.00  0.00    +0.015 C 
ATOM     19  C   UNL     1       7.103  -5.719  21.598  0.00  0.00    +0.010 C 
BRANCH  18  20
ATOM     20  C   UNL     1       5.659  -3.905  22.669  0.00  0.00    +0.002 C 
ATOM     21  C   UNL     1       4.353  -4.238  23.383  0.00  0.00    +0.004 C 
ENDBRANCH  18  20
ENDBRANCH  12  18
ENDBRANCH   9  12
ENDBRANCH   7   8
BRANCH   7  22
ATOM     22  O   UNL     1       9.195  -0.282  25.110  0.00  0.00    -0.360 OA
BRANCH  22  23
ATOM     23  C   UNL     1       8.301  -0.940  26.004  0.00  0.00    +0.196 C 
BRANCH  23  24
ATOM     24  C   UNL     1       7.093  -0.139  26.412  0.00  0.00    -0.022 A 
ATOM     25  C   UNL     1       7.166   0.529  27.647  0.00  0.00    +0.006 A 
ATOM     26  C   UNL     1       6.119   1.328  28.095  0.00  0.00    +0.000 A 
ATOM     27  C   UNL     1       4.971   1.453  27.322  0.00  0.00    +0.000 A 
ATOM     28  C   UNL     1       4.860   0.752  26.119  0.00  0.00    +0.000 A 
ATOM     29  C   UNL     1       5.914  -0.049  25.666  0.00  0.00    +0.006 A 
ENDBRANCH  23  24
ENDBRANCH  22  23
ENDBRANCH   7  22
ENDBRANCH   4   7
ENDBRANCH   1   4
BRANCH   1  30
ATOM     30  C   UNL     1       8.239   2.136  23.077  0.00  0.00    +0.235 C 
BRANCH  30  33
ATOM     31  N   UNL     1       9.357   4.297  23.460  0.00  0.00    -0.302 N 
ATOM     32  H   UNL     1       9.497   4.240  22.455  0.00  0.00    +0.150 HD
ATOM     33  C   UNL     1       8.790   3.199  24.064  0.00  0.00    +0.245 C 
ATOM     34  O   UNL     1       8.690   3.113  25.281  0.00  0.00    -0.273 OA
BRANCH  31  35
ATOM     35  C   UNL     1       9.874   5.456  24.214  0.00  0.00    +0.162 C 
BRANCH  35  36
ATOM     36  C   UNL     1      11.360   5.734  23.866  0.00  0.00    +0.233 C 
ATOM     37  N   UNL     1      11.775   5.283  22.631  0.00  0.00    -0.317 N 
ATOM     38  H   UNL     1      11.203   4.577  22.183  0.00  0.00    +0.148 HD
ATOM     39  C   UNL     1      13.133   5.464  22.179  0.00  0.00    +0.128 C 
ATOM     40  O   UNL     1      12.071   6.447  24.576  0.00  0.00    -0.274 OA
ENDBRANCH  35  36
BRANCH  35  41
ATOM     41  C   UNL     1       8.970   6.688  23.942  0.00  0.00    +0.015 C 
ATOM     42  C   UNL     1       8.139   6.454  22.669  0.00  0.00    +0.010 C 
BRANCH  41  44
ATOM     43  C   UNL     1       8.286   6.383  26.430  0.00  0.00    +0.004 C 
ATOM     44  C   UNL     1       8.051   7.108  25.112  0.00  0.00    +0.002 C 
ENDBRANCH  41  44
ENDBRANCH  35  41
ENDBRANCH  31  35
ENDBRANCH  30  33
BRANCH  30  45
ATOM     45  O   UNL     1       7.265   2.885  22.296  0.00  0.00    -0.360 OA
BRANCH  45  46
ATOM     46  C   UNL     1       5.907   2.651  22.672  0.00  0.00    +0.196 C 
BRANCH  46  47
ATOM     47  C   UNL     1       5.315   3.866  23.339  0.00  0.00    -0.022 A 
ATOM     48  C   UNL     1       4.825   4.919  22.550  0.00  0.00    +0.006 A 
ATOM     49  C   UNL     1       4.378   6.097  23.146  0.00  0.00    +0.000 A 
ATOM     50  C   UNL     1       4.422   6.238  24.531  0.00  0.00    +0.000 A 
ATOM     51  C   UNL     1       4.925   5.206  25.322  0.00  0.00    +0.000 A 
ATOM     52  C   UNL     1       5.377   4.030  24.728  0.00  0.00    +0.006 A 
ENDBRANCH  46  47
ENDBRANCH  45  46
ENDBRANCH  30  45
ENDBRANCH   1  30
TORSDOF 21
ENDMDL
MODEL 6
REMARK VINA RESULT:      -6.2      1.700      2.754
REMARK  Name = 
REMARK  27 active torsions:
REMARK  status: ('A' for Active; 'I' for Inactive)
REMARK    1  A    between atoms: C_1  and  C_2
REMARK    2  A    between atoms: C_2  and  C_3
REMARK    3  A    between atoms: C_3  and  C_5
REMARK    4  A    between atoms: C_3  and  C_6
REMARK    5  A    between atoms: C_6  and  N_8
REMARK    6  A    between atoms: C_6  and  C_51
REMARK    7  A    between atoms: C_9  and  C_11
REMARK    8  A    between atoms: C_11  and  O_13
REMARK    9  A    between atoms: C_11  and  C_21
REMARK   10  A    between atoms: O_13  and  C_14
REMARK   11  A    between atoms: C_14  and  C_15
REMARK   12  A    between atoms: C_21  and  O_23
REMARK   13  A    between atoms: C_21  and  C_24
REMARK   14  A    between atoms: C_24  and  O_26
REMARK   15  A    between atoms: C_24  and  C_27
REMARK   16  A    between atoms: C_27  and  O_29
REMARK   17  A    between atoms: C_27  and  C_37
REMARK   18  A    between atoms: O_29  and  C_30
REMARK   19  A    between atoms: C_30  and  C_31
REMARK   20  A    between atoms: N_39  and  C_40
REMARK   21  A    between atoms: C_40  and  C_42
REMARK   22  A    between atoms: C_40  and  C_47
REMARK   23  A    between atoms: C_42  and  C_44
REMARK   24  A    between atoms: C_42  and  C_45
REMARK   25  A    between atoms: C_45  and  C_46
REMARK   26  A    between atoms: N_49  and  C_50
REMARK   27  A    between atoms: N_53  and  C_54
REMARK                            x       y       z     vdW  Elec       q    Type
REMARK                         _______ _______ _______ _____ _____    ______ ____
ROOT
ATOM      1  C   UNL     1       7.385  -1.115  25.596  0.00  0.00    +0.184 C 
ENDROOT
BRANCH   1   2
ATOM      2  O   UNL     1       6.910  -1.585  26.875  0.00  0.00    -0.386 OA
ATOM      3  H   UNL     1       7.412  -2.405  27.084  0.00  0.00    +0.210 HD
ENDBRANCH   1   2
BRANCH   1   4
ATOM      4  C   UNL     1       6.120  -0.843  24.729  0.00  0.00    +0.184 C 
BRANCH   4   5
ATOM      5  O   UNL     1       4.968  -1.550  25.213  0.00  0.00    -0.386 OA
ATOM      6  H   UNL     1       5.267  -2.169  25.902  0.00  0.00    +0.210 HD
ENDBRANCH   4   5
BRANCH   4   7
ATOM      7  C   UNL     1       5.777   0.672  24.558  0.00  0.00    +0.235 C 
BRANCH   7   8
ATOM      8  C   UNL     1       4.965   1.235  25.740  0.00  0.00    +0.245 C 
ATOM      9  N   UNL     1       5.474   1.042  27.006  0.00  0.00    -0.302 N 
ATOM     10  H   UNL     1       6.373   0.593  27.155  0.00  0.00    +0.150 HD
ATOM     11  O   UNL     1       3.898   1.835  25.562  0.00  0.00    -0.273 OA
BRANCH   9  12
ATOM     12  C   UNL     1       4.742   1.509  28.186  0.00  0.00    +0.162 C 
BRANCH  12  13
ATOM     13  C   UNL     1       3.965   0.327  28.820  0.00  0.00    +0.233 C 
ATOM     14  N   UNL     1       4.364  -0.920  28.375  0.00  0.00    -0.317 N 
ATOM     15  H   UNL     1       5.216  -0.983  27.832  0.00  0.00    +0.148 HD
ATOM     16  C   UNL     1       3.890  -2.137  28.992  0.00  0.00    +0.128 C 
ATOM     17  O   UNL     1       3.077   0.496  29.653  0.00  0.00    -0.274 OA
ENDBRANCH  12  13
BRANCH  12  18
ATOM     18  C   UNL     1       5.671   2.290  29.155  0.00  0.00    +0.015 C 
ATOM     19  C   UNL     1       6.707   3.160  28.439  0.00  0.00    +0.010 C 
BRANCH  18  20
ATOM     20  C   UNL     1       6.312   1.356  30.202  0.00  0.00    +0.002 C 
ATOM     21  C   UNL     1       7.837   1.390  30.171  0.00  0.00    +0.004 C 
ENDBRANCH  18  20
ENDBRANCH  12  18
ENDBRANCH   9  12
ENDBRANCH   7   8
BRANCH   7  22
ATOM     22  O   UNL     1       6.953   1.508  24.435  0.00  0.00    -0.360 OA
BRANCH  22  23
ATOM     23  C   UNL     1       6.793   2.531  23.456  0.00  0.00    +0.196 C 
BRANCH  23  24
ATOM     24  C   UNL     1       7.512   3.822  23.751  0.00  0.00    -0.022 A 
ATOM     25  C   UNL     1       7.971   4.001  25.067  0.00  0.00    +0.006 A 
ATOM     26  C   UNL     1       8.682   5.141  25.430  0.00  0.00    +0.000 A 
ATOM     27  C   UNL     1       8.924   6.130  24.484  0.00  0.00    +0.000 A 
ATOM     28  C   UNL     1       8.425   5.992  23.187  0.00  0.00    +0.000 A 
ATOM     29  C   UNL     1       7.714   4.844  22.820  0.00  0.00    +0.006 A 
ENDBRANCH  23  24
ENDBRANCH  22  23
ENDBRANCH   7  22
ENDBRANCH   4   7
ENDBRANCH   1   4
BRANCH   1  30
ATOM     30  C   UNL     1       8.383  -2.184  25.057  0.00  0.00    +0.235 C 
BRANCH  30  33
ATOM     31  N   UNL     1       6.736  -3.989  24.737  0.00  0.00    -0.302 N 
ATOM     32  H   UNL     1       6.194  -3.227  24.338  0.00  0.00    +0.150 HD
ATOM     33  C   UNL     1       7.938  -3.649  25.315  0.00  0.00    +0.245 C 
ATOM     34  O   UNL     1       8.609  -4.465  25.932  0.00  0.00    -0.273 OA
BRANCH  31  35
ATOM     35  C   UNL     1       6.168  -5.350  24.798  0.00  0.00    +0.162 C 
BRANCH  35  36
ATOM     36  C   UNL     1       5.336  -5.553  26.092  0.00  0.00    +0.233 C 
ATOM     37  N   UNL     1       5.769  -6.566  26.922  0.00  0.00    -0.317 N 
ATOM     38  H   UNL     1       6.379  -7.265  26.517  0.00  0.00    +0.148 HD
ATOM     39  C   UNL     1       5.085  -6.874  28.155  0.00  0.00    +0.128 C 
ATOM     40  O   UNL     1       4.453  -4.763  26.426  0.00  0.00    -0.274 OA
ENDBRANCH  35  36
BRANCH  35  41
ATOM     41  C   UNL     1       5.330  -5.611  23.518  0.00  0.00    +0.015 C 
ATOM     42  C   UNL     1       4.772  -4.283  22.979  0.00  0.00    +0.010 C 
BRANCH  41  44
ATOM     43  C   UNL     1       6.358  -5.582  21.132  0.00  0.00    +0.004 C 
ATOM     44  C   UNL     1       6.060  -6.381  22.393  0.00  0.00    +0.002 C 
ENDBRANCH  41  44
ENDBRANCH  35  41
ENDBRANCH  31  35
ENDBRANCH  30  33
BRANCH  30  45
ATOM     45  O   UNL     1       8.551  -2.141  23.612  0.00  0.00    -0.360 OA
BRANCH  45  46
ATOM     46  C   UNL     1       9.867  -1.785  23.185  0.00  0.00    +0.196 C 
BRANCH  46  47
ATOM     47  C   UNL     1      10.026  -0.289  23.114  0.00  0.00    -0.022 A 
ATOM     48  C   UNL     1       9.715   0.385  21.921  0.00  0.00    +0.006 A 
ATOM     49  C   UNL     1       9.963   1.750  21.798  0.00  0.00    +0.000 A 
ATOM     50  C   UNL     1      10.527   2.455  22.858  0.00  0.00    +0.000 A 
ATOM     51  C   UNL     1      10.858   1.792  24.039  0.00  0.00    +0.000 A 
ATOM     52  C   UNL     1      10.617   0.426  24.162  0.00  0.00    +0.006 A 
ENDBRANCH  46  47
ENDBRANCH  45  46
ENDBRANCH  30  45
ENDBRANCH   1  30
TORSDOF 21
ENDMDL
MODEL 7
REMARK VINA RESULT:      -6.1      2.177      8.346
REMARK  Name = 
REMARK  27 active torsions:
REMARK  status: ('A' for Active; 'I' for Inactive)
REMARK    1  A    between atoms: C_1  and  C_2
REMARK    2  A    between atoms: C_2  and  C_3
REMARK    3  A    between atoms: C_3  and  C_5
REMARK    4  A    between atoms: C_3  and  C_6
REMARK    5  A    between atoms: C_6  and  N_8
REMARK    6  A    between atoms: C_6  and  C_51
REMARK    7  A    between atoms: C_9  and  C_11
REMARK    8  A    between atoms: C_11  and  O_13
REMARK    9  A    between atoms: C_11  and  C_21
REMARK   10  A    between atoms: O_13  and  C_14
REMARK   11  A    between atoms: C_14  and  C_15
REMARK   12  A    between atoms: C_21  and  O_23
REMARK   13  A    between atoms: C_21  and  C_24
REMARK   14  A    between atoms: C_24  and  O_26
REMARK   15  A    between atoms: C_24  and  C_27
REMARK   16  A    between atoms: C_27  and  O_29
REMARK   17  A    between atoms: C_27  and  C_37
REMARK   18  A    between atoms: O_29  and  C_30
REMARK   19  A    between atoms: C_30  and  C_31
REMARK   20  A    between atoms: N_39  and  C_40
REMARK   21  A    between atoms: C_40  and  C_42
REMARK   22  A    between atoms: C_40  and  C_47
REMARK   23  A    between atoms: C_42  and  C_44
REMARK   24  A    between atoms: C_42  and  C_45
REMARK   25  A    between atoms: C_45  and  C_46
REMARK   26  A    between atoms: N_49  and  C_50
REMARK   27  A    between atoms: N_53  and  C_54
REMARK                            x       y       z     vdW  Elec       q    Type
REMARK                         _______ _______ _______ _____ _____    ______ ____
ROOT
ATOM      1  C   UNL     1       6.318  -0.696  27.064  0.00  0.00    +0.184 C 
ENDROOT
BRANCH   1   2
ATOM      2  O   UNL     1       7.006  -1.918  26.725  0.00  0.00    -0.386 OA
ATOM      3  H   UNL     1       7.091  -2.440  27.554  0.00  0.00    +0.210 HD
ENDBRANCH   1   2
BRANCH   1   4
ATOM      4  C   UNL     1       4.975  -0.712  26.278  0.00  0.00    +0.184 C 
BRANCH   4   5
ATOM      5  O   UNL     1       5.171  -0.934  24.873  0.00  0.00    -0.386 OA
ATOM      6  H   UNL     1       4.444  -1.499  24.557  0.00  0.00    +0.210 HD
ENDBRANCH   4   5
BRANCH   4   7
ATOM      7  C   UNL     1       3.924  -1.728  26.831  0.00  0.00    +0.235 C 
BRANCH   7   8
ATOM      8  C   UNL     1       3.631  -2.877  25.847  0.00  0.00    +0.245 C 
ATOM      9  N   UNL     1       4.635  -3.798  25.635  0.00  0.00    -0.302 N 
ATOM     10  H   UNL     1       5.514  -3.754  26.142  0.00  0.00    +0.150 HD
ATOM     11  O   UNL     1       2.542  -2.971  25.269  0.00  0.00    -0.273 OA
BRANCH   9  12
ATOM     12  C   UNL     1       4.454  -4.896  24.681  0.00  0.00    +0.162 C 
BRANCH  12  13
ATOM     13  C   UNL     1       5.108  -4.526  23.326  0.00  0.00    +0.233 C 
ATOM     14  N   UNL     1       5.650  -5.600  22.645  0.00  0.00    -0.317 N 
ATOM     15  H   UNL     1       5.432  -6.533  22.972  0.00  0.00    +0.148 HD
ATOM     16  C   UNL     1       6.126  -5.479  21.286  0.00  0.00    +0.128 C 
ATOM     17  O   UNL     1       5.130  -3.373  22.900  0.00  0.00    -0.274 OA
ENDBRANCH  12  13
BRANCH  12  18
ATOM     18  C   UNL     1       4.904  -6.252  25.290  0.00  0.00    +0.015 C 
ATOM     19  C   UNL     1       3.809  -7.322  25.275  0.00  0.00    +0.010 C 
BRANCH  18  20
ATOM     20  C   UNL     1       5.524  -6.067  26.690  0.00  0.00    +0.002 C 
ATOM     21  C   UNL     1       7.001  -5.693  26.640  0.00  0.00    +0.004 C 
ENDBRANCH  18  20
ENDBRANCH  12  18
ENDBRANCH   9  12
ENDBRANCH   7   8
BRANCH   7  22
ATOM     22  O   UNL     1       4.336  -2.348  28.073  0.00  0.00    -0.360 OA
BRANCH  22  23
ATOM     23  C   UNL     1       3.234  -2.876  28.808  0.00  0.00    +0.196 C 
BRANCH  23  24
ATOM     24  C   UNL     1       3.321  -4.345  29.130  0.00  0.00    -0.022 A 
ATOM     25  C   UNL     1       2.383  -5.185  28.505  0.00  0.00    +0.006 A 
ATOM     26  C   UNL     1       2.406  -6.561  28.705  0.00  0.00    +0.000 A 
ATOM     27  C   UNL     1       3.355  -7.117  29.554  0.00  0.00    +0.000 A 
ATOM     28  C   UNL     1       4.258  -6.290  30.227  0.00  0.00    +0.000 A 
ATOM     29  C   UNL     1       4.239  -4.906  30.023  0.00  0.00    +0.006 A 
ENDBRANCH  23  24
ENDBRANCH  22  23
ENDBRANCH   7  22
ENDBRANCH   4   7
ENDBRANCH   1   4
BRANCH   1  30
ATOM     30  C   UNL     1       7.294   0.479  26.754  0.00  0.00    +0.235 C 
BRANCH  30  33
ATOM     31  N   UNL     1       8.325   0.003  24.568  0.00  0.00    -0.302 N 
ATOM     32  H   UNL     1       7.361   0.083  24.257  0.00  0.00    +0.150 HD
ATOM     33  C   UNL     1       8.539   0.063  25.925  0.00  0.00    +0.245 C 
ATOM     34  O   UNL     1       9.641  -0.146  26.413  0.00  0.00    -0.273 OA
BRANCH  31  35
ATOM     35  C   UNL     1       9.393  -0.301  23.595  0.00  0.00    +0.162 C 
BRANCH  35  36
ATOM     36  C   UNL     1       9.571  -1.832  23.417  0.00  0.00    +0.233 C 
ATOM     37  N   UNL     1       8.585  -2.614  23.981  0.00  0.00    -0.317 N 
ATOM     38  H   UNL     1       8.005  -2.182  24.690  0.00  0.00    +0.148 HD
ATOM     39  C   UNL     1       8.627  -4.054  23.902  0.00  0.00    +0.128 C 
ATOM     40  O   UNL     1      10.445  -2.303  22.688  0.00  0.00    -0.274 OA
ENDBRANCH  35  36
BRANCH  35  41
ATOM     41  C   UNL     1       9.079   0.411  22.252  0.00  0.00    +0.015 C 
ATOM     42  C   UNL     1       7.583   0.761  22.185  0.00  0.00    +0.010 C 
BRANCH  41  44
ATOM     43  C   UNL     1      10.443   2.426  23.161  0.00  0.00    +0.004 C 
ATOM     44  C   UNL     1       9.936   1.661  21.947  0.00  0.00    +0.002 C 
ENDBRANCH  41  44
ENDBRANCH  35  41
ENDBRANCH  31  35
ENDBRANCH  30  33
BRANCH  30  45
ATOM     45  O   UNL     1       6.694   1.528  25.942  0.00  0.00    -0.360 OA
BRANCH  45  46
ATOM     46  C   UNL     1       7.013   2.855  26.369  0.00  0.00    +0.196 C 
BRANCH  46  47
ATOM     47  C   UNL     1       7.477   3.698  25.209  0.00  0.00    -0.022 A 
ATOM     48  C   UNL     1       8.451   4.686  25.420  0.00  0.00    +0.006 A 
ATOM     49  C   UNL     1       8.812   5.551  24.388  0.00  0.00    +0.000 A 
ATOM     50  C   UNL     1       8.200   5.442  23.141  0.00  0.00    +0.000 A 
ATOM     51  C   UNL     1       7.217   4.477  22.928  0.00  0.00    +0.000 A 
ATOM     52  C   UNL     1       6.852   3.615  23.960  0.00  0.00    +0.006 A 
ENDBRANCH  46  47
ENDBRANCH  45  46
ENDBRANCH  30  45
ENDBRANCH   1  30
TORSDOF 21
ENDMDL
MODEL 8
REMARK VINA RESULT:      -6.0      2.088      8.671
REMARK  Name = 
REMARK  27 active torsions:
REMARK  status: ('A' for Active; 'I' for Inactive)
REMARK    1  A    between atoms: C_1  and  C_2
REMARK    2  A    between atoms: C_2  and  C_3
REMARK    3  A    between atoms: C_3  and  C_5
REMARK    4  A    between atoms: C_3  and  C_6
REMARK    5  A    between atoms: C_6  and  N_8
REMARK    6  A    between atoms: C_6  and  C_51
REMARK    7  A    between atoms: C_9  and  C_11
REMARK    8  A    between atoms: C_11  and  O_13
REMARK    9  A    between atoms: C_11  and  C_21
REMARK   10  A    between atoms: O_13  and  C_14
REMARK   11  A    between atoms: C_14  and  C_15
REMARK   12  A    between atoms: C_21  and  O_23
REMARK   13  A    between atoms: C_21  and  C_24
REMARK   14  A    between atoms: C_24  and  O_26
REMARK   15  A    between atoms: C_24  and  C_27
REMARK   16  A    between atoms: C_27  and  O_29
REMARK   17  A    between atoms: C_27  and  C_37
REMARK   18  A    between atoms: O_29  and  C_30
REMARK   19  A    between atoms: C_30  and  C_31
REMARK   20  A    between atoms: N_39  and  C_40
REMARK   21  A    between atoms: C_40  and  C_42
REMARK   22  A    between atoms: C_40  and  C_47
REMARK   23  A    between atoms: C_42  and  C_44
REMARK   24  A    between atoms: C_42  and  C_45
REMARK   25  A    between atoms: C_45  and  C_46
REMARK   26  A    between atoms: N_49  and  C_50
REMARK   27  A    between atoms: N_53  and  C_54
REMARK                            x       y       z     vdW  Elec       q    Type
REMARK                         _______ _______ _______ _____ _____    ______ ____
ROOT
ATOM      1  C   UNL     1       6.913  -0.541  24.300  0.00  0.00    +0.184 C 
ENDROOT
BRANCH   1   2
ATOM      2  O   UNL     1       5.795  -1.367  23.914  0.00  0.00    -0.386 OA
ATOM      3  H   UNL     1       5.504  -1.061  23.026  0.00  0.00    +0.210 HD
ENDBRANCH   1   2
BRANCH   1   4
ATOM      4  C   UNL     1       7.741  -1.368  25.326  0.00  0.00    +0.184 C 
BRANCH   4   5
ATOM      5  O   UNL     1       6.913  -1.973  26.330  0.00  0.00    -0.386 OA
ATOM      6  H   UNL     1       6.414  -1.263  26.771  0.00  0.00    +0.210 HD
ENDBRANCH   4   5
BRANCH   4   7
ATOM      7  C   UNL     1       8.661  -2.452  24.677  0.00  0.00    +0.235 C 
BRANCH   7   8
ATOM      8  C   UNL     1       8.129  -3.884  24.880  0.00  0.00    +0.245 C 
ATOM      9  N   UNL     1       6.817  -4.125  24.534  0.00  0.00    -0.302 N 
ATOM     10  H   UNL     1       6.236  -3.405  24.115  0.00  0.00    +0.150 HD
ATOM     11  O   UNL     1       8.847  -4.781  25.337  0.00  0.00    -0.273 OA
BRANCH   9  12
ATOM     12  C   UNL     1       6.220  -5.448  24.737  0.00  0.00    +0.162 C 
BRANCH  12  13
ATOM     13  C   UNL     1       5.479  -5.485  26.097  0.00  0.00    +0.233 C 
ATOM     14  N   UNL     1       5.392  -6.744  26.663  0.00  0.00    -0.317 N 
ATOM     15  H   UNL     1       5.948  -7.488  26.262  0.00  0.00    +0.148 HD
ATOM     16  C   UNL     1       4.911  -6.942  28.011  0.00  0.00    +0.128 C 
ATOM     17  O   UNL     1       5.019  -4.473  26.623  0.00  0.00    -0.274 OA
ENDBRANCH  12  13
BRANCH  12  18
ATOM     18  C   UNL     1       5.376  -5.882  23.507  0.00  0.00    +0.015 C 
ATOM     19  C   UNL     1       6.213  -6.127  22.248  0.00  0.00    +0.010 C 
BRANCH  18  20
ATOM     20  C   UNL     1       4.205  -4.910  23.253  0.00  0.00    +0.002 C 
ATOM     21  C   UNL     1       2.845  -5.600  23.285  0.00  0.00    +0.004 C 
ENDBRANCH  18  20
ENDBRANCH  12  18
ENDBRANCH   9  12
ENDBRANCH   7   8
BRANCH   7  22
ATOM     22  O   UNL     1       8.824  -2.275  23.249  0.00  0.00    -0.360 OA
BRANCH  22  23
ATOM     23  C   UNL     1      10.091  -1.716  22.912  0.00  0.00    +0.196 C 
BRANCH  23  24
ATOM     24  C   UNL     1      10.135  -0.212  22.851  0.00  0.00    -0.022 A 
ATOM     25  C   UNL     1      10.656   0.450  23.977  0.00  0.00    +0.006 A 
ATOM     26  C   UNL     1      10.776   1.836  24.003  0.00  0.00    +0.000 A 
ATOM     27  C   UNL     1      10.355   2.583  22.909  0.00  0.00    +0.000 A 
ATOM     28  C   UNL     1       9.784   1.944  21.806  0.00  0.00    +0.000 A 
ATOM     29  C   UNL     1       9.666   0.550  21.777  0.00  0.00    +0.006 A 
ENDBRANCH  23  24
ENDBRANCH  22  23
ENDBRANCH   7  22
ENDBRANCH   4   7
ENDBRANCH   1   4
BRANCH   1  30
ATOM     30  C   UNL     1       6.328   0.813  24.806  0.00  0.00    +0.235 C 
BRANCH  30  33
ATOM     31  N   UNL     1       6.598   3.207  24.290  0.00  0.00    -0.302 N 
ATOM     32  H   UNL     1       6.542   3.284  25.302  0.00  0.00    +0.150 HD
ATOM     33  C   UNL     1       6.386   1.956  23.758  0.00  0.00    +0.245 C 
ATOM     34  O   UNL     1       6.308   1.776  22.550  0.00  0.00    -0.273 OA
BRANCH  31  35
ATOM     35  C   UNL     1       6.760   4.419  23.464  0.00  0.00    +0.162 C 
BRANCH  35  36
ATOM     36  C   UNL     1       5.394   5.108  23.205  0.00  0.00    +0.233 C 
ATOM     37  N   UNL     1       4.545   4.439  22.347  0.00  0.00    -0.317 N 
ATOM     38  H   UNL     1       4.958   3.740  21.743  0.00  0.00    +0.148 HD
ATOM     39  C   UNL     1       3.246   4.968  22.008  0.00  0.00    +0.128 C 
ATOM     40  O   UNL     1       5.034   6.097  23.844  0.00  0.00    -0.274 OA
ENDBRANCH  35  36
BRANCH  35  41
ATOM     41  C   UNL     1       7.774   5.373  24.149  0.00  0.00    +0.015 C 
ATOM     42  C   UNL     1       8.458   4.652  25.322  0.00  0.00    +0.010 C 
BRANCH  41  44
ATOM     43  C   UNL     1      10.210   6.216  23.825  0.00  0.00    +0.004 C 
ATOM     44  C   UNL     1       8.834   5.997  23.212  0.00  0.00    +0.002 C 
ENDBRANCH  41  44
ENDBRANCH  35  41
ENDBRANCH  31  35
ENDBRANCH  30  33
BRANCH  30  45
ATOM     45  O   UNL     1       4.912   0.741  25.136  0.00  0.00    -0.360 OA
BRANCH  45  46
ATOM     46  C   UNL     1       4.577   1.294  26.411  0.00  0.00    +0.196 C 
BRANCH  46  47
ATOM     47  C   UNL     1       3.617   0.400  27.152  0.00  0.00    -0.022 A 
ATOM     48  C   UNL     1       4.066  -0.831  27.656  0.00  0.00    +0.006 A 
ATOM     49  C   UNL     1       3.169  -1.721  28.244  0.00  0.00    +0.000 A 
ATOM     50  C   UNL     1       1.818  -1.394  28.329  0.00  0.00    +0.000 A 
ATOM     51  C   UNL     1       1.358  -0.183  27.813  0.00  0.00    +0.000 A 
ATOM     52  C   UNL     1       2.253   0.705  27.220  0.00  0.00    +0.006 A 
ENDBRANCH  46  47
ENDBRANCH  45  46
ENDBRANCH  30  45
ENDBRANCH   1  30
TORSDOF 21
ENDMDL
MODEL 9
REMARK VINA RESULT:      -5.8      2.179      8.265
REMARK  Name = 
REMARK  27 active torsions:
REMARK  status: ('A' for Active; 'I' for Inactive)
REMARK    1  A    between atoms: C_1  and  C_2
REMARK    2  A    between atoms: C_2  and  C_3
REMARK    3  A    between atoms: C_3  and  C_5
REMARK    4  A    between atoms: C_3  and  C_6
REMARK    5  A    between atoms: C_6  and  N_8
REMARK    6  A    between atoms: C_6  and  C_51
REMARK    7  A    between atoms: C_9  and  C_11
REMARK    8  A    between atoms: C_11  and  O_13
REMARK    9  A    between atoms: C_11  and  C_21
REMARK   10  A    between atoms: O_13  and  C_14
REMARK   11  A    between atoms: C_14  and  C_15
REMARK   12  A    between atoms: C_21  and  O_23
REMARK   13  A    between atoms: C_21  and  C_24
REMARK   14  A    between atoms: C_24  and  O_26
REMARK   15  A    between atoms: C_24  and  C_27
REMARK   16  A    between atoms: C_27  and  O_29
REMARK   17  A    between atoms: C_27  and  C_37
REMARK   18  A    between atoms: O_29  and  C_30
REMARK   19  A    between atoms: C_30  and  C_31
REMARK   20  A    between atoms: N_39  and  C_40
REMARK   21  A    between atoms: C_40  and  C_42
REMARK   22  A    between atoms: C_40  and  C_47
REMARK   23  A    between atoms: C_42  and  C_44
REMARK   24  A    between atoms: C_42  and  C_45
REMARK   25  A    between atoms: C_45  and  C_46
REMARK   26  A    between atoms: N_49  and  C_50
REMARK   27  A    between atoms: N_53  and  C_54
REMARK                            x       y       z     vdW  Elec       q    Type
REMARK                         _______ _______ _______ _____ _____    ______ ____
ROOT
ATOM      1  C   UNL     1       6.243  -0.439  27.413  0.00  0.00    +0.184 C 
ENDROOT
BRANCH   1   2
ATOM      2  O   UNL     1       6.851  -1.700  27.064  0.00  0.00    -0.386 OA
ATOM      3  H   UNL     1       6.572  -1.909  26.144  0.00  0.00    +0.210 HD
ENDBRANCH   1   2
BRANCH   1   4
ATOM      4  C   UNL     1       4.828  -0.436  26.764  0.00  0.00    +0.184 C 
BRANCH   4   5
ATOM      5  O   UNL     1       4.812   0.240  25.498  0.00  0.00    -0.386 OA
ATOM      6  H   UNL     1       4.886  -0.435  24.800  0.00  0.00    +0.210 HD
ENDBRANCH   4   5
BRANCH   4   7
ATOM      7  C   UNL     1       4.194  -1.856  26.612  0.00  0.00    +0.235 C 
BRANCH   7   8
ATOM      8  C   UNL     1       4.930  -2.730  25.580  0.00  0.00    +0.245 C 
ATOM      9  N   UNL     1       5.223  -4.027  25.943  0.00  0.00    -0.302 N 
ATOM     10  H   UNL     1       4.922  -4.411  26.835  0.00  0.00    +0.150 HD
ATOM     11  O   UNL     1       5.250  -2.288  24.470  0.00  0.00    -0.273 OA
BRANCH   9  12
ATOM     12  C   UNL     1       5.960  -4.911  25.036  0.00  0.00    +0.162 C 
BRANCH  12  13
ATOM     13  C   UNL     1       7.301  -5.331  25.690  0.00  0.00    +0.233 C 
ATOM     14  N   UNL     1       8.424  -4.961  24.974  0.00  0.00    -0.317 N 
ATOM     15  H   UNL     1       8.308  -4.314  24.204  0.00  0.00    +0.148 HD
ATOM     16  C   UNL     1       9.755  -5.095  25.519  0.00  0.00    +0.128 C 
ATOM     17  O   UNL     1       7.350  -5.935  26.760  0.00  0.00    -0.274 OA
ENDBRANCH  12  13
BRANCH  12  18
ATOM     18  C   UNL     1       5.068  -6.081  24.537  0.00  0.00    +0.015 C 
ATOM     19  C   UNL     1       4.524  -5.872  23.121  0.00  0.00    +0.010 C 
BRANCH  18  20
ATOM     20  C   UNL     1       3.954  -6.415  25.550  0.00  0.00    +0.002 C 
ATOM     21  C   UNL     1       3.173  -7.671  25.180  0.00  0.00    +0.004 C 
ENDBRANCH  18  20
ENDBRANCH  12  18
ENDBRANCH   9  12
ENDBRANCH   7   8
BRANCH   7  22
ATOM     22  O   UNL     1       4.184  -2.607  27.850  0.00  0.00    -0.360 OA
BRANCH  22  23
ATOM     23  C   UNL     1       2.863  -2.913  28.290  0.00  0.00    +0.196 C 
BRANCH  23  24
ATOM     24  C   UNL     1       2.548  -4.381  28.408  0.00  0.00    -0.022 A 
ATOM     25  C   UNL     1       3.516  -5.185  29.035  0.00  0.00    +0.006 A 
ATOM     26  C   UNL     1       3.302  -6.546  29.229  0.00  0.00    +0.000 A 
ATOM     27  C   UNL     1       2.123  -7.128  28.777  0.00  0.00    +0.000 A 
ATOM     28  C   UNL     1       1.176  -6.353  28.104  0.00  0.00    +0.000 A 
ATOM     29  C   UNL     1       1.389  -4.983  27.912  0.00  0.00    +0.006 A 
ENDBRANCH  23  24
ENDBRANCH  22  23
ENDBRANCH   7  22
ENDBRANCH   4   7
ENDBRANCH   1   4
BRANCH   1  30
ATOM     30  C   UNL     1       7.223   0.684  26.953  0.00  0.00    +0.235 C 
BRANCH  30  33
ATOM     31  N   UNL     1       7.619   0.163  24.578  0.00  0.00    -0.302 N 
ATOM     32  H   UNL     1       6.606   0.240  24.541  0.00  0.00    +0.150 HD
ATOM     33  C   UNL     1       8.195   0.248  25.824  0.00  0.00    +0.245 C 
ATOM     34  O   UNL     1       9.389   0.045  25.996  0.00  0.00    -0.273 OA
BRANCH  31  35
ATOM     35  C   UNL     1       8.381  -0.162  23.356  0.00  0.00    +0.162 C 
BRANCH  35  36
ATOM     36  C   UNL     1       8.381  -1.689  23.084  0.00  0.00    +0.233 C 
ATOM     37  N   UNL     1       7.332  -2.156  22.320  0.00  0.00    -0.317 N 
ATOM     38  H   UNL     1       6.517  -1.560  22.244  0.00  0.00    +0.148 HD
ATOM     39  C   UNL     1       7.199  -3.556  21.997  0.00  0.00    +0.128 C 
ATOM     40  O   UNL     1       9.335  -2.404  23.395  0.00  0.00    -0.274 OA
ENDBRANCH  35  36
BRANCH  35  41
ATOM     41  C   UNL     1       7.802   0.644  22.163  0.00  0.00    +0.015 C 
ATOM     42  C   UNL     1       6.635   1.521  22.643  0.00  0.00    +0.010 C 
BRANCH  41  44
ATOM     43  C   UNL     1      10.156   1.742  22.080  0.00  0.00    +0.004 C 
ATOM     44  C   UNL     1       8.827   1.497  21.379  0.00  0.00    +0.002 C 
ENDBRANCH  41  44
ENDBRANCH  35  41
ENDBRANCH  31  35
ENDBRANCH  30  33
BRANCH  30  45
ATOM     45  O   UNL     1       6.549   1.839  26.379  0.00  0.00    -0.360 OA
BRANCH  45  46
ATOM     46  C   UNL     1       7.215   3.082  26.611  0.00  0.00    +0.196 C 
BRANCH  46  47
ATOM     47  C   UNL     1       7.430   3.828  25.320  0.00  0.00    -0.022 A 
ATOM     48  C   UNL     1       8.728   3.948  24.798  0.00  0.00    +0.006 A 
ATOM     49  C   UNL     1       8.964   4.729  23.668  0.00  0.00    +0.000 A 
ATOM     50  C   UNL     1       7.911   5.400  23.053  0.00  0.00    +0.000 A 
ATOM     51  C   UNL     1       6.621   5.304  23.574  0.00  0.00    +0.000 A 
ATOM     52  C   UNL     1       6.385   4.529  24.707  0.00  0.00    +0.006 A 
ENDBRANCH  46  47
ENDBRANCH  45  46
ENDBRANCH  30  45
ENDBRANCH   1  30
TORSDOF 21
ENDMDL
