MODEL 1
REMARK VINA RESULT:      -5.6      0.000      0.000
REMARK  Name = 
REMARK  11 active torsions:
REMARK  status: ('A' for Active; 'I' for Inactive)
REMARK    1  A    between atoms: C_1  and  C_2
REMARK    2  A    between atoms: C_4  and  O_5
REMARK    3  A    between atoms: O_5  and  C_6
REMARK    4  A    between atoms: C_6  and  C_7
REMARK    5  A    between atoms: C_7  and  O_8
REMARK    6  A    between atoms: C_7  and  C_9
REMARK    7  A    between atoms: C_9  and  N_10
REMARK    8  A    between atoms: N_10  and  C_11
REMARK    9  A    between atoms: C_11  and  C_12
REMARK   10  A    between atoms: C_11  and  C_13
REMARK   11  A    between atoms: C_11  and  C_14
REMARK                            x       y       z     vdW  Elec       q    Type
REMARK                         _______ _______ _______ _____ _____    ______ ____
ROOT
ATOM      1  C   UNL     1       7.962  -4.855  24.175  0.00  0.00    +0.261 C 
ENDROOT
BRANCH   1   2
ATOM      2  O   UNL     1       8.774  -4.052  23.312  0.00  0.00    -0.488 OA
BRANCH   2   9
ATOM      3  C   UNL     1      10.482   0.337  24.903  0.00  0.00    +0.044 C 
ATOM      4  C   UNL     1       9.450  -0.507  24.214  0.00  0.00    -0.047 A 
ATOM      5  C   UNL     1       8.317   0.088  23.651  0.00  0.00    +0.005 A 
ATOM      6  C   UNL     1       7.368  -0.692  22.989  0.00  0.00    +0.024 A 
ATOM      7  C   UNL     1       7.550  -2.074  22.886  0.00  0.00    +0.083 A 
ATOM      8 CL   UNL     1       6.347  -2.990  22.043  0.00  0.00    -0.080 Cl
ATOM      9  C   UNL     1       8.678  -2.689  23.448  0.00  0.00    +0.139 A 
ATOM     10  C   UNL     1       9.620  -1.896  24.111  0.00  0.00    +0.050 A 
ENDBRANCH   2   9
ENDBRANCH   1   2
BRANCH   1  11
ATOM     11  C   UNL     1       8.848  -5.465  25.267  0.00  0.00    +0.166 C 
BRANCH  11  12
ATOM     12  O   UNL     1      10.226  -5.234  24.941  0.00  0.00    -0.387 OA
ATOM     13  H   UNL     1      10.738  -5.872  25.478  0.00  0.00    +0.210 HD
ENDBRANCH  11  12
BRANCH  11  14
ATOM     14  C   UNL     1       8.565  -4.888  26.670  0.00  0.00    +0.116 C 
BRANCH  14  15
ATOM     15  N   UNL     1       7.733  -5.778  27.489  0.00  0.00    -0.309 NA
ATOM     16  H   UNL     1       8.114  -5.807  28.436  0.00  0.00    +0.123 HD
BRANCH  15  17
ATOM     17  C   UNL     1       6.303  -5.417  27.562  0.00  0.00    +0.011 C 
ATOM     18  C   UNL     1       6.085  -3.917  27.308  0.00  0.00    +0.027 C 
ATOM     19  C   UNL     1       5.843  -5.739  29.000  0.00  0.00    +0.027 C 
ATOM     20  C   UNL     1       5.448  -6.251  26.594  0.00  0.00    +0.027 C 
ENDBRANCH  15  17
ENDBRANCH  14  15
ENDBRANCH  11  14
ENDBRANCH   1  11
TORSDOF 7
ENDMDL
MODEL 2
REMARK VINA RESULT:      -5.6      3.765      5.355
REMARK  Name = 
REMARK  11 active torsions:
REMARK  status: ('A' for Active; 'I' for Inactive)
REMARK    1  A    between atoms: C_1  and  C_2
REMARK    2  A    between atoms: C_4  and  O_5
REMARK    3  A    between atoms: O_5  and  C_6
REMARK    4  A    between atoms: C_6  and  C_7
REMARK    5  A    between atoms: C_7  and  O_8
REMARK    6  A    between atoms: C_7  and  C_9
REMARK    7  A    between atoms: C_9  and  N_10
REMARK    8  A    between atoms: N_10  and  C_11
REMARK    9  A    between atoms: C_11  and  C_12
REMARK   10  A    between atoms: C_11  and  C_13
REMARK   11  A    between atoms: C_11  and  C_14
REMARK                            x       y       z     vdW  Elec       q    Type
REMARK                         _______ _______ _______ _____ _____    ______ ____
ROOT
ATOM      1  C   UNL     1       9.527   0.653  22.325  0.00  0.00    +0.261 C 
ENDROOT
BRANCH   1   2
ATOM      2  O   UNL     1       9.861   1.216  23.598  0.00  0.00    -0.488 OA
BRANCH   2   9
ATOM      3  C   UNL     1      12.793   5.183  22.987  0.00  0.00    +0.044 C 
ATOM      4  C   UNL     1      11.489   4.553  23.382  0.00  0.00    -0.047 A 
ATOM      5  C   UNL     1      10.425   5.351  23.813  0.00  0.00    +0.005 A 
ATOM      6  C   UNL     1       9.204   4.769  24.157  0.00  0.00    +0.024 A 
ATOM      7  C   UNL     1       9.043   3.384  24.070  0.00  0.00    +0.083 A 
ATOM      8 CL   UNL     1       7.503   2.718  24.498  0.00  0.00    -0.080 Cl
ATOM      9  C   UNL     1      10.100   2.566  23.644  0.00  0.00    +0.139 A 
ATOM     10  C   UNL     1      11.318   3.163  23.304  0.00  0.00    +0.050 A 
ENDBRANCH   2   9
ENDBRANCH   1   2
BRANCH   1  11
ATOM     11  C   UNL     1       9.384  -0.866  22.475  0.00  0.00    +0.166 C 
BRANCH  11  12
ATOM     12  O   UNL     1      10.193  -1.517  21.485  0.00  0.00    -0.387 OA
ATOM     13  H   UNL     1       9.568  -1.977  20.889  0.00  0.00    +0.210 HD
ENDBRANCH  11  12
BRANCH  11  14
ATOM     14  C   UNL     1       9.795  -1.379  23.871  0.00  0.00    +0.116 C 
BRANCH  14  15
ATOM     15  N   UNL     1      10.075  -2.819  23.884  0.00  0.00    -0.309 NA
ATOM     16  H   UNL     1      10.985  -2.975  24.323  0.00  0.00    +0.123 HD
BRANCH  15  17
ATOM     17  C   UNL     1       9.068  -3.653  24.569  0.00  0.00    +0.011 C 
ATOM     18  C   UNL     1       7.943  -4.080  23.612  0.00  0.00    +0.027 C 
ATOM     19  C   UNL     1       8.454  -2.774  25.679  0.00  0.00    +0.027 C 
ATOM     20  C   UNL     1       9.697  -4.887  25.237  0.00  0.00    +0.027 C 
ENDBRANCH  15  17
ENDBRANCH  14  15
ENDBRANCH  11  14
ENDBRANCH   1  11
TORSDOF 7
ENDMDL
MODEL 3
REMARK VINA RESULT:      -5.6      3.000      6.409
REMARK  Name = 
REMARK  11 active torsions:
REMARK  status: ('A' for Active; 'I' for Inactive)
REMARK    1  A    between atoms: C_1  and  C_2
REMARK    2  A    between atoms: C_4  and  O_5
REMARK    3  A    between atoms: O_5  and  C_6
REMARK    4  A    between atoms: C_6  and  C_7
REMARK    5  A    between atoms: C_7  and  O_8
REMARK    6  A    between atoms: C_7  and  C_9
REMARK    7  A    between atoms: C_9  and  N_10
REMARK    8  A    between atoms: N_10  and  C_11
REMARK    9  A    between atoms: C_11  and  C_12
REMARK   10  A    between atoms: C_11  and  C_13
REMARK   11  A    between atoms: C_11  and  C_14
REMARK                            x       y       z     vdW  Elec       q    Type
REMARK                         _______ _______ _______ _____ _____    ______ ____
ROOT
ATOM      1  C   UNL     1       9.829  -2.317  23.708  0.00  0.00    +0.261 C 
ENDROOT
BRANCH   1   2
ATOM      2  O   UNL     1       8.474  -2.274  24.169  0.00  0.00    -0.488 OA
BRANCH   2   9
ATOM      3  C   UNL     1       6.457  -5.676  21.157  0.00  0.00    +0.044 C 
ATOM      4  C   UNL     1       6.664  -5.071  22.515  0.00  0.00    -0.047 A 
ATOM      5  C   UNL     1       6.062  -5.645  23.639  0.00  0.00    +0.005 A 
ATOM      6  C   UNL     1       6.274  -5.099  24.906  0.00  0.00    +0.024 A 
ATOM      7  C   UNL     1       7.090  -3.975  25.054  0.00  0.00    +0.083 A 
ATOM      8 CL   UNL     1       7.326  -3.347  26.650  0.00  0.00    -0.080 Cl
ATOM      9  C   UNL     1       7.698  -3.382  23.938  0.00  0.00    +0.139 A 
ATOM     10  C   UNL     1       7.477  -3.939  22.674  0.00  0.00    +0.050 A 
ENDBRANCH   2   9
ENDBRANCH   1   2
BRANCH   1  11
ATOM     11  C   UNL     1      10.072  -1.131  22.767  0.00  0.00    +0.166 C 
BRANCH  11  12
ATOM     12  O   UNL     1      10.223  -1.616  21.425  0.00  0.00    -0.387 OA
ATOM     13  H   UNL     1       9.866  -0.913  20.845  0.00  0.00    +0.210 HD
ENDBRANCH  11  12
BRANCH  11  14
ATOM     14  C   UNL     1       8.933  -0.091  22.797  0.00  0.00    +0.116 C 
BRANCH  14  15
ATOM     15  N   UNL     1       8.985   0.769  23.985  0.00  0.00    -0.309 NA
ATOM     16  H   UNL     1       9.742   0.450  24.592  0.00  0.00    +0.123 HD
BRANCH  15  17
ATOM     17  C   UNL     1       9.164   2.210  23.716  0.00  0.00    +0.011 C 
ATOM     18  C   UNL     1       8.551   3.074  24.830  0.00  0.00    +0.027 C 
ATOM     19  C   UNL     1       8.412   2.506  22.401  0.00  0.00    +0.027 C 
ATOM     20  C   UNL     1      10.643   2.577  23.508  0.00  0.00    +0.027 C 
ENDBRANCH  15  17
ENDBRANCH  14  15
ENDBRANCH  11  14
ENDBRANCH   1  11
TORSDOF 7
ENDMDL
MODEL 4
REMARK VINA RESULT:      -5.6      2.403      6.077
REMARK  Name = 
REMARK  11 active torsions:
REMARK  status: ('A' for Active; 'I' for Inactive)
REMARK    1  A    between atoms: C_1  and  C_2
REMARK    2  A    between atoms: C_4  and  O_5
REMARK    3  A    between atoms: O_5  and  C_6
REMARK    4  A    between atoms: C_6  and  C_7
REMARK    5  A    between atoms: C_7  and  O_8
REMARK    6  A    between atoms: C_7  and  C_9
REMARK    7  A    between atoms: C_9  and  N_10
REMARK    8  A    between atoms: N_10  and  C_11
REMARK    9  A    between atoms: C_11  and  C_12
REMARK   10  A    between atoms: C_11  and  C_13
REMARK   11  A    between atoms: C_11  and  C_14
REMARK                            x       y       z     vdW  Elec       q    Type
REMARK                         _______ _______ _______ _____ _____    ______ ____
ROOT
ATOM      1  C   UNL     1       8.216  -2.874  22.806  0.00  0.00    +0.261 C 
ENDROOT
BRANCH   1   2
ATOM      2  O   UNL     1       8.291  -4.288  23.021  0.00  0.00    -0.488 OA
BRANCH   2   9
ATOM      3  C   UNL     1       6.574  -5.367  27.559  0.00  0.00    +0.044 C 
ATOM      4  C   UNL     1       6.474  -5.420  26.063  0.00  0.00    -0.047 A 
ATOM      5  C   UNL     1       5.384  -6.049  25.453  0.00  0.00    +0.005 A 
ATOM      6  C   UNL     1       5.277  -6.077  24.062  0.00  0.00    +0.024 A 
ATOM      7  C   UNL     1       6.261  -5.475  23.274  0.00  0.00    +0.083 A 
ATOM      8 CL   UNL     1       6.071  -5.531  21.554  0.00  0.00    -0.080 Cl
ATOM      9  C   UNL     1       7.364  -4.844  23.867  0.00  0.00    +0.139 A 
ATOM     10  C   UNL     1       7.460  -4.824  25.262  0.00  0.00    +0.050 A 
ENDBRANCH   2   9
ENDBRANCH   1   2
BRANCH   1  11
ATOM     11  C   UNL     1       9.590  -2.255  23.087  0.00  0.00    +0.166 C 
BRANCH  11  12
ATOM     12  O   UNL     1      10.132  -1.734  21.865  0.00  0.00    -0.387 OA
ATOM     13  H   UNL     1      10.168  -2.489  21.245  0.00  0.00    +0.210 HD
ENDBRANCH  11  12
BRANCH  11  14
ATOM     14  C   UNL     1       9.542  -1.123  24.134  0.00  0.00    +0.116 C 
BRANCH  14  15
ATOM     15  N   UNL     1       8.892   0.091  23.625  0.00  0.00    -0.309 NA
ATOM     16  H   UNL     1       8.037   0.256  24.158  0.00  0.00    +0.123 HD
BRANCH  15  17
ATOM     17  C   UNL     1       9.720   1.313  23.660  0.00  0.00    +0.011 C 
ATOM     18  C   UNL     1      10.061   1.805  22.244  0.00  0.00    +0.027 C 
ATOM     19  C   UNL     1      11.035   0.931  24.372  0.00  0.00    +0.027 C 
ATOM     20  C   UNL     1       9.053   2.438  24.469  0.00  0.00    +0.027 C 
ENDBRANCH  15  17
ENDBRANCH  14  15
ENDBRANCH  11  14
ENDBRANCH   1  11
TORSDOF 7
ENDMDL
MODEL 5
REMARK VINA RESULT:      -5.5      2.993      4.210
REMARK  Name = 
REMARK  11 active torsions:
REMARK  status: ('A' for Active; 'I' for Inactive)
REMARK    1  A    between atoms: C_1  and  C_2
REMARK    2  A    between atoms: C_4  and  O_5
REMARK    3  A    between atoms: O_5  and  C_6
REMARK    4  A    between atoms: C_6  and  C_7
REMARK    5  A    between atoms: C_7  and  O_8
REMARK    6  A    between atoms: C_7  and  C_9
REMARK    7  A    between atoms: C_9  and  N_10
REMARK    8  A    between atoms: N_10  and  C_11
REMARK    9  A    between atoms: C_11  and  C_12
REMARK   10  A    between atoms: C_11  and  C_13
REMARK   11  A    between atoms: C_11  and  C_14
REMARK                            x       y       z     vdW  Elec       q    Type
REMARK                         _______ _______ _______ _____ _____    ______ ____
ROOT
ATOM      1  C   UNL     1       9.521  -1.350  24.595  0.00  0.00    +0.261 C 
ENDROOT
BRANCH   1   2
ATOM      2  O   UNL     1      10.269  -0.327  23.929  0.00  0.00    -0.488 OA
BRANCH   2   9
ATOM      3  C   UNL     1       8.432   4.132  25.132  0.00  0.00    +0.044 C 
ATOM      4  C   UNL     1       8.668   3.023  24.149  0.00  0.00    -0.047 A 
ATOM      5  C   UNL     1       8.220   3.145  22.831  0.00  0.00    +0.005 A 
ATOM      6  C   UNL     1       8.461   2.126  21.908  0.00  0.00    +0.024 A 
ATOM      7  C   UNL     1       9.154   0.978  22.303  0.00  0.00    +0.083 A 
ATOM      8 CL   UNL     1       9.434  -0.249  21.114  0.00  0.00    -0.080 Cl
ATOM      9  C   UNL     1       9.608   0.835  23.622  0.00  0.00    +0.139 A 
ATOM     10  C   UNL     1       9.358   1.864  24.536  0.00  0.00    +0.050 A 
ENDBRANCH   2   9
ENDBRANCH   1   2
BRANCH   1  11
ATOM     11  C   UNL     1       9.449  -2.584  23.689  0.00  0.00    +0.166 C 
BRANCH  11  12
ATOM     12  O   UNL     1       9.992  -3.715  24.385  0.00  0.00    -0.387 OA
ATOM     13  H   UNL     1       9.222  -4.217  24.721  0.00  0.00    +0.210 HD
ENDBRANCH  11  12
BRANCH  11  14
ATOM     14  C   UNL     1       8.012  -2.920  23.236  0.00  0.00    +0.116 C 
BRANCH  14  15
ATOM     15  N   UNL     1       7.705  -4.351  23.349  0.00  0.00    -0.309 NA
ATOM     16  H   UNL     1       7.583  -4.586  24.336  0.00  0.00    +0.123 HD
BRANCH  15  17
ATOM     17  C   UNL     1       6.515  -4.802  22.601  0.00  0.00    +0.011 C 
ATOM     18  C   UNL     1       5.520  -5.540  23.512  0.00  0.00    +0.027 C 
ATOM     19  C   UNL     1       7.020  -5.793  21.531  0.00  0.00    +0.027 C 
ATOM     20  C   UNL     1       5.814  -3.641  21.876  0.00  0.00    +0.027 C 
ENDBRANCH  15  17
ENDBRANCH  14  15
ENDBRANCH  11  14
ENDBRANCH   1  11
TORSDOF 7
ENDMDL
MODEL 6
REMARK VINA RESULT:      -5.5      2.923      4.399
REMARK  Name = 
REMARK  11 active torsions:
REMARK  status: ('A' for Active; 'I' for Inactive)
REMARK    1  A    between atoms: C_1  and  C_2
REMARK    2  A    between atoms: C_4  and  O_5
REMARK    3  A    between atoms: O_5  and  C_6
REMARK    4  A    between atoms: C_6  and  C_7
REMARK    5  A    between atoms: C_7  and  O_8
REMARK    6  A    between atoms: C_7  and  C_9
REMARK    7  A    between atoms: C_9  and  N_10
REMARK    8  A    between atoms: N_10  and  C_11
REMARK    9  A    between atoms: C_11  and  C_12
REMARK   10  A    between atoms: C_11  and  C_13
REMARK   11  A    between atoms: C_11  and  C_14
REMARK                            x       y       z     vdW  Elec       q    Type
REMARK                         _______ _______ _______ _____ _____    ______ ____
ROOT
ATOM      1  C   UNL     1       8.031  -1.014  22.643  0.00  0.00    +0.261 C 
ENDROOT
BRANCH   1   2
ATOM      2  O   UNL     1       8.323  -0.244  23.814  0.00  0.00    -0.488 OA
BRANCH   2   9
ATOM      3  C   UNL     1       6.987   4.303  22.316  0.00  0.00    +0.044 C 
ATOM      4  C   UNL     1       7.979   3.348  22.912  0.00  0.00    -0.047 A 
ATOM      5  C   UNL     1       9.226   3.809  23.344  0.00  0.00    +0.005 A 
ATOM      6  C   UNL     1      10.140   2.927  23.922  0.00  0.00    +0.024 A 
ATOM      7  C   UNL     1       9.809   1.578  24.072  0.00  0.00    +0.083 A 
ATOM      8 CL   UNL     1      10.977   0.532  24.806  0.00  0.00    -0.080 Cl
ATOM      9  C   UNL     1       8.564   1.096  23.641  0.00  0.00    +0.139 A 
ATOM     10  C   UNL     1       7.658   1.990  23.062  0.00  0.00    +0.050 A 
ENDBRANCH   2   9
ENDBRANCH   1   2
BRANCH   1  11
ATOM     11  C   UNL     1       9.107  -2.093  22.476  0.00  0.00    +0.166 C 
BRANCH  11  12
ATOM     12  O   UNL     1      10.203  -1.556  21.722  0.00  0.00    -0.387 OA
ATOM     13  H   UNL     1      10.580  -0.839  22.271  0.00  0.00    +0.210 HD
ENDBRANCH  11  12
BRANCH  11  14
ATOM     14  C   UNL     1       9.643  -2.627  23.821  0.00  0.00    +0.116 C 
BRANCH  14  15
ATOM     15  N   UNL     1       8.575  -2.861  24.802  0.00  0.00    -0.309 NA
ATOM     16  H   UNL     1       7.691  -2.529  24.413  0.00  0.00    +0.123 HD
BRANCH  15  17
ATOM     17  C   UNL     1       8.410  -4.263  25.233  0.00  0.00    +0.011 C 
ATOM     18  C   UNL     1       7.486  -5.042  24.283  0.00  0.00    +0.027 C 
ATOM     19  C   UNL     1       7.747  -4.217  26.626  0.00  0.00    +0.027 C 
ATOM     20  C   UNL     1       9.760  -4.986  25.375  0.00  0.00    +0.027 C 
ENDBRANCH  15  17
ENDBRANCH  14  15
ENDBRANCH  11  14
ENDBRANCH   1  11
TORSDOF 7
ENDMDL
MODEL 7
REMARK VINA RESULT:      -5.3      1.993      2.477
REMARK  Name = 
REMARK  11 active torsions:
REMARK  status: ('A' for Active; 'I' for Inactive)
REMARK    1  A    between atoms: C_1  and  C_2
REMARK    2  A    between atoms: C_4  and  O_5
REMARK    3  A    between atoms: O_5  and  C_6
REMARK    4  A    between atoms: C_6  and  C_7
REMARK    5  A    between atoms: C_7  and  O_8
REMARK    6  A    between atoms: C_7  and  C_9
REMARK    7  A    between atoms: C_9  and  N_10
REMARK    8  A    between atoms: N_10  and  C_11
REMARK    9  A    between atoms: C_11  and  C_12
REMARK   10  A    between atoms: C_11  and  C_13
REMARK   11  A    between atoms: C_11  and  C_14
REMARK                            x       y       z     vdW  Elec       q    Type
REMARK                         _______ _______ _______ _____ _____    ______ ____
ROOT
ATOM      1  C   UNL     1       9.147  -4.380  24.800  0.00  0.00    +0.261 C 
ENDROOT
BRANCH   1   2
ATOM      2  O   UNL     1       8.387  -3.167  24.755  0.00  0.00    -0.488 OA
BRANCH   2   9
ATOM      3  C   UNL     1      11.139   0.947  24.291  0.00  0.00    +0.044 C 
ATOM      4  C   UNL     1      10.222  -0.099  23.727  0.00  0.00    -0.047 A 
ATOM      5  C   UNL     1       9.860  -0.062  22.377  0.00  0.00    +0.005 A 
ATOM      6  C   UNL     1       9.028  -1.048  21.844  0.00  0.00    +0.024 A 
ATOM      7  C   UNL     1       8.555  -2.078  22.662  0.00  0.00    +0.083 A 
ATOM      8 CL   UNL     1       7.536  -3.280  21.946  0.00  0.00    -0.080 Cl
ATOM      9  C   UNL     1       8.903  -2.129  24.020  0.00  0.00    +0.139 A 
ATOM     10  C   UNL     1       9.737  -1.134  24.540  0.00  0.00    +0.050 A 
ENDBRANCH   2   9
ENDBRANCH   1   2
BRANCH   1  11
ATOM     11  C   UNL     1       8.550  -5.301  25.870  0.00  0.00    +0.166 C 
BRANCH  11  12
ATOM     12  O   UNL     1       9.064  -4.927  27.156  0.00  0.00    -0.387 OA
ATOM     13  H   UNL     1      10.027  -5.095  27.118  0.00  0.00    +0.210 HD
ENDBRANCH  11  12
BRANCH  11  14
ATOM     14  C   UNL     1       7.008  -5.256  25.916  0.00  0.00    +0.116 C 
BRANCH  14  15
ATOM     15  N   UNL     1       6.400  -5.331  24.582  0.00  0.00    -0.309 NA
ATOM     16  H   UNL     1       6.420  -6.301  24.264  0.00  0.00    +0.123 HD
BRANCH  15  17
ATOM     17  C   UNL     1       5.016  -4.827  24.490  0.00  0.00    +0.011 C 
ATOM     18  C   UNL     1       4.117  -5.440  25.576  0.00  0.00    +0.027 C 
ATOM     19  C   UNL     1       4.481  -5.267  23.110  0.00  0.00    +0.027 C 
ATOM     20  C   UNL     1       4.955  -3.291  24.552  0.00  0.00    +0.027 C 
ENDBRANCH  15  17
ENDBRANCH  14  15
ENDBRANCH  11  14
ENDBRANCH   1  11
TORSDOF 7
ENDMDL
MODEL 8
REMARK VINA RESULT:      -5.3      2.656      5.556
REMARK  Name = 
REMARK  11 active torsions:
REMARK  status: ('A' for Active; 'I' for Inactive)
REMARK    1  A    between atoms: C_1  and  C_2
REMARK    2  A    between atoms: C_4  and  O_5
REMARK    3  A    between atoms: O_5  and  C_6
REMARK    4  A    between atoms: C_6  and  C_7
REMARK    5  A    between atoms: C_7  and  O_8
REMARK    6  A    between atoms: C_7  and  C_9
REMARK    7  A    between atoms: C_9  and  N_10
REMARK    8  A    between atoms: N_10  and  C_11
REMARK    9  A    between atoms: C_11  and  C_12
REMARK   10  A    between atoms: C_11  and  C_13
REMARK   11  A    between atoms: C_11  and  C_14
REMARK                            x       y       z     vdW  Elec       q    Type
REMARK                         _______ _______ _______ _____ _____    ______ ____
ROOT
ATOM      1  C   UNL     1       7.936  -4.909  25.100  0.00  0.00    +0.261 C 
ENDROOT
BRANCH   1   2
ATOM      2  O   UNL     1       7.224  -4.262  24.040  0.00  0.00    -0.488 OA
BRANCH   2   9
ATOM      3  C   UNL     1       2.501  -3.442  25.356  0.00  0.00    +0.044 C 
ATOM      4  C   UNL     1       3.541  -4.170  24.556  0.00  0.00    -0.047 A 
ATOM      5  C   UNL     1       3.161  -5.155  23.640  0.00  0.00    +0.005 A 
ATOM      6  C   UNL     1       4.125  -5.815  22.876  0.00  0.00    +0.024 A 
ATOM      7  C   UNL     1       5.476  -5.492  23.027  0.00  0.00    +0.083 A 
ATOM      8 CL   UNL     1       6.627  -6.335  22.047  0.00  0.00    -0.080 Cl
ATOM      9  C   UNL     1       5.877  -4.511  23.945  0.00  0.00    +0.139 A 
ATOM     10  C   UNL     1       4.901  -3.857  24.704  0.00  0.00    +0.050 A 
ENDBRANCH   2   9
ENDBRANCH   1   2
BRANCH   1  11
ATOM     11  C   UNL     1       9.338  -4.296  25.203  0.00  0.00    +0.166 C 
BRANCH  11  12
ATOM     12  O   UNL     1      10.318  -5.321  24.988  0.00  0.00    -0.387 OA
ATOM     13  H   UNL     1      10.558  -5.653  25.876  0.00  0.00    +0.210 HD
ENDBRANCH  11  12
BRANCH  11  14
ATOM     14  C   UNL     1       9.576  -3.156  24.191  0.00  0.00    +0.116 C 
BRANCH  14  15
ATOM     15  N   UNL     1       9.005  -1.878  24.634  0.00  0.00    -0.309 NA
ATOM     16  H   UNL     1       9.189  -1.762  25.632  0.00  0.00    +0.123 HD
BRANCH  15  17
ATOM     17  C   UNL     1       9.493  -0.685  23.916  0.00  0.00    +0.011 C 
ATOM     18  C   UNL     1       8.331   0.178  23.397  0.00  0.00    +0.027 C 
ATOM     19  C   UNL     1      10.295  -1.201  22.703  0.00  0.00    +0.027 C 
ATOM     20  C   UNL     1      10.440   0.162  24.783  0.00  0.00    +0.027 C 
ENDBRANCH  15  17
ENDBRANCH  14  15
ENDBRANCH  11  14
ENDBRANCH   1  11
TORSDOF 7
ENDMDL
MODEL 9
REMARK VINA RESULT:      -5.3      2.894      6.043
REMARK  Name = 
REMARK  11 active torsions:
REMARK  status: ('A' for Active; 'I' for Inactive)
REMARK    1  A    between atoms: C_1  and  C_2
REMARK    2  A    between atoms: C_4  and  O_5
REMARK    3  A    between atoms: O_5  and  C_6
REMARK    4  A    between atoms: C_6  and  C_7
REMARK    5  A    between atoms: C_7  and  O_8
REMARK    6  A    between atoms: C_7  and  C_9
REMARK    7  A    between atoms: C_9  and  N_10
REMARK    8  A    between atoms: N_10  and  C_11
REMARK    9  A    between atoms: C_11  and  C_12
REMARK   10  A    between atoms: C_11  and  C_13
REMARK   11  A    between atoms: C_11  and  C_14
REMARK                            x       y       z     vdW  Elec       q    Type
REMARK                         _______ _______ _______ _____ _____    ______ ____
ROOT
ATOM      1  C   UNL     1       9.312  -3.191  24.381  0.00  0.00    +0.261 C 
ENDROOT
BRANCH   1   2
ATOM      2  O   UNL     1       8.798  -4.432  24.876  0.00  0.00    -0.488 OA
BRANCH   2   9
ATOM      3  C   UNL     1       6.219  -5.736  20.832  0.00  0.00    +0.044 C 
ATOM      4  C   UNL     1       6.355  -5.584  22.319  0.00  0.00    -0.047 A 
ATOM      5  C   UNL     1       5.316  -5.984  23.164  0.00  0.00    +0.005 A 
ATOM      6  C   UNL     1       5.451  -5.867  24.548  0.00  0.00    +0.024 A 
ATOM      7  C   UNL     1       6.629  -5.350  25.093  0.00  0.00    +0.083 A 
ATOM      8 CL   UNL     1       6.746  -5.238  26.817  0.00  0.00    -0.080 Cl
ATOM      9  C   UNL     1       7.681  -4.939  24.262  0.00  0.00    +0.139 A 
ATOM     10  C   UNL     1       7.532  -5.061  22.876  0.00  0.00    +0.050 A 
ENDBRANCH   2   9
ENDBRANCH   1   2
BRANCH   1  11
ATOM     11  C   UNL     1       8.662  -2.039  25.157  0.00  0.00    +0.166 C 
BRANCH  11  12
ATOM     12  O   UNL     1       8.551  -2.404  26.540  0.00  0.00    -0.387 OA
ATOM     13  H   UNL     1       7.605  -2.610  26.687  0.00  0.00    +0.210 HD
ENDBRANCH  11  12
BRANCH  11  14
ATOM     14  C   UNL     1       9.451  -0.717  25.052  0.00  0.00    +0.116 C 
BRANCH  14  15
ATOM     15  N   UNL     1       9.796  -0.373  23.667  0.00  0.00    -0.309 NA
ATOM     16  H   UNL     1       9.534  -1.151  23.059  0.00  0.00    +0.123 HD
BRANCH  15  17
ATOM     17  C   UNL     1       9.180   0.865  23.151  0.00  0.00    +0.011 C 
ATOM     18  C   UNL     1       9.913   1.383  21.903  0.00  0.00    +0.027 C 
ATOM     19  C   UNL     1       9.316   1.921  24.268  0.00  0.00    +0.027 C 
ATOM     20  C   UNL     1       7.682   0.683  22.852  0.00  0.00    +0.027 C 
ENDBRANCH  15  17
ENDBRANCH  14  15
ENDBRANCH  11  14
ENDBRANCH   1  11
TORSDOF 7
ENDMDL
