MODEL 1
REMARK VINA RESULT:      -5.2      0.000      0.000
REMARK  Name = 
REMARK  12 active torsions:
REMARK  status: ('A' for Active; 'I' for Inactive)
REMARK    1  A    between atoms: C_1  and  C_2
REMARK    2  A    between atoms: C_2  and  O_3
REMARK    3  A    between atoms: C_2  and  C_4
REMARK    4  A    between atoms: C_2  and  C_6
REMARK    5  A    between atoms: C_6  and  C_7
REMARK    6  A    between atoms: C_7  and  O_8
REMARK    7  A    between atoms: O_8  and  P_9
REMARK    8  A    between atoms: P_9  and  O_10
REMARK    9  A    between atoms: P_9  and  O_12
REMARK   10  A    between atoms: O_12  and  P_13
REMARK   11  A    between atoms: P_13  and  O_14
REMARK   12  A    between atoms: P_13  and  O_15
REMARK                            x       y       z     vdW  Elec       q    Type
REMARK                         _______ _______ _______ _____ _____    ______ ____
ROOT
ATOM      1  P   UNL     1       9.018  -4.890  25.278  0.00  0.00    +0.483 P 
ATOM      2  O   UNL     1       8.718  -5.773  24.068  0.00  0.00    -0.227 OA
ENDROOT
BRANCH   1   3
ATOM      3  O   UNL     1      10.698  -5.233  25.052  0.00  0.00    -0.302 OA
ATOM      4  H   UNL     1      11.056  -5.234  25.963  0.00  0.00    +0.222 HD
ENDBRANCH   1   3
BRANCH   1   5
ATOM      5  O   UNL     1       9.272  -3.356  24.731  0.00  0.00    -0.286 OA
BRANCH   5   6
ATOM      6  C   UNL     1       8.434  -2.951  23.659  0.00  0.00    +0.175 C 
BRANCH   6   7
ATOM      7  C   UNL     1       8.509  -1.440  23.455  0.00  0.00    +0.064 C 
BRANCH   7   9
ATOM      8  C   UNL     1      10.543  -0.136  24.083  0.00  0.00    +0.042 C 
ATOM      9  C   UNL     1       9.862  -0.882  22.928  0.00  0.00    +0.075 C 
BRANCH   9  10
ATOM     10  O   UNL     1      10.707  -1.985  22.587  0.00  0.00    -0.388 OA
ATOM     11  H   UNL     1      10.141  -2.732  22.306  0.00  0.00    +0.210 HD
ENDBRANCH   9  10
BRANCH   9  12
ATOM     12  C   UNL     1       9.639   0.020  21.700  0.00  0.00    +0.114 C 
ATOM     13 BR   UNL     1       9.854   1.924  22.077  0.00  0.00    -0.089 Br
ENDBRANCH   9  12
ENDBRANCH   7   9
ENDBRANCH   6   7
ENDBRANCH   5   6
ENDBRANCH   1   5
BRANCH   1  14
ATOM     14  O   UNL     1       7.337  -4.547  25.503  0.00  0.00    -0.186 OA
BRANCH  14  15
ATOM     15  P   UNL     1       6.866  -4.997  27.106  0.00  0.00    +0.481 P 
ATOM     16  O   UNL     1       6.445  -5.399  28.540  0.00  0.00    -0.227 OA
BRANCH  15  17
ATOM     17  O   UNL     1       8.324  -5.735  27.201  0.00  0.00    -0.302 OA
ATOM     18  H   UNL     1       9.047  -5.092  27.270  0.00  0.00    +0.222 HD
ENDBRANCH  15  17
BRANCH  15  19
ATOM     19  O   UNL     1       6.098  -6.295  26.463  0.00  0.00    -0.302 OA
ATOM     20  H   UNL     1       5.221  -6.310  26.914  0.00  0.00    +0.222 HD
ENDBRANCH  15  19
ENDBRANCH  14  15
ENDBRANCH   1  14
TORSDOF 11
ENDMDL
MODEL 2
REMARK VINA RESULT:      -5.2      1.629      2.723
REMARK  Name = 
REMARK  12 active torsions:
REMARK  status: ('A' for Active; 'I' for Inactive)
REMARK    1  A    between atoms: C_1  and  C_2
REMARK    2  A    between atoms: C_2  and  O_3
REMARK    3  A    between atoms: C_2  and  C_4
REMARK    4  A    between atoms: C_2  and  C_6
REMARK    5  A    between atoms: C_6  and  C_7
REMARK    6  A    between atoms: C_7  and  O_8
REMARK    7  A    between atoms: O_8  and  P_9
REMARK    8  A    between atoms: P_9  and  O_10
REMARK    9  A    between atoms: P_9  and  O_12
REMARK   10  A    between atoms: O_12  and  P_13
REMARK   11  A    between atoms: P_13  and  O_14
REMARK   12  A    between atoms: P_13  and  O_15
REMARK                            x       y       z     vdW  Elec       q    Type
REMARK                         _______ _______ _______ _____ _____    ______ ____
ROOT
ATOM      1  P   UNL     1       7.023  -4.450  23.051  0.00  0.00    +0.483 P 
ATOM      2  O   UNL     1       6.661  -4.086  24.490  0.00  0.00    -0.227 OA
ENDROOT
BRANCH   1   3
ATOM      3  O   UNL     1       5.626  -3.573  22.528  0.00  0.00    -0.302 OA
ATOM      4  H   UNL     1       5.538  -3.825  21.586  0.00  0.00    +0.222 HD
ENDBRANCH   1   3
BRANCH   1   5
ATOM      5  O   UNL     1       7.983  -3.250  22.455  0.00  0.00    -0.286 OA
BRANCH   5   6
ATOM      6  C   UNL     1       7.460  -1.937  22.587  0.00  0.00    +0.175 C 
BRANCH   6   7
ATOM      7  C   UNL     1       8.402  -1.059  23.407  0.00  0.00    +0.064 C 
BRANCH   7   9
ATOM      8  C   UNL     1      10.555   0.162  23.733  0.00  0.00    +0.042 C 
ATOM      9  C   UNL     1       9.736  -0.649  22.720  0.00  0.00    +0.075 C 
BRANCH   9  10
ATOM     10  O   UNL     1      10.483  -1.836  22.433  0.00  0.00    -0.388 OA
ATOM     11  H   UNL     1      11.257  -1.588  21.887  0.00  0.00    +0.210 HD
ENDBRANCH   9  10
BRANCH   9  12
ATOM     12  C   UNL     1       9.463   0.138  21.425  0.00  0.00    +0.114 C 
ATOM     13 BR   UNL     1       8.413   1.760  21.700  0.00  0.00    -0.089 Br
ENDBRANCH   9  12
ENDBRANCH   7   9
ENDBRANCH   6   7
ENDBRANCH   5   6
ENDBRANCH   1   5
BRANCH   1  14
ATOM     14  O   UNL     1       8.420  -5.326  23.575  0.00  0.00    -0.186 OA
BRANCH  14  15
ATOM     15  P   UNL     1       8.834  -4.843  25.183  0.00  0.00    +0.481 P 
ATOM     16  O   UNL     1       9.205  -4.410  26.623  0.00  0.00    -0.227 OA
BRANCH  15  17
ATOM     17  O   UNL     1       9.921  -3.843  24.478  0.00  0.00    -0.302 OA
ATOM     18  H   UNL     1      10.564  -4.334  23.942  0.00  0.00    +0.222 HD
ENDBRANCH  15  17
BRANCH  15  19
ATOM     19  O   UNL     1       9.854  -6.124  25.254  0.00  0.00    -0.302 OA
ATOM     20  H   UNL     1       9.381  -6.785  25.813  0.00  0.00    +0.222 HD
ENDBRANCH  15  19
ENDBRANCH  14  15
ENDBRANCH   1  14
TORSDOF 11
ENDMDL
MODEL 3
REMARK VINA RESULT:      -5.1      2.581      3.750
REMARK  Name = 
REMARK  12 active torsions:
REMARK  status: ('A' for Active; 'I' for Inactive)
REMARK    1  A    between atoms: C_1  and  C_2
REMARK    2  A    between atoms: C_2  and  O_3
REMARK    3  A    between atoms: C_2  and  C_4
REMARK    4  A    between atoms: C_2  and  C_6
REMARK    5  A    between atoms: C_6  and  C_7
REMARK    6  A    between atoms: C_7  and  O_8
REMARK    7  A    between atoms: O_8  and  P_9
REMARK    8  A    between atoms: P_9  and  O_10
REMARK    9  A    between atoms: P_9  and  O_12
REMARK   10  A    between atoms: O_12  and  P_13
REMARK   11  A    between atoms: P_13  and  O_14
REMARK   12  A    between atoms: P_13  and  O_15
REMARK                            x       y       z     vdW  Elec       q    Type
REMARK                         _______ _______ _______ _____ _____    ______ ____
ROOT
ATOM      1  P   UNL     1       9.239  -1.845  22.950  0.00  0.00    +0.483 P 
ATOM      2  O   UNL     1       8.193  -2.459  22.023  0.00  0.00    -0.227 OA
ENDROOT
BRANCH   1   3
ATOM      3  O   UNL     1      10.202  -1.496  21.555  0.00  0.00    -0.302 OA
ATOM      4  H   UNL     1       9.648  -1.809  20.811  0.00  0.00    +0.222 HD
ENDBRANCH   1   3
BRANCH   1   5
ATOM      5  O   UNL     1       8.899  -0.239  23.098  0.00  0.00    -0.286 OA
BRANCH   5   6
ATOM      6  C   UNL     1       9.386   0.375  24.282  0.00  0.00    +0.175 C 
BRANCH   6   7
ATOM      7  C   UNL     1      10.545   1.317  23.965  0.00  0.00    +0.064 C 
BRANCH   7   9
ATOM      8  C   UNL     1      11.348   3.584  23.294  0.00  0.00    +0.042 C 
ATOM      9  C   UNL     1      10.197   2.581  23.128  0.00  0.00    +0.075 C 
BRANCH   9  10
ATOM     10  O   UNL     1      10.158   2.215  21.745  0.00  0.00    -0.388 OA
ATOM     11  H   UNL     1      10.342   1.257  21.674  0.00  0.00    +0.210 HD
ENDBRANCH   9  10
BRANCH   9  12
ATOM     12  C   UNL     1       8.842   3.169  23.564  0.00  0.00    +0.114 C 
ATOM     13 BR   UNL     1       7.446   3.010  22.208  0.00  0.00    -0.089 Br
ENDBRANCH   9  12
ENDBRANCH   7   9
ENDBRANCH   6   7
ENDBRANCH   5   6
ENDBRANCH   1   5
BRANCH   1  14
ATOM     14  O   UNL     1       8.276  -2.193  24.344  0.00  0.00    -0.186 OA
BRANCH  14  15
ATOM     15  P   UNL     1       8.870  -3.625  25.112  0.00  0.00    +0.481 P 
ATOM     16  O   UNL     1       9.401  -4.906  25.799  0.00  0.00    -0.227 OA
BRANCH  15  17
ATOM     17  O   UNL     1      10.149  -3.496  24.100  0.00  0.00    -0.302 OA
ATOM     18  H   UNL     1      10.952  -3.222  24.571  0.00  0.00    +0.222 HD
ENDBRANCH  15  17
BRANCH  15  19
ATOM     19  O   UNL     1       7.959  -4.503  24.069  0.00  0.00    -0.302 OA
ATOM     20  H   UNL     1       8.509  -4.563  23.252  0.00  0.00    +0.222 HD
ENDBRANCH  15  19
ENDBRANCH  14  15
ENDBRANCH   1  14
TORSDOF 11
ENDMDL
MODEL 4
REMARK VINA RESULT:      -5.1      4.223      6.605
REMARK  Name = 
REMARK  12 active torsions:
REMARK  status: ('A' for Active; 'I' for Inactive)
REMARK    1  A    between atoms: C_1  and  C_2
REMARK    2  A    between atoms: C_2  and  O_3
REMARK    3  A    between atoms: C_2  and  C_4
REMARK    4  A    between atoms: C_2  and  C_6
REMARK    5  A    between atoms: C_6  and  C_7
REMARK    6  A    between atoms: C_7  and  O_8
REMARK    7  A    between atoms: O_8  and  P_9
REMARK    8  A    between atoms: P_9  and  O_10
REMARK    9  A    between atoms: P_9  and  O_12
REMARK   10  A    between atoms: O_12  and  P_13
REMARK   11  A    between atoms: P_13  and  O_14
REMARK   12  A    between atoms: P_13  and  O_15
REMARK                            x       y       z     vdW  Elec       q    Type
REMARK                         _______ _______ _______ _____ _____    ______ ____
ROOT
ATOM      1  P   UNL     1       9.509  -0.080  22.256  0.00  0.00    +0.483 P 
ATOM      2  O   UNL     1      10.566  -0.250  23.344  0.00  0.00    -0.227 OA
ENDROOT
BRANCH   1   3
ATOM      3  O   UNL     1      10.143  -1.493  21.485  0.00  0.00    -0.302 OA
ATOM      4  H   UNL     1      10.812  -1.135  20.866  0.00  0.00    +0.222 HD
ENDBRANCH   1   3
BRANCH   1   5
ATOM      5  O   UNL     1       8.179  -0.942  22.709  0.00  0.00    -0.286 OA
BRANCH   5   6
ATOM      6  C   UNL     1       8.173  -2.302  22.302  0.00  0.00    +0.175 C 
BRANCH   6   7
ATOM      7  C   UNL     1       7.814  -3.215  23.471  0.00  0.00    +0.064 C 
BRANCH   7   9
ATOM      8  C   UNL     1       8.946  -4.946  24.869  0.00  0.00    +0.042 C 
ATOM      9  C   UNL     1       8.928  -3.449  24.532  0.00  0.00    +0.075 C 
BRANCH   9  10
ATOM     10  O   UNL     1      10.193  -3.139  23.938  0.00  0.00    -0.388 OA
ATOM     11  H   UNL     1      10.594  -2.399  24.436  0.00  0.00    +0.210 HD
ENDBRANCH   9  10
BRANCH   9  12
ATOM     12  C   UNL     1       8.692  -2.572  25.775  0.00  0.00    +0.114 C 
ATOM     13 BR   UNL     1       6.806  -2.355  26.234  0.00  0.00    -0.089 Br
ENDBRANCH   9  12
ENDBRANCH   7   9
ENDBRANCH   6   7
ENDBRANCH   5   6
ENDBRANCH   1   5
BRANCH   1  14
ATOM     14  O   UNL     1       8.874   1.332  23.028  0.00  0.00    -0.186 OA
BRANCH  14  15
ATOM     15  P   UNL     1      10.130   2.507  23.203  0.00  0.00    +0.481 P 
ATOM     16  O   UNL     1      11.256   3.559  23.360  0.00  0.00    -0.227 OA
BRANCH  15  17
ATOM     17  O   UNL     1       8.981   3.618  22.850  0.00  0.00    -0.302 OA
ATOM     18  H   UNL     1       8.232   3.565  23.465  0.00  0.00    +0.222 HD
ENDBRANCH  15  17
BRANCH  15  19
ATOM     19  O   UNL     1      10.538   2.233  21.638  0.00  0.00    -0.302 OA
ATOM     20  H   UNL     1      10.319   1.283  21.490  0.00  0.00    +0.222 HD
ENDBRANCH  15  19
ENDBRANCH  14  15
ENDBRANCH   1  14
TORSDOF 11
ENDMDL
MODEL 5
REMARK VINA RESULT:      -5.0      3.968      6.461
REMARK  Name = 
REMARK  12 active torsions:
REMARK  status: ('A' for Active; 'I' for Inactive)
REMARK    1  A    between atoms: C_1  and  C_2
REMARK    2  A    between atoms: C_2  and  O_3
REMARK    3  A    between atoms: C_2  and  C_4
REMARK    4  A    between atoms: C_2  and  C_6
REMARK    5  A    between atoms: C_6  and  C_7
REMARK    6  A    between atoms: C_7  and  O_8
REMARK    7  A    between atoms: O_8  and  P_9
REMARK    8  A    between atoms: P_9  and  O_10
REMARK    9  A    between atoms: P_9  and  O_12
REMARK   10  A    between atoms: O_12  and  P_13
REMARK   11  A    between atoms: P_13  and  O_14
REMARK   12  A    between atoms: P_13  and  O_15
REMARK                            x       y       z     vdW  Elec       q    Type
REMARK                         _______ _______ _______ _____ _____    ______ ____
ROOT
ATOM      1  P   UNL     1      10.108  -1.532  22.758  0.00  0.00    +0.483 P 
ATOM      2  O   UNL     1       9.721  -0.719  23.991  0.00  0.00    -0.227 OA
ENDROOT
BRANCH   1   3
ATOM      3  O   UNL     1      10.211  -2.931  23.771  0.00  0.00    -0.302 OA
ATOM      4  H   UNL     1      11.156  -3.183  23.717  0.00  0.00    +0.222 HD
ENDBRANCH   1   3
BRANCH   1   5
ATOM      5  O   UNL     1       8.722  -2.132  22.096  0.00  0.00    -0.286 OA
BRANCH   5   6
ATOM      6  C   UNL     1       7.699  -2.453  23.026  0.00  0.00    +0.175 C 
BRANCH   6   7
ATOM      7  C   UNL     1       6.793  -3.552  22.476  0.00  0.00    +0.064 C 
BRANCH   7   9
ATOM      8  C   UNL     1       7.046  -5.932  21.769  0.00  0.00    +0.042 C 
ATOM      9  C   UNL     1       7.074  -4.995  22.984  0.00  0.00    +0.075 C 
BRANCH   9  10
ATOM     10  O   UNL     1       8.402  -5.040  23.516  0.00  0.00    -0.388 OA
ATOM     11  H   UNL     1       8.595  -5.960  23.786  0.00  0.00    +0.210 HD
ENDBRANCH   9  10
BRANCH   9  12
ATOM     12  C   UNL     1       6.052  -5.404  24.061  0.00  0.00    +0.114 C 
ATOM     13 BR   UNL     1       6.727  -5.234  25.886  0.00  0.00    -0.089 Br
ENDBRANCH   9  12
ENDBRANCH   7   9
ENDBRANCH   6   7
ENDBRANCH   5   6
ENDBRANCH   1   5
BRANCH   1  14
ATOM     14  O   UNL     1      10.003  -0.133  21.745  0.00  0.00    -0.186 OA
BRANCH  14  15
ATOM     15  P   UNL     1       9.565   1.239  22.702  0.00  0.00    +0.481 P 
ATOM     16  O   UNL     1       9.172   2.468  23.559  0.00  0.00    -0.227 OA
BRANCH  15  17
ATOM     17  O   UNL     1       8.032   0.949  22.205  0.00  0.00    -0.302 OA
ATOM     18  H   UNL     1       7.526   1.771  22.108  0.00  0.00    +0.222 HD
ENDBRANCH  15  17
BRANCH  15  19
ATOM     19  O   UNL     1       9.944   2.191  21.422  0.00  0.00    -0.302 OA
ATOM     20  H   UNL     1      10.713   1.741  21.000  0.00  0.00    +0.222 HD
ENDBRANCH  15  19
ENDBRANCH  14  15
ENDBRANCH   1  14
TORSDOF 11
ENDMDL
MODEL 6
REMARK VINA RESULT:      -5.0      2.016      2.928
REMARK  Name = 
REMARK  12 active torsions:
REMARK  status: ('A' for Active; 'I' for Inactive)
REMARK    1  A    between atoms: C_1  and  C_2
REMARK    2  A    between atoms: C_2  and  O_3
REMARK    3  A    between atoms: C_2  and  C_4
REMARK    4  A    between atoms: C_2  and  C_6
REMARK    5  A    between atoms: C_6  and  C_7
REMARK    6  A    between atoms: C_7  and  O_8
REMARK    7  A    between atoms: O_8  and  P_9
REMARK    8  A    between atoms: P_9  and  O_10
REMARK    9  A    between atoms: P_9  and  O_12
REMARK   10  A    between atoms: O_12  and  P_13
REMARK   11  A    between atoms: P_13  and  O_14
REMARK   12  A    between atoms: P_13  and  O_15
REMARK                            x       y       z     vdW  Elec       q    Type
REMARK                         _______ _______ _______ _____ _____    ______ ____
ROOT
ATOM      1  P   UNL     1       8.136  -4.873  25.008  0.00  0.00    +0.483 P 
ATOM      2  O   UNL     1       9.314  -5.635  24.405  0.00  0.00    -0.227 OA
ENDROOT
BRANCH   1   3
ATOM      3  O   UNL     1       8.349  -5.789  26.461  0.00  0.00    -0.302 OA
ATOM      4  H   UNL     1       8.747  -6.626  26.147  0.00  0.00    +0.222 HD
ENDBRANCH   1   3
BRANCH   1   5
ATOM      5  O   UNL     1       8.737  -3.544  25.774  0.00  0.00    -0.286 OA
BRANCH   5   6
ATOM      6  C   UNL     1       7.937  -2.375  25.673  0.00  0.00    +0.175 C 
BRANCH   6   7
ATOM      7  C   UNL     1       8.807  -1.121  25.688  0.00  0.00    +0.064 C 
BRANCH   7   9
ATOM      8  C   UNL     1      10.651   0.224  24.677  0.00  0.00    +0.042 C 
ATOM      9  C   UNL     1       9.518  -0.759  24.353  0.00  0.00    +0.075 C 
BRANCH   9  10
ATOM     10  O   UNL     1      10.130  -1.942  23.828  0.00  0.00    -0.388 OA
ATOM     11  H   UNL     1      10.430  -2.493  24.579  0.00  0.00    +0.210 HD
ENDBRANCH   9  10
BRANCH   9  12
ATOM     12  C   UNL     1       8.515  -0.181  23.338  0.00  0.00    +0.114 C 
ATOM     13 BR   UNL     1       9.326   0.326  21.636  0.00  0.00    -0.089 Br
ENDBRANCH   9  12
ENDBRANCH   7   9
ENDBRANCH   6   7
ENDBRANCH   5   6
ENDBRANCH   1   5
BRANCH   1  14
ATOM     14  O   UNL     1       7.924  -3.958  23.555  0.00  0.00    -0.186 OA
BRANCH  14  15
ATOM     15  P   UNL     1       6.515  -4.518  22.722  0.00  0.00    +0.481 P 
ATOM     16  O   UNL     1       5.254  -5.018  21.976  0.00  0.00    -0.227 OA
BRANCH  15  17
ATOM     17  O   UNL     1       6.226  -5.418  24.058  0.00  0.00    -0.302 OA
ATOM     18  H   UNL     1       6.407  -4.921  24.871  0.00  0.00    +0.222 HD
ENDBRANCH  15  17
BRANCH  15  19
ATOM     19  O   UNL     1       7.453  -5.649  21.996  0.00  0.00    -0.302 OA
ATOM     20  H   UNL     1       8.073  -5.130  21.431  0.00  0.00    +0.222 HD
ENDBRANCH  15  19
ENDBRANCH  14  15
ENDBRANCH   1  14
TORSDOF 11
ENDMDL
MODEL 7
REMARK VINA RESULT:      -5.0      2.359      3.358
REMARK  Name = 
REMARK  12 active torsions:
REMARK  status: ('A' for Active; 'I' for Inactive)
REMARK    1  A    between atoms: C_1  and  C_2
REMARK    2  A    between atoms: C_2  and  O_3
REMARK    3  A    between atoms: C_2  and  C_4
REMARK    4  A    between atoms: C_2  and  C_6
REMARK    5  A    between atoms: C_6  and  C_7
REMARK    6  A    between atoms: C_7  and  O_8
REMARK    7  A    between atoms: O_8  and  P_9
REMARK    8  A    between atoms: P_9  and  O_10
REMARK    9  A    between atoms: P_9  and  O_12
REMARK   10  A    between atoms: O_12  and  P_13
REMARK   11  A    between atoms: P_13  and  O_14
REMARK   12  A    between atoms: P_13  and  O_15
REMARK                            x       y       z     vdW  Elec       q    Type
REMARK                         _______ _______ _______ _____ _____    ______ ____
ROOT
ATOM      1  P   UNL     1       8.543  -4.350  24.477  0.00  0.00    +0.483 P 
ATOM      2  O   UNL     1       8.214  -5.338  23.360  0.00  0.00    -0.227 OA
ENDROOT
BRANCH   1   3
ATOM      3  O   UNL     1       9.928  -5.315  24.858  0.00  0.00    -0.302 OA
ATOM      4  H   UNL     1      10.639  -4.920  24.314  0.00  0.00    +0.222 HD
ENDBRANCH   1   3
BRANCH   1   5
ATOM      5  O   UNL     1       9.539  -3.195  23.850  0.00  0.00    -0.286 OA
BRANCH   5   6
ATOM      6  C   UNL     1       9.549  -1.961  24.550  0.00  0.00    +0.175 C 
BRANCH   6   7
ATOM      7  C   UNL     1      10.062  -0.835  23.656  0.00  0.00    +0.064 C 
BRANCH   7   9
ATOM      8  C   UNL     1       9.366   0.154  21.472  0.00  0.00    +0.042 C 
ATOM      9  C   UNL     1       8.980   0.034  22.953  0.00  0.00    +0.075 C 
BRANCH   9  10
ATOM     10  O   UNL     1       7.732  -0.665  23.004  0.00  0.00    -0.388 OA
ATOM     11  H   UNL     1       7.139  -0.192  23.623  0.00  0.00    +0.210 HD
ENDBRANCH   9  10
BRANCH   9  12
ATOM     12  C   UNL     1       8.853   1.407  23.637  0.00  0.00    +0.114 C 
ATOM     13 BR   UNL     1      10.450   2.518  23.468  0.00  0.00    -0.089 Br
ENDBRANCH   9  12
ENDBRANCH   7   9
ENDBRANCH   6   7
ENDBRANCH   5   6
ENDBRANCH   1   5
BRANCH   1  14
ATOM     14  O   UNL     1       7.160  -3.384  24.095  0.00  0.00    -0.186 OA
BRANCH  14  15
ATOM     15  P   UNL     1       6.438  -3.963  22.634  0.00  0.00    +0.481 P 
ATOM     16  O   UNL     1       5.791  -4.482  21.326  0.00  0.00    -0.227 OA
BRANCH  15  17
ATOM     17  O   UNL     1       7.636  -3.160  21.862  0.00  0.00    -0.302 OA
ATOM     18  H   UNL     1       7.734  -3.460  20.944  0.00  0.00    +0.222 HD
ENDBRANCH  15  17
BRANCH  15  19
ATOM     19  O   UNL     1       5.422  -2.677  22.683  0.00  0.00    -0.302 OA
ATOM     20  H   UNL     1       5.903  -1.965  22.198  0.00  0.00    +0.222 HD
ENDBRANCH  15  19
ENDBRANCH  14  15
ENDBRANCH   1  14
TORSDOF 11
ENDMDL
MODEL 8
REMARK VINA RESULT:      -4.9      2.012      2.921
REMARK  Name = 
REMARK  12 active torsions:
REMARK  status: ('A' for Active; 'I' for Inactive)
REMARK    1  A    between atoms: C_1  and  C_2
REMARK    2  A    between atoms: C_2  and  O_3
REMARK    3  A    between atoms: C_2  and  C_4
REMARK    4  A    between atoms: C_2  and  C_6
REMARK    5  A    between atoms: C_6  and  C_7
REMARK    6  A    between atoms: C_7  and  O_8
REMARK    7  A    between atoms: O_8  and  P_9
REMARK    8  A    between atoms: P_9  and  O_10
REMARK    9  A    between atoms: P_9  and  O_12
REMARK   10  A    between atoms: O_12  and  P_13
REMARK   11  A    between atoms: P_13  and  O_14
REMARK   12  A    between atoms: P_13  and  O_15
REMARK                            x       y       z     vdW  Elec       q    Type
REMARK                         _______ _______ _______ _____ _____    ______ ____
ROOT
ATOM      1  P   UNL     1       8.386  -3.237  23.608  0.00  0.00    +0.483 P 
ATOM      2  O   UNL     1       7.465  -2.401  24.493  0.00  0.00    -0.227 OA
ENDROOT
BRANCH   1   3
ATOM      3  O   UNL     1       7.392  -2.814  22.256  0.00  0.00    -0.302 OA
ATOM      4  H   UNL     1       8.008  -2.860  21.496  0.00  0.00    +0.222 HD
ENDBRANCH   1   3
BRANCH   1   5
ATOM      5  O   UNL     1       9.568  -2.242  23.032  0.00  0.00    -0.286 OA
BRANCH   5   6
ATOM      6  C   UNL     1       9.245  -1.550  21.835  0.00  0.00    +0.175 C 
BRANCH   6   7
ATOM      7  C   UNL     1       9.581  -0.066  21.960  0.00  0.00    +0.064 C 
BRANCH   7   9
ATOM      8  C   UNL     1       8.173   1.975  21.680  0.00  0.00    +0.042 C 
ATOM      9  C   UNL     1       8.508   0.829  22.643  0.00  0.00    +0.075 C 
BRANCH   9  10
ATOM     10  O   UNL     1       7.312   0.059  22.809  0.00  0.00    -0.388 OA
ATOM     11  H   UNL     1       7.467  -0.603  23.512  0.00  0.00    +0.210 HD
ENDBRANCH   9  10
BRANCH   9  12
ATOM     12  C   UNL     1       9.009   1.339  24.007  0.00  0.00    +0.114 C 
ATOM     13 BR   UNL     1      10.828   0.773  24.435  0.00  0.00    -0.089 Br
ENDBRANCH   9  12
ENDBRANCH   7   9
ENDBRANCH   6   7
ENDBRANCH   5   6
ENDBRANCH   1   5
BRANCH   1  14
ATOM     14  O   UNL     1       9.380  -3.659  24.959  0.00  0.00    -0.186 OA
BRANCH  14  15
ATOM     15  P   UNL     1       8.542  -4.794  25.960  0.00  0.00    +0.481 P 
ATOM     16  O   UNL     1       7.790  -5.809  26.855  0.00  0.00    -0.227 OA
BRANCH  15  17
ATOM     17  O   UNL     1       9.778  -5.816  25.636  0.00  0.00    -0.302 OA
ATOM     18  H   UNL     1       9.990  -6.374  26.401  0.00  0.00    +0.222 HD
ENDBRANCH  15  17
BRANCH  15  19
ATOM     19  O   UNL     1       7.661  -5.227  24.646  0.00  0.00    -0.302 OA
ATOM     20  H   UNL     1       7.184  -4.403  24.387  0.00  0.00    +0.222 HD
ENDBRANCH  15  19
ENDBRANCH  14  15
ENDBRANCH   1  14
TORSDOF 11
ENDMDL
MODEL 9
REMARK VINA RESULT:      -4.9      2.053      2.498
REMARK  Name = 
REMARK  12 active torsions:
REMARK  status: ('A' for Active; 'I' for Inactive)
REMARK    1  A    between atoms: C_1  and  C_2
REMARK    2  A    between atoms: C_2  and  O_3
REMARK    3  A    between atoms: C_2  and  C_4
REMARK    4  A    between atoms: C_2  and  C_6
REMARK    5  A    between atoms: C_6  and  C_7
REMARK    6  A    between atoms: C_7  and  O_8
REMARK    7  A    between atoms: O_8  and  P_9
REMARK    8  A    between atoms: P_9  and  O_10
REMARK    9  A    between atoms: P_9  and  O_12
REMARK   10  A    between atoms: O_12  and  P_13
REMARK   11  A    between atoms: P_13  and  O_14
REMARK   12  A    between atoms: P_13  and  O_15
REMARK                            x       y       z     vdW  Elec       q    Type
REMARK                         _______ _______ _______ _____ _____    ______ ____
ROOT
ATOM      1  P   UNL     1       8.768  -5.118  25.283  0.00  0.00    +0.483 P 
ATOM      2  O   UNL     1       8.539  -5.327  23.788  0.00  0.00    -0.227 OA
ENDROOT
BRANCH   1   3
ATOM      3  O   UNL     1      10.451  -5.424  25.020  0.00  0.00    -0.302 OA
ATOM      4  H   UNL     1      10.647  -6.162  25.632  0.00  0.00    +0.222 HD
ENDBRANCH   1   3
BRANCH   1   5
ATOM      5  O   UNL     1       9.109  -3.523  25.521  0.00  0.00    -0.286 OA
BRANCH   5   6
ATOM      6  C   UNL     1       9.479  -2.804  24.354  0.00  0.00    +0.175 C 
BRANCH   6   7
ATOM      7  C   UNL     1       8.835  -1.420  24.344  0.00  0.00    +0.064 C 
BRANCH   7   9
ATOM      8  C   UNL     1       7.004  -0.324  23.048  0.00  0.00    +0.042 C 
ATOM      9  C   UNL     1       7.295  -1.378  24.125  0.00  0.00    +0.075 C 
BRANCH   9  10
ATOM     10  O   UNL     1       6.876  -2.641  23.598  0.00  0.00    -0.388 OA
ATOM     11  H   UNL     1       7.643  -3.248  23.606  0.00  0.00    +0.210 HD
ENDBRANCH   9  10
BRANCH   9  12
ATOM     12  C   UNL     1       6.563  -1.080  25.447  0.00  0.00    +0.114 C 
ATOM     13 BR   UNL     1       7.740  -0.438  26.867  0.00  0.00    -0.089 Br
ENDBRANCH   9  12
ENDBRANCH   7   9
ENDBRANCH   6   7
ENDBRANCH   5   6
ENDBRANCH   1   5
BRANCH   1  14
ATOM     14  O   UNL     1       7.085  -4.812  25.545  0.00  0.00    -0.186 OA
BRANCH  14  15
ATOM     15  P   UNL     1       6.702  -5.086  27.210  0.00  0.00    +0.481 P 
ATOM     16  O   UNL     1       6.359  -5.331  28.699  0.00  0.00    -0.227 OA
BRANCH  15  17
ATOM     17  O   UNL     1       8.198  -5.739  27.326  0.00  0.00    -0.302 OA
ATOM     18  H   UNL     1       8.231  -6.629  26.941  0.00  0.00    +0.222 HD
ENDBRANCH  15  17
BRANCH  15  19
ATOM     19  O   UNL     1       5.977  -6.487  26.762  0.00  0.00    -0.302 OA
ATOM     20  H   UNL     1       6.245  -7.135  27.454  0.00  0.00    +0.222 HD
ENDBRANCH  15  19
ENDBRANCH  14  15
ENDBRANCH   1  14
TORSDOF 11
ENDMDL
