MODEL 1
REMARK VINA RESULT:      -5.3      0.000      0.000
REMARK  Name = 
REMARK  6 active torsions:
REMARK  status: ('A' for Active; 'I' for Inactive)
REMARK    1  A    between atoms: C_2  and  N_3
REMARK    2  A    between atoms: C_2  and  C_4
REMARK    3  A    between atoms: C_2  and  C_12
REMARK    4  A    between atoms: C_4  and  C_5
REMARK    5  A    between atoms: C_5  and  C_6
REMARK    6  A    between atoms: C_12  and  C_13
REMARK                            x       y       z     vdW  Elec       q    Type
REMARK                         _______ _______ _______ _____ _____    ______ ____
ROOT
ATOM      1  C   UNL     1       8.890  -3.237  25.269  0.00  0.00    +0.031 C 
ENDROOT
BRANCH   1   2
ATOM      2  C   UNL     1       9.148  -4.481  26.128  0.00  0.00    +0.118 C 
BRANCH   2   3
ATOM      3  N   UNL     1      10.039  -5.424  25.421  0.00  0.00    -0.321 NA
ATOM      4  H   UNL     1       9.755  -5.447  24.438  0.00  0.00    +0.119 HD
ATOM      5  H   UNL     1      10.971  -5.004  25.378  0.00  0.00    +0.119 HD
ENDBRANCH   2   3
BRANCH   2   6
ATOM      6  C   UNL     1       7.823  -5.197  26.460  0.00  0.00    +0.147 C 
ATOM      7  O   UNL     1       7.629  -5.738  27.552  0.00  0.00    -0.296 OA
ATOM      8  C   UNL     1       6.739  -5.193  25.414  0.00  0.00    +0.087 C 
ENDBRANCH   2   6
ENDBRANCH   1   2
BRANCH   1   9
ATOM      9  C   UNL     1       9.866  -3.102  24.094  0.00  0.00    +0.037 C 
BRANCH   9  10
ATOM     10  C   UNL     1       9.881  -1.703  23.522  0.00  0.00    -0.047 A 
ATOM     11  C   UNL     1       9.682  -1.491  22.150  0.00  0.00    +0.003 A 
ATOM     12  C   UNL     1       9.698  -0.201  21.620  0.00  0.00    +0.000 A 
ATOM     13  C   UNL     1       9.926   0.890  22.453  0.00  0.00    +0.000 A 
ATOM     14  C   UNL     1      10.141   0.693  23.817  0.00  0.00    +0.000 A 
ATOM     15  C   UNL     1      10.118  -0.597  24.349  0.00  0.00    +0.003 A 
ENDBRANCH   9  10
ENDBRANCH   1   9
TORSDOF 5
ENDMDL
MODEL 2
REMARK VINA RESULT:      -5.3      0.174      1.348
REMARK  Name = 
REMARK  6 active torsions:
REMARK  status: ('A' for Active; 'I' for Inactive)
REMARK    1  A    between atoms: C_2  and  N_3
REMARK    2  A    between atoms: C_2  and  C_4
REMARK    3  A    between atoms: C_2  and  C_12
REMARK    4  A    between atoms: C_4  and  C_5
REMARK    5  A    between atoms: C_5  and  C_6
REMARK    6  A    between atoms: C_12  and  C_13
REMARK                            x       y       z     vdW  Elec       q    Type
REMARK                         _______ _______ _______ _____ _____    ______ ____
ROOT
ATOM      1  C   UNL     1       8.909  -3.227  25.494  0.00  0.00    +0.031 C 
ENDROOT
BRANCH   1   2
ATOM      2  C   UNL     1       9.142  -4.538  26.253  0.00  0.00    +0.118 C 
BRANCH   2   3
ATOM      3  N   UNL     1       9.992  -5.452  25.461  0.00  0.00    -0.321 NA
ATOM      4  H   UNL     1      10.876  -5.574  25.963  0.00  0.00    +0.119 HD
ATOM      5  H   UNL     1       9.576  -6.386  25.506  0.00  0.00    +0.119 HD
ENDBRANCH   2   3
BRANCH   2   6
ATOM      6  C   UNL     1       7.802  -5.238  26.555  0.00  0.00    +0.147 C 
ATOM      7  O   UNL     1       7.576  -5.775  27.644  0.00  0.00    -0.296 OA
ATOM      8  C   UNL     1       6.742  -5.223  25.484  0.00  0.00    +0.087 C 
ENDBRANCH   2   6
ENDBRANCH   1   2
BRANCH   1   9
ATOM      9  C   UNL     1       9.593  -3.193  24.121  0.00  0.00    +0.037 C 
BRANCH   9  10
ATOM     10  C   UNL     1       9.752  -1.784  23.597  0.00  0.00    -0.047 A 
ATOM     11  C   UNL     1       9.974  -0.716  24.480  0.00  0.00    +0.003 A 
ATOM     12  C   UNL     1      10.118   0.585  24.000  0.00  0.00    +0.000 A 
ATOM     13  C   UNL     1      10.031   0.836  22.633  0.00  0.00    +0.000 A 
ATOM     14  C   UNL     1       9.796  -0.214  21.746  0.00  0.00    +0.000 A 
ATOM     15  C   UNL     1       9.658  -1.517  22.225  0.00  0.00    +0.003 A 
ENDBRANCH   9  10
ENDBRANCH   1   9
TORSDOF 5
ENDMDL
MODEL 3
REMARK VINA RESULT:      -5.1      1.369      1.794
REMARK  Name = 
REMARK  6 active torsions:
REMARK  status: ('A' for Active; 'I' for Inactive)
REMARK    1  A    between atoms: C_2  and  N_3
REMARK    2  A    between atoms: C_2  and  C_4
REMARK    3  A    between atoms: C_2  and  C_12
REMARK    4  A    between atoms: C_4  and  C_5
REMARK    5  A    between atoms: C_5  and  C_6
REMARK    6  A    between atoms: C_12  and  C_13
REMARK                            x       y       z     vdW  Elec       q    Type
REMARK                         _______ _______ _______ _____ _____    ______ ____
ROOT
ATOM      1  C   UNL     1       8.951  -2.642  23.721  0.00  0.00    +0.031 C 
ENDROOT
BRANCH   1   2
ATOM      2  C   UNL     1       9.260  -3.792  24.686  0.00  0.00    +0.118 C 
BRANCH   2   3
ATOM      3  N   UNL     1       8.724  -5.067  24.163  0.00  0.00    -0.321 NA
ATOM      4  H   UNL     1       9.507  -5.604  23.780  0.00  0.00    +0.119 HD
ATOM      5  H   UNL     1       8.429  -5.635  24.962  0.00  0.00    +0.119 HD
ENDBRANCH   2   3
BRANCH   2   6
ATOM      6  C   UNL     1       8.640  -3.521  26.072  0.00  0.00    +0.147 C 
ATOM      7  O   UNL     1       8.530  -4.408  26.924  0.00  0.00    -0.296 OA
ATOM      8  C   UNL     1       8.194  -2.115  26.381  0.00  0.00    +0.087 C 
ENDBRANCH   2   6
ENDBRANCH   1   2
BRANCH   1   9
ATOM      9  C   UNL     1      10.204  -2.064  23.050  0.00  0.00    +0.037 C 
BRANCH   9  10
ATOM     10  C   UNL     1      10.196  -0.552  23.033  0.00  0.00    -0.047 A 
ATOM     11  C   UNL     1       9.813   0.145  21.877  0.00  0.00    +0.003 A 
ATOM     12  C   UNL     1       9.808   1.540  21.858  0.00  0.00    +0.000 A 
ATOM     13  C   UNL     1      10.194   2.253  22.988  0.00  0.00    +0.000 A 
ATOM     14  C   UNL     1      10.592   1.572  24.139  0.00  0.00    +0.000 A 
ATOM     15  C   UNL     1      10.591   0.177  24.162  0.00  0.00    +0.003 A 
ENDBRANCH   9  10
ENDBRANCH   1   9
TORSDOF 5
ENDMDL
MODEL 4
REMARK VINA RESULT:      -5.1      1.360      1.602
REMARK  Name = 
REMARK  6 active torsions:
REMARK  status: ('A' for Active; 'I' for Inactive)
REMARK    1  A    between atoms: C_2  and  N_3
REMARK    2  A    between atoms: C_2  and  C_4
REMARK    3  A    between atoms: C_2  and  C_12
REMARK    4  A    between atoms: C_4  and  C_5
REMARK    5  A    between atoms: C_5  and  C_6
REMARK    6  A    between atoms: C_12  and  C_13
REMARK                            x       y       z     vdW  Elec       q    Type
REMARK                         _______ _______ _______ _____ _____    ______ ____
ROOT
ATOM      1  C   UNL     1       9.641  -2.900  24.131  0.00  0.00    +0.031 C 
ENDROOT
BRANCH   1   2
ATOM      2  C   UNL     1       9.166  -4.090  24.972  0.00  0.00    +0.118 C 
BRANCH   2   3
ATOM      3  N   UNL     1      10.190  -5.155  24.990  0.00  0.00    -0.321 NA
ATOM      4  H   UNL     1       9.789  -5.985  24.544  0.00  0.00    +0.119 HD
ATOM      5  H   UNL     1      10.934  -4.887  24.340  0.00  0.00    +0.119 HD
ENDBRANCH   2   3
BRANCH   2   6
ATOM      6  C   UNL     1       7.853  -4.668  24.405  0.00  0.00    +0.147 C 
ATOM      7  O   UNL     1       7.075  -5.327  25.101  0.00  0.00    -0.296 OA
ATOM      8  C   UNL     1       7.520  -4.377  22.965  0.00  0.00    +0.087 C 
ENDBRANCH   2   6
ENDBRANCH   1   2
BRANCH   1   9
ATOM      9  C   UNL     1       9.396  -1.545  24.807  0.00  0.00    +0.037 C 
BRANCH   9  10
ATOM     10  C   UNL     1       9.621  -0.386  23.863  0.00  0.00    -0.047 A 
ATOM     11  C   UNL     1       9.363  -0.526  22.490  0.00  0.00    +0.003 A 
ATOM     12  C   UNL     1       9.571   0.541  21.616  0.00  0.00    +0.000 A 
ATOM     13  C   UNL     1      10.051   1.754  22.101  0.00  0.00    +0.000 A 
ATOM     14  C   UNL     1      10.326   1.902  23.461  0.00  0.00    +0.000 A 
ATOM     15  C   UNL     1      10.111   0.837  24.337  0.00  0.00    +0.003 A 
ENDBRANCH   9  10
ENDBRANCH   1   9
TORSDOF 5
ENDMDL
MODEL 5
REMARK VINA RESULT:      -5.1      2.901      3.412
REMARK  Name = 
REMARK  6 active torsions:
REMARK  status: ('A' for Active; 'I' for Inactive)
REMARK    1  A    between atoms: C_2  and  N_3
REMARK    2  A    between atoms: C_2  and  C_4
REMARK    3  A    between atoms: C_2  and  C_12
REMARK    4  A    between atoms: C_4  and  C_5
REMARK    5  A    between atoms: C_5  and  C_6
REMARK    6  A    between atoms: C_12  and  C_13
REMARK                            x       y       z     vdW  Elec       q    Type
REMARK                         _______ _______ _______ _____ _____    ______ ____
ROOT
ATOM      1  C   UNL     1       7.917  -2.070  22.246  0.00  0.00    +0.031 C 
ENDROOT
BRANCH   1   2
ATOM      2  C   UNL     1       7.424  -3.320  22.983  0.00  0.00    +0.118 C 
BRANCH   2   3
ATOM      3  N   UNL     1       8.560  -4.053  23.580  0.00  0.00    -0.321 NA
ATOM      4  H   UNL     1       8.286  -5.034  23.676  0.00  0.00    +0.119 HD
ATOM      5  H   UNL     1       9.309  -4.094  22.883  0.00  0.00    +0.119 HD
ENDBRANCH   2   3
BRANCH   2   6
ATOM      6  C   UNL     1       6.674  -4.261  22.018  0.00  0.00    +0.147 C 
ATOM      7  O   UNL     1       5.722  -3.873  21.336  0.00  0.00    -0.296 OA
ATOM      8  C   UNL     1       7.161  -5.682  21.900  0.00  0.00    +0.087 C 
ENDBRANCH   2   6
ENDBRANCH   1   2
BRANCH   1   9
ATOM      9  C   UNL     1       9.438  -1.882  22.326  0.00  0.00    +0.037 C 
BRANCH   9  10
ATOM     10  C   UNL     1       9.819  -0.473  22.720  0.00  0.00    -0.047 A 
ATOM     11  C   UNL     1      10.287  -0.197  24.014  0.00  0.00    +0.003 A 
ATOM     12  C   UNL     1      10.637   1.102  24.381  0.00  0.00    +0.000 A 
ATOM     13  C   UNL     1      10.512   2.142  23.464  0.00  0.00    +0.000 A 
ATOM     14  C   UNL     1      10.033   1.884  22.180  0.00  0.00    +0.000 A 
ATOM     15  C   UNL     1       9.689   0.583  21.809  0.00  0.00    +0.003 A 
ENDBRANCH   9  10
ENDBRANCH   1   9
TORSDOF 5
ENDMDL
MODEL 6
REMARK VINA RESULT:      -5.0      2.747      3.069
REMARK  Name = 
REMARK  6 active torsions:
REMARK  status: ('A' for Active; 'I' for Inactive)
REMARK    1  A    between atoms: C_2  and  N_3
REMARK    2  A    between atoms: C_2  and  C_4
REMARK    3  A    between atoms: C_2  and  C_12
REMARK    4  A    between atoms: C_4  and  C_5
REMARK    5  A    between atoms: C_5  and  C_6
REMARK    6  A    between atoms: C_12  and  C_13
REMARK                            x       y       z     vdW  Elec       q    Type
REMARK                         _______ _______ _______ _____ _____    ______ ____
ROOT
ATOM      1  C   UNL     1       8.426  -2.516  23.009  0.00  0.00    +0.031 C 
ENDROOT
BRANCH   1   2
ATOM      2  C   UNL     1       7.354  -3.352  22.300  0.00  0.00    +0.118 C 
BRANCH   2   3
ATOM      3  N   UNL     1       6.002  -2.895  22.682  0.00  0.00    -0.321 NA
ATOM      4  H   UNL     1       5.653  -2.288  21.935  0.00  0.00    +0.119 HD
ATOM      5  H   UNL     1       5.372  -3.700  22.631  0.00  0.00    +0.119 HD
ENDBRANCH   2   3
BRANCH   2   6
ATOM      6  C   UNL     1       7.499  -4.844  22.664  0.00  0.00    +0.147 C 
ATOM      7  O   UNL     1       8.253  -5.227  23.563  0.00  0.00    -0.296 OA
ATOM      8  C   UNL     1       6.658  -5.839  21.906  0.00  0.00    +0.087 C 
ENDBRANCH   2   6
ENDBRANCH   1   2
BRANCH   1   9
ATOM      9  C   UNL     1       9.340  -1.757  22.039  0.00  0.00    +0.037 C 
BRANCH   9  10
ATOM     10  C   UNL     1       9.750  -0.406  22.578  0.00  0.00    -0.047 A 
ATOM     11  C   UNL     1       9.682   0.736  21.766  0.00  0.00    +0.003 A 
ATOM     12  C   UNL     1      10.061   1.984  22.260  0.00  0.00    +0.000 A 
ATOM     13  C   UNL     1      10.523   2.103  23.568  0.00  0.00    +0.000 A 
ATOM     14  C   UNL     1      10.611   0.973  24.381  0.00  0.00    +0.000 A 
ATOM     15  C   UNL     1      10.225  -0.275  23.890  0.00  0.00    +0.003 A 
ENDBRANCH   9  10
ENDBRANCH   1   9
TORSDOF 5
ENDMDL
MODEL 7
REMARK VINA RESULT:      -4.8      3.610      5.872
REMARK  Name = 
REMARK  6 active torsions:
REMARK  status: ('A' for Active; 'I' for Inactive)
REMARK    1  A    between atoms: C_2  and  N_3
REMARK    2  A    between atoms: C_2  and  C_4
REMARK    3  A    between atoms: C_2  and  C_12
REMARK    4  A    between atoms: C_4  and  C_5
REMARK    5  A    between atoms: C_5  and  C_6
REMARK    6  A    between atoms: C_12  and  C_13
REMARK                            x       y       z     vdW  Elec       q    Type
REMARK                         _______ _______ _______ _____ _____    ______ ____
ROOT
ATOM      1  C   UNL     1       9.364  -0.276  21.645  0.00  0.00    +0.031 C 
ENDROOT
BRANCH   1   2
ATOM      2  C   UNL     1       8.982   1.174  21.326  0.00  0.00    +0.118 C 
BRANCH   2   3
ATOM      3  N   UNL     1      10.071   2.095  21.713  0.00  0.00    -0.321 NA
ATOM      4  H   UNL     1      10.920   1.538  21.847  0.00  0.00    +0.119 HD
ATOM      5  H   UNL     1      10.303   2.668  20.897  0.00  0.00    +0.119 HD
ENDBRANCH   2   3
BRANCH   2   6
ATOM      6  C   UNL     1       7.696   1.577  22.078  0.00  0.00    +0.147 C 
ATOM      7  O   UNL     1       6.948   0.738  22.587  0.00  0.00    -0.296 OA
ATOM      8  C   UNL     1       7.387   3.046  22.207  0.00  0.00    +0.087 C 
ENDBRANCH   2   6
ENDBRANCH   1   2
BRANCH   1   9
ATOM      9  C   UNL     1      10.345  -0.398  22.818  0.00  0.00    +0.037 C 
BRANCH   9  10
ATOM     10  C   UNL     1       9.690  -0.969  24.054  0.00  0.00    -0.047 A 
ATOM     11  C   UNL     1       9.436  -0.153  25.167  0.00  0.00    +0.003 A 
ATOM     12  C   UNL     1       8.833  -0.678  26.310  0.00  0.00    +0.000 A 
ATOM     13  C   UNL     1       8.489  -2.025  26.359  0.00  0.00    +0.000 A 
ATOM     14  C   UNL     1       8.750  -2.851  25.266  0.00  0.00    +0.000 A 
ATOM     15  C   UNL     1       9.346  -2.326  24.119  0.00  0.00    +0.003 A 
ENDBRANCH   9  10
ENDBRANCH   1   9
TORSDOF 5
ENDMDL
MODEL 8
REMARK VINA RESULT:      -4.8      1.774      2.442
REMARK  Name = 
REMARK  6 active torsions:
REMARK  status: ('A' for Active; 'I' for Inactive)
REMARK    1  A    between atoms: C_2  and  N_3
REMARK    2  A    between atoms: C_2  and  C_4
REMARK    3  A    between atoms: C_2  and  C_12
REMARK    4  A    between atoms: C_4  and  C_5
REMARK    5  A    between atoms: C_5  and  C_6
REMARK    6  A    between atoms: C_12  and  C_13
REMARK                            x       y       z     vdW  Elec       q    Type
REMARK                         _______ _______ _______ _____ _____    ______ ____
ROOT
ATOM      1  C   UNL     1       8.668  -2.814  23.351  0.00  0.00    +0.031 C 
ENDROOT
BRANCH   1   2
ATOM      2  C   UNL     1       7.798  -3.645  24.302  0.00  0.00    +0.118 C 
BRANCH   2   3
ATOM      3  N   UNL     1       7.148  -2.774  25.304  0.00  0.00    -0.321 NA
ATOM      4  H   UNL     1       6.530  -2.128  24.806  0.00  0.00    +0.119 HD
ATOM      5  H   UNL     1       6.491  -3.348  25.840  0.00  0.00    +0.119 HD
ENDBRANCH   2   3
BRANCH   2   6
ATOM      6  C   UNL     1       8.649  -4.702  25.035  0.00  0.00    +0.147 C 
ATOM      7  O   UNL     1       9.261  -5.584  24.426  0.00  0.00    -0.296 OA
ATOM      8  C   UNL     1       8.746  -4.610  26.536  0.00  0.00    +0.087 C 
ENDBRANCH   2   6
ENDBRANCH   1   2
BRANCH   1   9
ATOM      9  C   UNL     1       9.779  -2.038  24.070  0.00  0.00    +0.037 C 
BRANCH   9  10
ATOM     10  C   UNL     1       9.930  -0.632  23.536  0.00  0.00    -0.047 A 
ATOM     11  C   UNL     1      10.491   0.376  24.335  0.00  0.00    +0.003 A 
ATOM     12  C   UNL     1      10.630   1.675  23.845  0.00  0.00    +0.000 A 
ATOM     13  C   UNL     1      10.199   1.984  22.559  0.00  0.00    +0.000 A 
ATOM     14  C   UNL     1       9.625   0.995  21.760  0.00  0.00    +0.000 A 
ATOM     15  C   UNL     1       9.492  -0.307  22.246  0.00  0.00    +0.003 A 
ENDBRANCH   9  10
ENDBRANCH   1   9
TORSDOF 5
ENDMDL
MODEL 9
REMARK VINA RESULT:      -4.6      3.039      4.501
REMARK  Name = 
REMARK  6 active torsions:
REMARK  status: ('A' for Active; 'I' for Inactive)
REMARK    1  A    between atoms: C_2  and  N_3
REMARK    2  A    between atoms: C_2  and  C_4
REMARK    3  A    between atoms: C_2  and  C_12
REMARK    4  A    between atoms: C_4  and  C_5
REMARK    5  A    between atoms: C_5  and  C_6
REMARK    6  A    between atoms: C_12  and  C_13
REMARK                            x       y       z     vdW  Elec       q    Type
REMARK                         _______ _______ _______ _____ _____    ______ ____
ROOT
ATOM      1  C   UNL     1      10.191   0.050  23.312  0.00  0.00    +0.031 C 
ENDROOT
BRANCH   1   2
ATOM      2  C   UNL     1      10.231  -1.431  22.915  0.00  0.00    +0.118 C 
BRANCH   2   3
ATOM      3  N   UNL     1      10.059  -1.582  21.456  0.00  0.00    -0.321 NA
ATOM      4  H   UNL     1       9.831  -2.563  21.266  0.00  0.00    +0.119 HD
ATOM      5  H   UNL     1       9.199  -1.095  21.188  0.00  0.00    +0.119 HD
ENDBRANCH   2   3
BRANCH   2   6
ATOM      6  C   UNL     1       9.115  -2.217  23.634  0.00  0.00    +0.147 C 
ATOM      7  O   UNL     1       9.120  -2.386  24.857  0.00  0.00    -0.296 OA
ATOM      8  C   UNL     1       7.982  -2.754  22.799  0.00  0.00    +0.087 C 
ENDBRANCH   2   6
ENDBRANCH   1   2
BRANCH   1   9
ATOM      9  C   UNL     1      10.027   0.992  22.112  0.00  0.00    +0.037 C 
BRANCH   9  10
ATOM     10  C   UNL     1       9.055   2.114  22.397  0.00  0.00    -0.047 A 
ATOM     11  C   UNL     1       9.369   3.107  23.338  0.00  0.00    +0.003 A 
ATOM     12  C   UNL     1       8.474   4.142  23.604  0.00  0.00    +0.000 A 
ATOM     13  C   UNL     1       7.250   4.191  22.943  0.00  0.00    +0.000 A 
ATOM     14  C   UNL     1       6.919   3.202  22.017  0.00  0.00    +0.000 A 
ATOM     15  C   UNL     1       7.817   2.170  21.744  0.00  0.00    +0.003 A 
ENDBRANCH   9  10
ENDBRANCH   1   9
TORSDOF 5
ENDMDL
