MODEL 1
REMARK VINA RESULT:      -7.1      0.000      0.000
REMARK  Name = 
REMARK  11 active torsions:
REMARK  status: ('A' for Active; 'I' for Inactive)
REMARK    1  A    between atoms: CA_2  and  C_3
REMARK    2  A    between atoms: CA_2  and  C_5
REMARK    3  A    between atoms: CA_2  and  N_7
REMARK    4  A    between atoms: C_3  and  C_4
REMARK    5  A    between atoms: C_5  and  O_6
REMARK    6  A    between atoms: N_14  and  C_15
REMARK    7  A    between atoms: C_15  and  C_16
REMARK    8  A    between atoms: C_15  and  C_17
REMARK    9  A    between atoms: N_19  and  C_20
REMARK   10  A    between atoms: C_20  and  C_21
REMARK   11  A    between atoms: C_24  and  C_27
REMARK                            x       y       z     vdW  Elec       q    Type
REMARK                         _______ _______ _______ _____ _____    ______ ____
ROOT
ATOM      1  N   UNL     1       4.087  -7.111  28.671  0.00  0.00    -0.308 N 
ATOM      2  H   UNL     1       4.805  -6.661  29.229  0.00  0.00    +0.149 HD
ATOM      3  C   UNL     1       4.381  -6.760  27.351  0.00  0.00    +0.219 A 
ATOM      4  N   UNL     1       5.656  -6.360  27.130  0.00  0.00    -0.197 NA
ATOM      5  C   UNL     1       6.060  -6.056  25.865  0.00  0.00    +0.152 A 
ATOM      6  N   UNL     1       7.374  -5.729  25.548  0.00  0.00    -0.323 N 
ATOM      7  H   UNL     1       7.428  -5.345  24.605  0.00  0.00    +0.148 HD
ATOM      8  C   UNL     1       5.100  -6.129  24.839  0.00  0.00    +0.148 A 
ATOM      9  N   UNL     1       5.178  -5.874  23.485  0.00  0.00    -0.231 NA
ATOM     10  C   UNL     1       3.969  -6.125  23.031  0.00  0.00    +0.201 A 
ATOM     11  N   UNL     1       3.116  -6.522  24.028  0.00  0.00    -0.312 N 
ATOM     12  C   UNL     1       3.829  -6.527  25.197  0.00  0.00    +0.167 A 
ATOM     13  N   UNL     1       3.413  -6.849  26.425  0.00  0.00    -0.195 NA
ENDROOT
BRANCH  11  14
ATOM     14  C   UNL     1       1.715  -6.888  23.868  0.00  0.00    +0.084 C 
ATOM     15  C   UNL     1       1.549  -8.394  23.650  0.00  0.00    +0.030 C 
ATOM     16  C   UNL     1       1.051  -6.096  22.742  0.00  0.00    +0.030 C 
ENDBRANCH  11  14
BRANCH   1  17
ATOM     17  CA  UNL     1       2.699  -6.901  29.100  0.00  0.00    +0.098 C 
BRANCH  17  18
ATOM     18  C   UNL     1       2.592  -5.568  29.879  0.00  0.00    +0.021 C 
ATOM     19  C   UNL     1       2.095  -4.372  29.074  0.00  0.00    +0.006 C 
ENDBRANCH  17  18
BRANCH  17  20
ATOM     20  C   UNL     1       2.165  -8.096  29.930  0.00  0.00    +0.178 C 
BRANCH  20  21
ATOM     21  O   UNL     1       1.548  -9.082  29.098  0.00  0.00    -0.393 OA
ATOM     22  H   UNL     1       1.842  -8.922  28.186  0.00  0.00    +0.209 HD
ENDBRANCH  20  21
ENDBRANCH  17  20
ENDBRANCH   1  17
BRANCH   6  23
ATOM     23  C   UNL     1       8.199  -5.045  26.522  0.00  0.00    +0.138 C 
BRANCH  23  24
ATOM     24  C   UNL     1       8.686  -3.751  25.893  0.00  0.00    -0.030 A 
ATOM     25  C   UNL     1       9.431  -3.778  24.706  0.00  0.00    +0.006 A 
ATOM     26  C   UNL     1       9.793  -2.593  24.050  0.00  0.00    +0.010 A 
ATOM     27  C   UNL     1       9.438  -1.333  24.562  0.00  0.00    +0.000 A 
ATOM     28  C   UNL     1       8.728  -1.321  25.778  0.00  0.00    +0.010 A 
ATOM     29  C   UNL     1       8.357  -2.504  26.436  0.00  0.00    +0.006 A 
BRANCH  27  30
ATOM     30  C   UNL     1       9.753  -0.069  23.853  0.00  0.00    +0.071 A 
ATOM     31  N   UNL     1       9.397  -0.026  22.540  0.00  0.00    -0.255 NA
ATOM     32  C   UNL     1       9.678   1.093  21.836  0.00  0.00    +0.111 A 
ATOM     33  C   UNL     1      10.301   2.204  22.373  0.00  0.00    +0.020 A 
ATOM     34  C   UNL     1      10.657   2.164  23.713  0.00  0.00    +0.004 A 
ATOM     35  C   UNL     1      10.384   1.018  24.461  0.00  0.00    +0.028 A 
ENDBRANCH  27  30
ENDBRANCH  23  24
ENDBRANCH   6  23
TORSDOF 8
ENDMDL
MODEL 2
REMARK VINA RESULT:      -6.9      1.335      1.716
REMARK  Name = 
REMARK  11 active torsions:
REMARK  status: ('A' for Active; 'I' for Inactive)
REMARK    1  A    between atoms: CA_2  and  C_3
REMARK    2  A    between atoms: CA_2  and  C_5
REMARK    3  A    between atoms: CA_2  and  N_7
REMARK    4  A    between atoms: C_3  and  C_4
REMARK    5  A    between atoms: C_5  and  O_6
REMARK    6  A    between atoms: N_14  and  C_15
REMARK    7  A    between atoms: C_15  and  C_16
REMARK    8  A    between atoms: C_15  and  C_17
REMARK    9  A    between atoms: N_19  and  C_20
REMARK   10  A    between atoms: C_20  and  C_21
REMARK   11  A    between atoms: C_24  and  C_27
REMARK                            x       y       z     vdW  Elec       q    Type
REMARK                         _______ _______ _______ _____ _____    ______ ____
ROOT
ATOM      1  N   UNL     1       5.390  -6.227  28.617  0.00  0.00    -0.308 N 
ATOM      2  H   UNL     1       6.203  -5.781  29.029  0.00  0.00    +0.149 HD
ATOM      3  C   UNL     1       5.506  -5.998  27.245  0.00  0.00    +0.219 A 
ATOM      4  N   UNL     1       6.753  -5.696  26.812  0.00  0.00    -0.197 NA
ATOM      5  C   UNL     1       6.984  -5.516  25.482  0.00  0.00    +0.152 A 
ATOM      6  N   UNL     1       8.253  -5.296  24.956  0.00  0.00    -0.323 N 
ATOM      7  H   UNL     1       8.188  -4.990  23.986  0.00  0.00    +0.148 HD
ATOM      8  C   UNL     1       5.882  -5.608  24.612  0.00  0.00    +0.148 A 
ATOM      9  N   UNL     1       5.775  -5.464  23.243  0.00  0.00    -0.231 NA
ATOM     10  C   UNL     1       4.502  -5.673  22.988  0.00  0.00    +0.201 A 
ATOM     11  N   UNL     1       3.784  -5.939  24.125  0.00  0.00    -0.312 N 
ATOM     12  C   UNL     1       4.658  -5.898  25.178  0.00  0.00    +0.167 A 
ATOM     13  N   UNL     1       4.410  -6.098  26.475  0.00  0.00    -0.195 NA
ENDROOT
BRANCH  11  14
ATOM     14  C   UNL     1       2.358  -6.228  24.196  0.00  0.00    +0.084 C 
ATOM     15  C   UNL     1       2.057  -7.672  23.788  0.00  0.00    +0.030 C 
ATOM     16  C   UNL     1       1.541  -5.243  23.360  0.00  0.00    +0.030 C 
ENDBRANCH  11  14
BRANCH   1  17
ATOM     17  CA  UNL     1       4.092  -5.899  29.219  0.00  0.00    +0.098 C 
BRANCH  17  18
ATOM     18  C   UNL     1       4.294  -4.882  30.369  0.00  0.00    +0.021 C 
ATOM     19  C   UNL     1       3.787  -3.470  30.097  0.00  0.00    +0.006 C 
ENDBRANCH  17  18
BRANCH  17  20
ATOM     20  C   UNL     1       3.341  -7.168  29.698  0.00  0.00    +0.178 C 
BRANCH  20  21
ATOM     21  O   UNL     1       2.681  -7.830  28.618  0.00  0.00    -0.393 OA
ATOM     22  H   UNL     1       3.271  -7.792  27.846  0.00  0.00    +0.209 HD
ENDBRANCH  20  21
ENDBRANCH  17  20
ENDBRANCH   1  17
BRANCH   6  23
ATOM     23  C   UNL     1       9.244  -4.592  25.742  0.00  0.00    +0.138 C 
BRANCH  23  24
ATOM     24  C   UNL     1       9.216  -3.132  25.326  0.00  0.00    -0.030 A 
ATOM     25  C   UNL     1       8.692  -2.160  26.190  0.00  0.00    +0.006 A 
ATOM     26  C   UNL     1       8.760  -0.796  25.873  0.00  0.00    +0.010 A 
ATOM     27  C   UNL     1       9.339  -0.349  24.673  0.00  0.00    +0.000 A 
ATOM     28  C   UNL     1       9.821  -1.340  23.796  0.00  0.00    +0.010 A 
ATOM     29  C   UNL     1       9.762  -2.706  24.111  0.00  0.00    +0.006 A 
BRANCH  27  30
ATOM     30  C   UNL     1       9.480   1.091  24.346  0.00  0.00    +0.071 A 
ATOM     31  N   UNL     1       8.466   1.893  24.771  0.00  0.00    -0.255 NA
ATOM     32  C   UNL     1       8.529   3.212  24.482  0.00  0.00    +0.111 A 
ATOM     33  C   UNL     1       9.569   3.799  23.786  0.00  0.00    +0.020 A 
ATOM     34  C   UNL     1      10.607   2.984  23.360  0.00  0.00    +0.004 A 
ATOM     35  C   UNL     1      10.563   1.616  23.639  0.00  0.00    +0.028 A 
ENDBRANCH  27  30
ENDBRANCH  23  24
ENDBRANCH   6  23
TORSDOF 8
ENDMDL
MODEL 3
REMARK VINA RESULT:      -6.9      2.602      3.935
REMARK  Name = 
REMARK  11 active torsions:
REMARK  status: ('A' for Active; 'I' for Inactive)
REMARK    1  A    between atoms: CA_2  and  C_3
REMARK    2  A    between atoms: CA_2  and  C_5
REMARK    3  A    between atoms: CA_2  and  N_7
REMARK    4  A    between atoms: C_3  and  C_4
REMARK    5  A    between atoms: C_5  and  O_6
REMARK    6  A    between atoms: N_14  and  C_15
REMARK    7  A    between atoms: C_15  and  C_16
REMARK    8  A    between atoms: C_15  and  C_17
REMARK    9  A    between atoms: N_19  and  C_20
REMARK   10  A    between atoms: C_20  and  C_21
REMARK   11  A    between atoms: C_24  and  C_27
REMARK                            x       y       z     vdW  Elec       q    Type
REMARK                         _______ _______ _______ _____ _____    ______ ____
ROOT
ATOM      1  N   UNL     1       7.210  -5.100  27.335  0.00  0.00    -0.308 N 
ATOM      2  H   UNL     1       7.796  -4.432  27.825  0.00  0.00    +0.149 HD
ATOM      3  C   UNL     1       7.120  -4.615  26.029  0.00  0.00    +0.219 A 
ATOM      4  N   UNL     1       8.097  -3.751  25.665  0.00  0.00    -0.197 NA
ATOM      5  C   UNL     1       8.135  -3.269  24.391  0.00  0.00    +0.152 A 
ATOM      6  N   UNL     1       9.158  -2.454  23.919  0.00  0.00    -0.323 N 
ATOM      7  H   UNL     1       8.902  -2.043  23.022  0.00  0.00    +0.148 HD
ATOM      8  C   UNL     1       7.107  -3.663  23.515  0.00  0.00    +0.148 A 
ATOM      9  N   UNL     1       6.849  -3.347  22.196  0.00  0.00    -0.231 NA
ATOM     10  C   UNL     1       5.759  -4.023  21.902  0.00  0.00    +0.201 A 
ATOM     11  N   UNL     1       5.300  -4.752  22.968  0.00  0.00    -0.312 N 
ATOM     12  C   UNL     1       6.156  -4.529  24.013  0.00  0.00    +0.167 A 
ATOM     13  N   UNL     1       6.108  -5.031  25.250  0.00  0.00    -0.195 NA
ENDROOT
BRANCH  11  14
ATOM     14  C   UNL     1       4.129  -5.618  22.979  0.00  0.00    +0.084 C 
ATOM     15  C   UNL     1       2.904  -4.899  23.549  0.00  0.00    +0.030 C 
ATOM     16  C   UNL     1       4.398  -6.920  23.734  0.00  0.00    +0.030 C 
ENDBRANCH  11  14
BRANCH   1  17
ATOM     17  CA  UNL     1       5.941  -5.452  27.982  0.00  0.00    +0.098 C 
BRANCH  17  18
ATOM     18  C   UNL     1       5.287  -4.177  28.570  0.00  0.00    +0.021 C 
ATOM     19  C   UNL     1       3.975  -3.750  27.922  0.00  0.00    +0.006 C 
ENDBRANCH  17  18
BRANCH  17  20
ATOM     20  C   UNL     1       6.126  -6.552  29.058  0.00  0.00    +0.178 C 
BRANCH  20  21
ATOM     21  O   UNL     1       5.690  -7.829  28.587  0.00  0.00    -0.393 OA
ATOM     22  H   UNL     1       4.838  -7.701  28.139  0.00  0.00    +0.209 HD
ENDBRANCH  20  21
ENDBRANCH  17  20
ENDBRANCH   1  17
BRANCH   6  23
ATOM     23  C   UNL     1       9.828  -1.544  24.826  0.00  0.00    +0.138 C 
BRANCH  23  24
ATOM     24  C   UNL     1       9.571  -0.129  24.339  0.00  0.00    -0.030 A 
ATOM     25  C   UNL     1       8.319   0.221  23.813  0.00  0.00    +0.006 A 
ATOM     26  C   UNL     1       8.025   1.547  23.464  0.00  0.00    +0.010 A 
ATOM     27  C   UNL     1       8.974   2.573  23.610  0.00  0.00    +0.000 A 
ATOM     28  C   UNL     1      10.241   2.197  24.099  0.00  0.00    +0.010 A 
ATOM     29  C   UNL     1      10.539   0.874  24.456  0.00  0.00    +0.006 A 
BRANCH  27  30
ATOM     30  C   UNL     1       8.666   3.991  23.309  0.00  0.00    +0.071 A 
ATOM     31  N   UNL     1       7.556   4.204  22.550  0.00  0.00    -0.255 NA
ATOM     32  C   UNL     1       7.236   5.476  22.224  0.00  0.00    +0.111 A 
ATOM     33  C   UNL     1       7.967   6.580  22.624  0.00  0.00    +0.020 A 
ATOM     34  C   UNL     1       9.093   6.365  23.403  0.00  0.00    +0.004 A 
ATOM     35  C   UNL     1       9.449   5.060  23.748  0.00  0.00    +0.028 A 
ENDBRANCH  27  30
ENDBRANCH  23  24
ENDBRANCH   6  23
TORSDOF 8
ENDMDL
MODEL 4
REMARK VINA RESULT:      -6.8      3.239      9.108
REMARK  Name = 
REMARK  11 active torsions:
REMARK  status: ('A' for Active; 'I' for Inactive)
REMARK    1  A    between atoms: CA_2  and  C_3
REMARK    2  A    between atoms: CA_2  and  C_5
REMARK    3  A    between atoms: CA_2  and  N_7
REMARK    4  A    between atoms: C_3  and  C_4
REMARK    5  A    between atoms: C_5  and  O_6
REMARK    6  A    between atoms: N_14  and  C_15
REMARK    7  A    between atoms: C_15  and  C_16
REMARK    8  A    between atoms: C_15  and  C_17
REMARK    9  A    between atoms: N_19  and  C_20
REMARK   10  A    between atoms: C_20  and  C_21
REMARK   11  A    between atoms: C_24  and  C_27
REMARK                            x       y       z     vdW  Elec       q    Type
REMARK                         _______ _______ _______ _____ _____    ______ ____
ROOT
ATOM      1  N   UNL     1       5.857  -0.129  25.393  0.00  0.00    -0.308 N 
ATOM      2  H   UNL     1       5.577  -0.787  26.114  0.00  0.00    +0.149 HD
ATOM      3  C   UNL     1       6.959  -0.719  24.771  0.00  0.00    +0.219 A 
ATOM      4  N   UNL     1       7.070  -2.058  24.941  0.00  0.00    -0.197 NA
ATOM      5  C   UNL     1       8.076  -2.738  24.323  0.00  0.00    +0.152 A 
ATOM      6  N   UNL     1       8.198  -4.123  24.374  0.00  0.00    -0.323 N 
ATOM      7  H   UNL     1       9.111  -4.413  24.026  0.00  0.00    +0.148 HD
ATOM      8  C   UNL     1       8.996  -1.992  23.564  0.00  0.00    +0.148 A 
ATOM      9  N   UNL     1      10.113  -2.365  22.844  0.00  0.00    -0.231 NA
ATOM     10  C   UNL     1      10.567  -1.241  22.333  0.00  0.00    +0.201 A 
ATOM     11  N   UNL     1       9.801  -0.162  22.695  0.00  0.00    -0.312 N 
ATOM     12  C   UNL     1       8.788  -0.630  23.488  0.00  0.00    +0.167 A 
ATOM     13  N   UNL     1       7.799   0.057  24.067  0.00  0.00    -0.195 NA
ENDROOT
BRANCH  11  14
ATOM     14  C   UNL     1      10.016   1.221  22.293  0.00  0.00    +0.084 C 
ATOM     15  C   UNL     1      10.529   2.071  23.458  0.00  0.00    +0.030 C 
ATOM     16  C   UNL     1       8.755   1.833  21.683  0.00  0.00    +0.030 C 
ENDBRANCH  11  14
BRANCH   1  17
ATOM     17  CA  UNL     1       6.023   1.267  25.813  0.00  0.00    +0.098 C 
BRANCH  17  18
ATOM     18  C   UNL     1       6.002   1.350  27.359  0.00  0.00    +0.021 C 
ATOM     19  C   UNL     1       7.158   0.658  28.073  0.00  0.00    +0.006 C 
ENDBRANCH  17  18
BRANCH  17  20
ATOM     20  C   UNL     1       4.959   2.194  25.173  0.00  0.00    +0.178 C 
BRANCH  20  21
ATOM     21  O   UNL     1       4.701   1.840  23.813  0.00  0.00    -0.393 OA
ATOM     22  H   UNL     1       4.294   2.610  23.382  0.00  0.00    +0.209 HD
ENDBRANCH  20  21
ENDBRANCH  17  20
ENDBRANCH   1  17
BRANCH   6  23
ATOM     23  C   UNL     1       7.748  -4.840  25.549  0.00  0.00    +0.138 C 
BRANCH  23  24
ATOM     24  C   UNL     1       6.400  -5.462  25.227  0.00  0.00    -0.030 A 
ATOM     25  C   UNL     1       5.954  -5.534  23.899  0.00  0.00    +0.006 A 
ATOM     26  C   UNL     1       4.767  -6.204  23.569  0.00  0.00    +0.010 A 
ATOM     27  C   UNL     1       3.970  -6.814  24.552  0.00  0.00    +0.000 A 
ATOM     28  C   UNL     1       4.409  -6.694  25.886  0.00  0.00    +0.010 A 
ATOM     29  C   UNL     1       5.599  -6.032  26.222  0.00  0.00    +0.006 A 
BRANCH  27  30
ATOM     30  C   UNL     1       2.746  -7.582  24.221  0.00  0.00    +0.071 A 
ATOM     31  N   UNL     1       2.503  -8.668  25.003  0.00  0.00    -0.255 NA
ATOM     32  C   UNL     1       1.412  -9.421  24.735  0.00  0.00    +0.111 A 
ATOM     33  C   UNL     1       0.521  -9.148  23.714  0.00  0.00    +0.020 A 
ATOM     34  C   UNL     1       0.764  -8.036  22.921  0.00  0.00    +0.004 A 
ATOM     35  C   UNL     1       1.887  -7.246  23.173  0.00  0.00    +0.028 A 
ENDBRANCH  27  30
ENDBRANCH  23  24
ENDBRANCH   6  23
TORSDOF 8
ENDMDL
MODEL 5
REMARK VINA RESULT:      -6.7      4.020      9.654
REMARK  Name = 
REMARK  11 active torsions:
REMARK  status: ('A' for Active; 'I' for Inactive)
REMARK    1  A    between atoms: CA_2  and  C_3
REMARK    2  A    between atoms: CA_2  and  C_5
REMARK    3  A    between atoms: CA_2  and  N_7
REMARK    4  A    between atoms: C_3  and  C_4
REMARK    5  A    between atoms: C_5  and  O_6
REMARK    6  A    between atoms: N_14  and  C_15
REMARK    7  A    between atoms: C_15  and  C_16
REMARK    8  A    between atoms: C_15  and  C_17
REMARK    9  A    between atoms: N_19  and  C_20
REMARK   10  A    between atoms: C_20  and  C_21
REMARK   11  A    between atoms: C_24  and  C_27
REMARK                            x       y       z     vdW  Elec       q    Type
REMARK                         _______ _______ _______ _____ _____    ______ ____
ROOT
ATOM      1  N   UNL     1      10.021   0.561  24.072  0.00  0.00    -0.308 N 
ATOM      2  H   UNL     1      10.315  -0.277  23.581  0.00  0.00    +0.149 HD
ATOM      3  C   UNL     1       9.007   0.140  24.935  0.00  0.00    +0.219 A 
ATOM      4  N   UNL     1       8.999  -1.186  25.214  0.00  0.00    -0.197 NA
ATOM      5  C   UNL     1       8.087  -1.686  26.094  0.00  0.00    +0.152 A 
ATOM      6  N   UNL     1       8.078  -3.017  26.500  0.00  0.00    -0.323 N 
ATOM      7  H   UNL     1       7.213  -3.232  26.993  0.00  0.00    +0.148 HD
ATOM      8  C   UNL     1       7.151  -0.791  26.642  0.00  0.00    +0.148 A 
ATOM      9  N   UNL     1       6.110  -0.976  27.529  0.00  0.00    -0.231 NA
ATOM     10  C   UNL     1       5.592   0.223  27.685  0.00  0.00    +0.201 A 
ATOM     11  N   UNL     1       6.245   1.169  26.938  0.00  0.00    -0.312 N 
ATOM     12  C   UNL     1       7.249   0.531  26.260  0.00  0.00    +0.167 A 
ATOM     13  N   UNL     1       8.145   1.050  25.416  0.00  0.00    -0.195 NA
ENDROOT
BRANCH  11  14
ATOM     14  C   UNL     1       5.938   2.592  26.890  0.00  0.00    +0.084 C 
ATOM     15  C   UNL     1       6.795   3.386  27.878  0.00  0.00    +0.030 C 
ATOM     16  C   UNL     1       4.450   2.855  27.122  0.00  0.00    +0.030 C 
ENDBRANCH  11  14
BRANCH   1  17
ATOM     17  CA  UNL     1       9.717   1.731  23.240  0.00  0.00    +0.098 C 
BRANCH  17  18
ATOM     18  C   UNL     1       9.529   1.286  21.768  0.00  0.00    +0.021 C 
ATOM     19  C   UNL     1       9.663  -0.210  21.509  0.00  0.00    +0.006 C 
ENDBRANCH  17  18
BRANCH  17  20
ATOM     20  C   UNL     1      10.798   2.833  23.375  0.00  0.00    +0.178 C 
BRANCH  20  21
ATOM     21  O   UNL     1      10.225   4.141  23.344  0.00  0.00    -0.393 OA
ATOM     22  H   UNL     1       9.273   4.040  23.174  0.00  0.00    +0.209 HD
ENDBRANCH  20  21
ENDBRANCH  17  20
ENDBRANCH   1  17
BRANCH   6  23
ATOM     23  C   UNL     1       8.522  -4.049  25.586  0.00  0.00    +0.138 C 
BRANCH  23  24
ATOM     24  C   UNL     1       7.306  -4.860  25.174  0.00  0.00    -0.030 A 
ATOM     25  C   UNL     1       6.554  -5.548  26.137  0.00  0.00    +0.006 A 
ATOM     26  C   UNL     1       5.366  -6.207  25.794  0.00  0.00    +0.010 A 
ATOM     27  C   UNL     1       4.889  -6.221  24.472  0.00  0.00    +0.000 A 
ATOM     28  C   UNL     1       5.678  -5.563  23.508  0.00  0.00    +0.010 A 
ATOM     29  C   UNL     1       6.865  -4.895  23.847  0.00  0.00    +0.006 A 
BRANCH  27  30
ATOM     30  C   UNL     1       3.603  -6.856  24.096  0.00  0.00    +0.071 A 
ATOM     31  N   UNL     1       3.239  -7.934  24.843  0.00  0.00    -0.255 NA
ATOM     32  C   UNL     1       2.086  -8.568  24.533  0.00  0.00    +0.111 A 
ATOM     33  C   UNL     1       1.247  -8.181  23.505  0.00  0.00    +0.020 A 
ATOM     34  C   UNL     1       1.613  -7.078  22.749  0.00  0.00    +0.004 A 
ATOM     35  C   UNL     1       2.802  -6.409  23.043  0.00  0.00    +0.028 A 
ENDBRANCH  27  30
ENDBRANCH  23  24
ENDBRANCH   6  23
TORSDOF 8
ENDMDL
MODEL 6
REMARK VINA RESULT:      -6.6      3.293      8.670
REMARK  Name = 
REMARK  11 active torsions:
REMARK  status: ('A' for Active; 'I' for Inactive)
REMARK    1  A    between atoms: CA_2  and  C_3
REMARK    2  A    between atoms: CA_2  and  C_5
REMARK    3  A    between atoms: CA_2  and  N_7
REMARK    4  A    between atoms: C_3  and  C_4
REMARK    5  A    between atoms: C_5  and  O_6
REMARK    6  A    between atoms: N_14  and  C_15
REMARK    7  A    between atoms: C_15  and  C_16
REMARK    8  A    between atoms: C_15  and  C_17
REMARK    9  A    between atoms: N_19  and  C_20
REMARK   10  A    between atoms: C_20  and  C_21
REMARK   11  A    between atoms: C_24  and  C_27
REMARK                            x       y       z     vdW  Elec       q    Type
REMARK                         _______ _______ _______ _____ _____    ______ ____
ROOT
ATOM      1  N   UNL     1       5.561  -0.594  26.157  0.00  0.00    -0.308 N 
ATOM      2  H   UNL     1       5.623  -1.482  26.643  0.00  0.00    +0.149 HD
ATOM      3  C   UNL     1       6.695  -0.545  25.344  0.00  0.00    +0.219 A 
ATOM      4  N   UNL     1       7.269  -1.744  25.080  0.00  0.00    -0.197 NA
ATOM      5  C   UNL     1       8.344  -1.810  24.245  0.00  0.00    +0.152 A 
ATOM      6  N   UNL     1       8.926  -3.012  23.855  0.00  0.00    -0.323 N 
ATOM      7  H   UNL     1       9.823  -2.842  23.403  0.00  0.00    +0.148 HD
ATOM      8  C   UNL     1       8.843  -0.601  23.729  0.00  0.00    +0.148 A 
ATOM      9  N   UNL     1       9.904  -0.327  22.890  0.00  0.00    -0.231 NA
ATOM     10  C   UNL     1       9.880   0.980  22.743  0.00  0.00    +0.201 A 
ATOM     11  N   UNL     1       8.859   1.561  23.451  0.00  0.00    -0.312 N 
ATOM     12  C   UNL     1       8.185   0.555  24.091  0.00  0.00    +0.167 A 
ATOM     13  N   UNL     1       7.118   0.646  24.890  0.00  0.00    -0.195 NA
ENDROOT
BRANCH  11  14
ATOM     14  C   UNL     1       8.541   2.981  23.496  0.00  0.00    +0.084 C 
ATOM     15  C   UNL     1       7.768   3.424  22.252  0.00  0.00    +0.030 C 
ATOM     16  C   UNL     1       9.795   3.833  23.693  0.00  0.00    +0.030 C 
ENDBRANCH  11  14
BRANCH   1  17
ATOM     17  CA  UNL     1       5.312   0.589  26.988  0.00  0.00    +0.098 C 
BRANCH  17  18
ATOM     18  C   UNL     1       5.245   0.172  28.478  0.00  0.00    +0.021 C 
ATOM     19  C   UNL     1       4.058  -0.703  28.865  0.00  0.00    +0.006 C 
ENDBRANCH  17  18
BRANCH  17  20
ATOM     20  C   UNL     1       4.035   1.348  26.546  0.00  0.00    +0.178 C 
BRANCH  20  21
ATOM     21  O   UNL     1       4.143   1.825  25.203  0.00  0.00    -0.393 OA
ATOM     22  H   UNL     1       4.988   2.298  25.127  0.00  0.00    +0.209 HD
ENDBRANCH  20  21
ENDBRANCH  17  20
ENDBRANCH   1  17
BRANCH   6  23
ATOM     23  C   UNL     1       8.915  -4.143  24.760  0.00  0.00    +0.138 C 
BRANCH  23  24
ATOM     24  C   UNL     1       7.619  -4.903  24.539  0.00  0.00    -0.030 A 
ATOM     25  C   UNL     1       6.813  -5.259  25.629  0.00  0.00    +0.006 A 
ATOM     26  C   UNL     1       5.560  -5.860  25.439  0.00  0.00    +0.010 A 
ATOM     27  C   UNL     1       5.069  -6.144  24.154  0.00  0.00    +0.000 A 
ATOM     28  C   UNL     1       5.910  -5.821  23.070  0.00  0.00    +0.010 A 
ATOM     29  C   UNL     1       7.162  -5.213  23.254  0.00  0.00    +0.006 A 
BRANCH  27  30
ATOM     30  C   UNL     1       3.722  -6.719  23.925  0.00  0.00    +0.071 A 
ATOM     31  N   UNL     1       3.440  -7.853  24.624  0.00  0.00    -0.255 NA
ATOM     32  C   UNL     1       2.234  -8.435  24.440  0.00  0.00    +0.111 A 
ATOM     33  C   UNL     1       1.263  -7.943  23.589  0.00  0.00    +0.020 A 
ATOM     34  C   UNL     1       1.547  -6.783  22.883  0.00  0.00    +0.004 A 
ATOM     35  C   UNL     1       2.787  -6.165  23.049  0.00  0.00    +0.028 A 
ENDBRANCH  27  30
ENDBRANCH  23  24
ENDBRANCH   6  23
TORSDOF 8
ENDMDL
MODEL 7
REMARK VINA RESULT:      -6.4      3.018      4.426
REMARK  Name = 
REMARK  11 active torsions:
REMARK  status: ('A' for Active; 'I' for Inactive)
REMARK    1  A    between atoms: CA_2  and  C_3
REMARK    2  A    between atoms: CA_2  and  C_5
REMARK    3  A    between atoms: CA_2  and  N_7
REMARK    4  A    between atoms: C_3  and  C_4
REMARK    5  A    between atoms: C_5  and  O_6
REMARK    6  A    between atoms: N_14  and  C_15
REMARK    7  A    between atoms: C_15  and  C_16
REMARK    8  A    between atoms: C_15  and  C_17
REMARK    9  A    between atoms: N_19  and  C_20
REMARK   10  A    between atoms: C_20  and  C_21
REMARK   11  A    between atoms: C_24  and  C_27
REMARK                            x       y       z     vdW  Elec       q    Type
REMARK                         _______ _______ _______ _____ _____    ______ ____
ROOT
ATOM      1  N   UNL     1       6.765  -4.965  27.655  0.00  0.00    -0.308 N 
ATOM      2  H   UNL     1       6.890  -4.211  28.323  0.00  0.00    +0.149 HD
ATOM      3  C   UNL     1       7.053  -4.398  26.411  0.00  0.00    +0.219 A 
ATOM      4  N   UNL     1       7.795  -3.265  26.450  0.00  0.00    -0.197 NA
ATOM      5  C   UNL     1       8.182  -2.670  25.287  0.00  0.00    +0.152 A 
ATOM      6  N   UNL     1       9.020  -1.560  25.248  0.00  0.00    -0.323 N 
ATOM      7  H   UNL     1       9.025  -1.151  24.314  0.00  0.00    +0.148 HD
ATOM      8  C   UNL     1       7.741  -3.246  24.082  0.00  0.00    +0.148 A 
ATOM      9  N   UNL     1       7.937  -2.887  22.764  0.00  0.00    -0.231 NA
ATOM     10  C   UNL     1       7.299  -3.806  22.073  0.00  0.00    +0.201 A 
ATOM     11  N   UNL     1       6.696  -4.735  22.882  0.00  0.00    -0.312 N 
ATOM     12  C   UNL     1       6.971  -4.386  24.177  0.00  0.00    +0.167 A 
ATOM     13  N   UNL     1       6.595  -5.001  25.302  0.00  0.00    -0.195 NA
ENDROOT
BRANCH  11  14
ATOM     14  C   UNL     1       5.924  -5.888  22.442  0.00  0.00    +0.084 C 
ATOM     15  C   UNL     1       6.071  -6.123  20.937  0.00  0.00    +0.030 C 
ATOM     16  C   UNL     1       4.451  -5.763  22.834  0.00  0.00    +0.030 C 
ENDBRANCH  11  14
BRANCH   1  17
ATOM     17  CA  UNL     1       5.508  -5.716  27.747  0.00  0.00    +0.098 C 
BRANCH  17  18
ATOM     18  C   UNL     1       4.332  -4.735  27.974  0.00  0.00    +0.021 C 
ATOM     19  C   UNL     1       4.335  -4.001  29.310  0.00  0.00    +0.006 C 
ENDBRANCH  17  18
BRANCH  17  20
ATOM     20  C   UNL     1       5.567  -6.808  28.845  0.00  0.00    +0.178 C 
BRANCH  20  21
ATOM     21  O   UNL     1       4.330  -7.516  28.951  0.00  0.00    -0.393 OA
ATOM     22  H   UNL     1       3.721  -6.967  29.472  0.00  0.00    +0.209 HD
ENDBRANCH  20  21
ENDBRANCH  17  20
ENDBRANCH   1  17
BRANCH   6  23
ATOM     23  C   UNL     1       8.985  -0.594  26.326  0.00  0.00    +0.138 C 
BRANCH  23  24
ATOM     24  C   UNL     1       8.678   0.766  25.722  0.00  0.00    -0.030 A 
ATOM     25  C   UNL     1       9.578   1.361  24.827  0.00  0.00    +0.006 A 
ATOM     26  C   UNL     1       9.263   2.561  24.173  0.00  0.00    +0.010 A 
ATOM     27  C   UNL     1       8.044   3.222  24.398  0.00  0.00    +0.000 A 
ATOM     28  C   UNL     1       7.170   2.634  25.334  0.00  0.00    +0.010 A 
ATOM     29  C   UNL     1       7.476   1.431  25.986  0.00  0.00    +0.006 A 
BRANCH  27  30
ATOM     30  C   UNL     1       7.662   4.456  23.671  0.00  0.00    +0.071 A 
ATOM     31  N   UNL     1       8.673   5.335  23.430  0.00  0.00    -0.255 NA
ATOM     32  C   UNL     1       8.381   6.488  22.789  0.00  0.00    +0.111 A 
ATOM     33  C   UNL     1       7.113   6.827  22.355  0.00  0.00    +0.020 A 
ATOM     34  C   UNL     1       6.084   5.929  22.592  0.00  0.00    +0.004 A 
ATOM     35  C   UNL     1       6.357   4.733  23.258  0.00  0.00    +0.028 A 
ENDBRANCH  27  30
ENDBRANCH  23  24
ENDBRANCH   6  23
TORSDOF 8
ENDMDL
MODEL 8
REMARK VINA RESULT:      -6.2      4.026      6.590
REMARK  Name = 
REMARK  11 active torsions:
REMARK  status: ('A' for Active; 'I' for Inactive)
REMARK    1  A    between atoms: CA_2  and  C_3
REMARK    2  A    between atoms: CA_2  and  C_5
REMARK    3  A    between atoms: CA_2  and  N_7
REMARK    4  A    between atoms: C_3  and  C_4
REMARK    5  A    between atoms: C_5  and  O_6
REMARK    6  A    between atoms: N_14  and  C_15
REMARK    7  A    between atoms: C_15  and  C_16
REMARK    8  A    between atoms: C_15  and  C_17
REMARK    9  A    between atoms: N_19  and  C_20
REMARK   10  A    between atoms: C_20  and  C_21
REMARK   11  A    between atoms: C_24  and  C_27
REMARK                            x       y       z     vdW  Elec       q    Type
REMARK                         _______ _______ _______ _____ _____    ______ ____
ROOT
ATOM      1  N   UNL     1       6.098   1.648  24.299  0.00  0.00    -0.308 N 
ATOM      2  H   UNL     1       6.669   1.875  23.491  0.00  0.00    +0.149 HD
ATOM      3  C   UNL     1       6.177   0.259  24.421  0.00  0.00    +0.219 A 
ATOM      4  N   UNL     1       7.239  -0.316  23.807  0.00  0.00    -0.197 NA
ATOM      5  C   UNL     1       7.440  -1.658  23.919  0.00  0.00    +0.152 A 
ATOM      6  N   UNL     1       8.557  -2.303  23.395  0.00  0.00    -0.323 N 
ATOM      7  H   UNL     1       8.422  -3.313  23.407  0.00  0.00    +0.148 HD
ATOM      8  C   UNL     1       6.489  -2.402  24.640  0.00  0.00    +0.148 A 
ATOM      9  N   UNL     1       6.393  -3.750  24.919  0.00  0.00    -0.231 NA
ATOM     10  C   UNL     1       5.301  -3.860  25.645  0.00  0.00    +0.201 A 
ATOM     11  N   UNL     1       4.687  -2.650  25.841  0.00  0.00    -0.312 N 
ATOM     12  C   UNL     1       5.439  -1.703  25.199  0.00  0.00    +0.167 A 
ATOM     13  N   UNL     1       5.230  -0.386  25.121  0.00  0.00    -0.195 NA
ENDROOT
BRANCH  11  14
ATOM     14  C   UNL     1       3.471  -2.415  26.606  0.00  0.00    +0.084 C 
ATOM     15  C   UNL     1       3.624  -2.871  28.059  0.00  0.00    +0.030 C 
ATOM     16  C   UNL     1       2.257  -3.075  25.951  0.00  0.00    +0.030 C 
ENDBRANCH  11  14
BRANCH   1  17
ATOM     17  CA  UNL     1       4.748   2.223  24.326  0.00  0.00    +0.098 C 
BRANCH  17  18
ATOM     18  C   UNL     1       4.520   3.072  23.051  0.00  0.00    +0.021 C 
ATOM     19  C   UNL     1       3.063   3.332  22.685  0.00  0.00    +0.006 C 
ENDBRANCH  17  18
BRANCH  17  20
ATOM     20  C   UNL     1       4.495   3.042  25.616  0.00  0.00    +0.178 C 
BRANCH  20  21
ATOM     21  O   UNL     1       4.560   2.222  26.784  0.00  0.00    -0.393 OA
ATOM     22  H   UNL     1       4.215   2.743  27.528  0.00  0.00    +0.209 HD
ENDBRANCH  20  21
ENDBRANCH  17  20
ENDBRANCH   1  17
BRANCH   6  23
ATOM     23  C   UNL     1       9.181  -1.795  22.191  0.00  0.00    +0.138 C 
BRANCH  23  24
ATOM     24  C   UNL     1       9.685  -0.392  22.485  0.00  0.00    -0.030 A 
ATOM     25  C   UNL     1       9.349   0.672  21.637  0.00  0.00    +0.006 A 
ATOM     26  C   UNL     1       9.709   1.990  21.950  0.00  0.00    +0.010 A 
ATOM     27  C   UNL     1      10.434   2.296  23.114  0.00  0.00    +0.000 A 
ATOM     28  C   UNL     1      10.802   1.211  23.934  0.00  0.00    +0.010 A 
ATOM     29  C   UNL     1      10.439  -0.109  23.629  0.00  0.00    +0.006 A 
BRANCH  27  30
ATOM     30  C   UNL     1      10.770   3.688  23.500  0.00  0.00    +0.071 A 
ATOM     31  N   UNL     1       9.754   4.409  24.047  0.00  0.00    -0.255 NA
ATOM     32  C   UNL     1       9.995   5.692  24.399  0.00  0.00    +0.111 A 
ATOM     33  C   UNL     1      11.218   6.316  24.242  0.00  0.00    +0.020 A 
ATOM     34  C   UNL     1      12.256   5.580  23.691  0.00  0.00    +0.004 A 
ATOM     35  C   UNL     1      12.032   4.255  23.314  0.00  0.00    +0.028 A 
ENDBRANCH  27  30
ENDBRANCH  23  24
ENDBRANCH   6  23
TORSDOF 8
ENDMDL
MODEL 9
REMARK VINA RESULT:      -6.1      2.046      4.124
REMARK  Name = 
REMARK  11 active torsions:
REMARK  status: ('A' for Active; 'I' for Inactive)
REMARK    1  A    between atoms: CA_2  and  C_3
REMARK    2  A    between atoms: CA_2  and  C_5
REMARK    3  A    between atoms: CA_2  and  N_7
REMARK    4  A    between atoms: C_3  and  C_4
REMARK    5  A    between atoms: C_5  and  O_6
REMARK    6  A    between atoms: N_14  and  C_15
REMARK    7  A    between atoms: C_15  and  C_16
REMARK    8  A    between atoms: C_15  and  C_17
REMARK    9  A    between atoms: N_19  and  C_20
REMARK   10  A    between atoms: C_20  and  C_21
REMARK   11  A    between atoms: C_24  and  C_27
REMARK                            x       y       z     vdW  Elec       q    Type
REMARK                         _______ _______ _______ _____ _____    ______ ____
ROOT
ATOM      1  N   UNL     1       3.490  -4.435  25.307  0.00  0.00    -0.308 N 
ATOM      2  H   UNL     1       4.130  -4.472  24.520  0.00  0.00    +0.149 HD
ATOM      3  C   UNL     1       4.239  -4.865  26.404  0.00  0.00    +0.219 A 
ATOM      4  N   UNL     1       5.582  -4.777  26.258  0.00  0.00    -0.197 NA
ATOM      5  C   UNL     1       6.399  -5.113  27.295  0.00  0.00    +0.152 A 
ATOM      6  N   UNL     1       7.781  -4.960  27.250  0.00  0.00    -0.323 N 
ATOM      7  H   UNL     1       8.219  -5.448  28.030  0.00  0.00    +0.148 HD
ATOM      8  C   UNL     1       5.796  -5.591  28.472  0.00  0.00    +0.148 A 
ATOM      9  N   UNL     1       6.328  -6.023  29.670  0.00  0.00    -0.231 NA
ATOM     10  C   UNL     1       5.281  -6.338  30.402  0.00  0.00    +0.201 A 
ATOM     11  N   UNL     1       4.102  -6.135  29.731  0.00  0.00    -0.312 N 
ATOM     12  C   UNL     1       4.418  -5.657  28.488  0.00  0.00    +0.167 A 
ATOM     13  N   UNL     1       3.594  -5.315  27.493  0.00  0.00    -0.195 NA
ENDROOT
BRANCH  11  14
ATOM     14  C   UNL     1       2.763  -6.368  30.253  0.00  0.00    +0.084 C 
ATOM     15  C   UNL     1       2.033  -7.457  29.463  0.00  0.00    +0.030 C 
ATOM     16  C   UNL     1       1.941  -5.079  30.293  0.00  0.00    +0.030 C 
ENDBRANCH  11  14
BRANCH   1  17
ATOM     17  CA  UNL     1       2.187  -5.085  25.119  0.00  0.00    +0.098 C 
BRANCH  17  18
ATOM     18  C   UNL     1       2.203  -5.911  23.810  0.00  0.00    +0.021 C 
ATOM     19  C   UNL     1       3.521  -5.907  23.043  0.00  0.00    +0.006 C 
ENDBRANCH  17  18
BRANCH  17  20
ATOM     20  C   UNL     1       1.024  -4.062  25.140  0.00  0.00    +0.178 C 
BRANCH  20  21
ATOM     21  O   UNL     1       1.499  -2.725  25.317  0.00  0.00    -0.393 OA
ATOM     22  H   UNL     1       1.032  -2.161  24.678  0.00  0.00    +0.209 HD
ENDBRANCH  20  21
ENDBRANCH  17  20
ENDBRANCH   1  17
BRANCH   6  23
ATOM     23  C   UNL     1       8.479  -5.097  25.989  0.00  0.00    +0.138 C 
BRANCH  23  24
ATOM     24  C   UNL     1       8.854  -3.705  25.510  0.00  0.00    -0.030 A 
ATOM     25  C   UNL     1       9.498  -3.531  24.277  0.00  0.00    +0.006 A 
ATOM     26  C   UNL     1       9.750  -2.250  23.766  0.00  0.00    +0.010 A 
ATOM     27  C   UNL     1       9.385  -1.092  24.473  0.00  0.00    +0.000 A 
ATOM     28  C   UNL     1       8.779  -1.283  25.731  0.00  0.00    +0.010 A 
ATOM     29  C   UNL     1       8.517  -2.563  26.244  0.00  0.00    +0.006 A 
BRANCH  27  30
ATOM     30  C   UNL     1       9.583   0.271  23.925  0.00  0.00    +0.071 A 
ATOM     31  N   UNL     1       9.251   1.295  24.758  0.00  0.00    -0.255 NA
ATOM     32  C   UNL     1       9.390   2.561  24.305  0.00  0.00    +0.111 A 
ATOM     33  C   UNL     1       9.859   2.880  23.044  0.00  0.00    +0.020 A 
ATOM     34  C   UNL     1      10.204   1.838  22.197  0.00  0.00    +0.004 A 
ATOM     35  C   UNL     1      10.064   0.521  22.638  0.00  0.00    +0.028 A 
ENDBRANCH  27  30
ENDBRANCH  23  24
ENDBRANCH   6  23
TORSDOF 8
ENDMDL
