MODEL 1
REMARK VINA RESULT:      -8.5      0.000      0.000
REMARK  Name = 
REMARK  9 active torsions:
REMARK  status: ('A' for Active; 'I' for Inactive)
REMARK    1  A    between atoms: C_1  and  C_2
REMARK    2  A    between atoms: C_2  and  C_3
REMARK    3  A    between atoms: C_6  and  C_7
REMARK    4  A    between atoms: C_6  and  C_8
REMARK    5  A    between atoms: C_11  and  C_15
REMARK    6  A    between atoms: C_15  and  C_18
REMARK    7  A    between atoms: N_16  and  O_17
REMARK    8  A    between atoms: C_23  and  C_28
REMARK    9  A    between atoms: C_28  and  O_29
REMARK                            x       y       z     vdW  Elec       q    Type
REMARK                         _______ _______ _______ _____ _____    ______ ____
ROOT
ATOM      1  C   UNL     1       8.853  -4.152  24.881  0.00  0.00    +0.117 C 
ATOM      2  N   UNL     1       9.951  -4.863  24.905  0.00  0.00    -0.086 NA
ENDROOT
BRANCH   1   8
ATOM      3  C   UNL     1       2.367  -4.797  24.450  0.00  0.00    +0.016 C 
ATOM      4  C   UNL     1       3.239  -5.984  24.917  0.00  0.00    -0.010 C 
ATOM      5  C   UNL     1       4.709  -5.543  24.953  0.00  0.00    -0.038 A 
ATOM      6  C   UNL     1       5.426  -5.384  26.158  0.00  0.00    -0.037 A 
ATOM      7  C   UNL     1       6.806  -5.061  26.088  0.00  0.00    +0.014 A 
ATOM      8  C   UNL     1       7.437  -4.698  24.888  0.00  0.00    +0.004 A 
ATOM      9  C   UNL     1       6.690  -4.781  23.716  0.00  0.00    +0.010 A 
ATOM     10  C   UNL     1       4.752  -5.503  27.534  0.00  0.00    -0.010 C 
ATOM     11  C   UNL     1       5.259  -6.765  28.259  0.00  0.00    +0.016 C 
ATOM     12  C   UNL     1       5.079  -4.268  28.412  0.00  0.00    +0.016 C 
ATOM     13  C   UNL     1       3.212  -5.546  27.415  0.00  0.00    +0.012 C 
ATOM     14  C   UNL     1       5.367  -5.236  23.745  0.00  0.00    +0.005 A 
ATOM     15  C   UNL     1       2.757  -6.473  26.301  0.00  0.00    +0.012 C 
ATOM     16  C   UNL     1       3.026  -7.161  23.937  0.00  0.00    +0.016 C 
ENDBRANCH   1   8
BRANCH   1  17
ATOM     17  C   UNL     1       9.072  -2.653  24.853  0.00  0.00    +0.005 A 
ATOM     18  C   UNL     1       9.632  -1.986  23.757  0.00  0.00    +0.018 A 
ATOM     19  C   UNL     1       9.678  -0.581  23.709  0.00  0.00    -0.017 A 
ATOM     20  C   UNL     1       9.262   0.172  24.832  0.00  0.00    -0.017 A 
ATOM     21  C   UNL     1       9.307   1.576  24.782  0.00  0.00    +0.023 A 
ATOM     22  C   UNL     1       9.729   2.228  23.615  0.00  0.00    +0.059 A 
ATOM     23  C   UNL     1      10.096   1.483  22.493  0.00  0.00    +0.015 A 
ATOM     24  C   UNL     1       8.786  -0.504  25.964  0.00  0.00    +0.009 A 
ATOM     25  C   UNL     1      10.091   0.089  22.548  0.00  0.00    +0.009 A 
ATOM     26  C   UNL     1       8.675  -1.897  25.965  0.00  0.00    +0.011 A 
BRANCH  22  27
ATOM     27  C   UNL     1       9.734   3.705  23.503  0.00  0.00    +0.337 C 
ATOM     28  O   UNL     1       8.746   4.391  23.695  0.00  0.00    -0.245 OA
BRANCH  27  29
ATOM     29  O   UNL     1      10.925   4.212  23.113  0.00  0.00    -0.477 OA
ATOM     30  H   UNL     1      11.706   3.726  23.436  0.00  0.00    +0.295 HD
ENDBRANCH  27  29
ENDBRANCH  22  27
ENDBRANCH   1  17
BRANCH   2  31
ATOM     31  O   UNL     1       9.763  -6.235  25.046  0.00  0.00    -0.409 OA
ATOM     32  H   UNL     1      10.626  -6.526  25.394  0.00  0.00    +0.328 HD
ENDBRANCH   2  31
TORSDOF 5
ENDMDL
MODEL 2
REMARK VINA RESULT:      -8.4      0.802      1.593
REMARK  Name = 
REMARK  9 active torsions:
REMARK  status: ('A' for Active; 'I' for Inactive)
REMARK    1  A    between atoms: C_1  and  C_2
REMARK    2  A    between atoms: C_2  and  C_3
REMARK    3  A    between atoms: C_6  and  C_7
REMARK    4  A    between atoms: C_6  and  C_8
REMARK    5  A    between atoms: C_11  and  C_15
REMARK    6  A    between atoms: C_15  and  C_18
REMARK    7  A    between atoms: N_16  and  O_17
REMARK    8  A    between atoms: C_23  and  C_28
REMARK    9  A    between atoms: C_28  and  O_29
REMARK                            x       y       z     vdW  Elec       q    Type
REMARK                         _______ _______ _______ _____ _____    ______ ____
ROOT
ATOM      1  C   UNL     1       9.062  -3.927  24.537  0.00  0.00    +0.117 C 
ATOM      2  N   UNL     1      10.175  -4.572  24.774  0.00  0.00    -0.086 NA
ENDROOT
BRANCH   1   8
ATOM      3  C   UNL     1       2.649  -5.016  23.936  0.00  0.00    +0.016 C 
ATOM      4  C   UNL     1       3.496  -5.863  24.912  0.00  0.00    -0.010 C 
ATOM      5  C   UNL     1       4.950  -5.373  24.871  0.00  0.00    -0.038 A 
ATOM      6  C   UNL     1       5.557  -4.700  25.953  0.00  0.00    -0.037 A 
ATOM      7  C   UNL     1       6.932  -4.366  25.858  0.00  0.00    +0.014 A 
ATOM      8  C   UNL     1       7.660  -4.493  24.665  0.00  0.00    +0.004 A 
ATOM      9  C   UNL     1       7.019  -5.083  23.579  0.00  0.00    +0.010 A 
ATOM     10  C   UNL     1       4.767  -4.281  27.203  0.00  0.00    -0.010 C 
ATOM     11  C   UNL     1       5.228  -5.110  28.417  0.00  0.00    +0.016 C 
ATOM     12  C   UNL     1       4.996  -2.780  27.517  0.00  0.00    +0.016 C 
ATOM     13  C   UNL     1       3.243  -4.445  27.000  0.00  0.00    +0.012 C 
ATOM     14  C   UNL     1       5.706  -5.553  23.695  0.00  0.00    +0.005 A 
ATOM     15  C   UNL     1       2.902  -5.768  26.335  0.00  0.00    +0.012 C 
ATOM     16  C   UNL     1       3.387  -7.347  24.489  0.00  0.00    +0.016 C 
ENDBRANCH   1   8
BRANCH   1  17
ATOM     17  C   UNL     1       9.247  -2.484  24.110  0.00  0.00    +0.005 A 
ATOM     18  C   UNL     1       8.613  -1.414  24.752  0.00  0.00    +0.018 A 
ATOM     19  C   UNL     1       8.929  -0.083  24.425  0.00  0.00    -0.017 A 
ATOM     20  C   UNL     1       9.811   0.184  23.352  0.00  0.00    -0.017 A 
ATOM     21  C   UNL     1      10.128   1.515  23.028  0.00  0.00    +0.023 A 
ATOM     22  C   UNL     1       9.598   2.571  23.783  0.00  0.00    +0.059 A 
ATOM     23  C   UNL     1       8.763   2.302  24.869  0.00  0.00    +0.015 A 
ATOM     24  C   UNL     1      10.375  -0.892  22.653  0.00  0.00    +0.009 A 
ATOM     25  C   UNL     1       8.414   0.986  25.174  0.00  0.00    +0.009 A 
ATOM     26  C   UNL     1      10.110  -2.208  23.041  0.00  0.00    +0.011 A 
BRANCH  22  27
ATOM     27  C   UNL     1       9.953   3.983  23.510  0.00  0.00    +0.337 C 
ATOM     28  O   UNL     1      11.070   4.434  23.687  0.00  0.00    -0.245 OA
BRANCH  27  29
ATOM     29  O   UNL     1       8.907   4.732  23.100  0.00  0.00    -0.477 OA
ATOM     30  H   UNL     1       8.339   4.316  22.425  0.00  0.00    +0.295 HD
ENDBRANCH  27  29
ENDBRANCH  22  27
ENDBRANCH   1  17
BRANCH   2  31
ATOM     31  O   UNL     1      10.016  -5.861  25.276  0.00  0.00    -0.409 OA
ATOM     32  H   UNL     1      10.858  -6.002  25.747  0.00  0.00    +0.328 HD
ENDBRANCH   2  31
TORSDOF 5
ENDMDL
MODEL 3
REMARK VINA RESULT:      -8.3      0.931      2.713
REMARK  Name = 
REMARK  9 active torsions:
REMARK  status: ('A' for Active; 'I' for Inactive)
REMARK    1  A    between atoms: C_1  and  C_2
REMARK    2  A    between atoms: C_2  and  C_3
REMARK    3  A    between atoms: C_6  and  C_7
REMARK    4  A    between atoms: C_6  and  C_8
REMARK    5  A    between atoms: C_11  and  C_15
REMARK    6  A    between atoms: C_15  and  C_18
REMARK    7  A    between atoms: N_16  and  O_17
REMARK    8  A    between atoms: C_23  and  C_28
REMARK    9  A    between atoms: C_28  and  O_29
REMARK                            x       y       z     vdW  Elec       q    Type
REMARK                         _______ _______ _______ _____ _____    ______ ____
ROOT
ATOM      1  C   UNL     1       8.959  -3.868  24.899  0.00  0.00    +0.117 C 
ATOM      2  N   UNL     1       9.949  -4.691  24.666  0.00  0.00    -0.086 NA
ENDROOT
BRANCH   1   8
ATOM      3  C   UNL     1       4.286  -6.834  28.368  0.00  0.00    +0.016 C 
ATOM      4  C   UNL     1       3.985  -5.513  27.624  0.00  0.00    -0.010 C 
ATOM      5  C   UNL     1       5.246  -5.062  26.873  0.00  0.00    -0.038 A 
ATOM      6  C   UNL     1       5.339  -5.078  25.465  0.00  0.00    -0.037 A 
ATOM      7  C   UNL     1       6.510  -4.557  24.857  0.00  0.00    +0.014 A 
ATOM      8  C   UNL     1       7.656  -4.216  25.593  0.00  0.00    +0.004 A 
ATOM      9  C   UNL     1       7.574  -4.286  26.981  0.00  0.00    +0.010 A 
ATOM     10  C   UNL     1       4.238  -5.680  24.578  0.00  0.00    -0.010 C 
ATOM     11  C   UNL     1       3.535  -4.562  23.784  0.00  0.00    +0.016 C 
ATOM     12  C   UNL     1       4.838  -6.694  23.571  0.00  0.00    +0.016 C 
ATOM     13  C   UNL     1       3.200  -6.469  25.409  0.00  0.00    +0.012 C 
ATOM     14  C   UNL     1       6.380  -4.659  27.607  0.00  0.00    +0.005 A 
ATOM     15  C   UNL     1       2.792  -5.716  26.664  0.00  0.00    +0.012 C 
ATOM     16  C   UNL     1       3.539  -4.459  28.663  0.00  0.00    +0.016 C 
ENDBRANCH   1   8
BRANCH   1  17
ATOM     17  C   UNL     1       9.192  -2.449  24.419  0.00  0.00    +0.005 A 
ATOM     18  C   UNL     1       8.540  -1.342  24.975  0.00  0.00    +0.018 A 
ATOM     19  C   UNL     1       8.896  -0.032  24.608  0.00  0.00    -0.017 A 
ATOM     20  C   UNL     1       9.842   0.174  23.577  0.00  0.00    -0.017 A 
ATOM     21  C   UNL     1      10.198   1.484  23.212  0.00  0.00    +0.023 A 
ATOM     22  C   UNL     1       9.645   2.580  23.889  0.00  0.00    +0.059 A 
ATOM     23  C   UNL     1       8.745   2.373  24.936  0.00  0.00    +0.015 A 
ATOM     24  C   UNL     1      10.427  -0.940  22.959  0.00  0.00    +0.009 A 
ATOM     25  C   UNL     1       8.358   1.077  25.278  0.00  0.00    +0.009 A 
ATOM     26  C   UNL     1      10.119  -2.234  23.390  0.00  0.00    +0.011 A 
BRANCH  22  27
ATOM     27  C   UNL     1      10.038   3.974  23.573  0.00  0.00    +0.337 C 
ATOM     28  O   UNL     1       9.315   4.931  23.778  0.00  0.00    -0.245 OA
BRANCH  27  29
ATOM     29  O   UNL     1      11.251   4.072  22.986  0.00  0.00    -0.477 OA
ATOM     30  H   UNL     1      11.244   4.025  22.012  0.00  0.00    +0.295 HD
ENDBRANCH  27  29
ENDBRANCH  22  27
ENDBRANCH   1  17
BRANCH   2  31
ATOM     31  O   UNL     1       9.795  -5.966  25.203  0.00  0.00    -0.409 OA
ATOM     32  H   UNL     1       8.831  -6.018  25.336  0.00  0.00    +0.328 HD
ENDBRANCH   2  31
TORSDOF 5
ENDMDL
MODEL 4
REMARK VINA RESULT:      -7.9      1.672      3.027
REMARK  Name = 
REMARK  9 active torsions:
REMARK  status: ('A' for Active; 'I' for Inactive)
REMARK    1  A    between atoms: C_1  and  C_2
REMARK    2  A    between atoms: C_2  and  C_3
REMARK    3  A    between atoms: C_6  and  C_7
REMARK    4  A    between atoms: C_6  and  C_8
REMARK    5  A    between atoms: C_11  and  C_15
REMARK    6  A    between atoms: C_15  and  C_18
REMARK    7  A    between atoms: N_16  and  O_17
REMARK    8  A    between atoms: C_23  and  C_28
REMARK    9  A    between atoms: C_28  and  O_29
REMARK                            x       y       z     vdW  Elec       q    Type
REMARK                         _______ _______ _______ _____ _____    ______ ____
ROOT
ATOM      1  C   UNL     1       8.977  -2.638  24.532  0.00  0.00    +0.117 C 
ATOM      2  N   UNL     1      10.092  -3.235  24.197  0.00  0.00    -0.086 NA
ENDROOT
BRANCH   1   8
ATOM      3  C   UNL     1       5.057  -6.683  27.839  0.00  0.00    +0.016 C 
ATOM      4  C   UNL     1       4.473  -5.448  27.117  0.00  0.00    -0.010 C 
ATOM      5  C   UNL     1       5.607  -4.701  26.402  0.00  0.00    -0.038 A 
ATOM      6  C   UNL     1       5.724  -4.659  24.997  0.00  0.00    -0.037 A 
ATOM      7  C   UNL     1       6.753  -3.868  24.424  0.00  0.00    +0.014 A 
ATOM      8  C   UNL     1       7.778  -3.292  25.191  0.00  0.00    +0.004 A 
ATOM      9  C   UNL     1       7.693  -3.415  26.576  0.00  0.00    +0.010 A 
ATOM     10  C   UNL     1       4.804  -5.475  24.074  0.00  0.00    -0.010 C 
ATOM     11  C   UNL     1       3.875  -4.529  23.289  0.00  0.00    +0.016 C 
ATOM     12  C   UNL     1       5.637  -6.299  23.059  0.00  0.00    +0.016 C 
ATOM     13  C   UNL     1       3.963  -6.502  24.867  0.00  0.00    +0.012 C 
ATOM     14  C   UNL     1       6.607  -4.068  27.169  0.00  0.00    +0.005 A 
ATOM     15  C   UNL     1       3.373  -5.895  26.128  0.00  0.00    +0.012 C 
ATOM     16  C   UNL     1       3.780  -4.551  28.169  0.00  0.00    +0.016 C 
ENDBRANCH   1   8
BRANCH   1  17
ATOM     17  C   UNL     1       8.938  -1.155  24.220  0.00  0.00    +0.005 A 
ATOM     18  C   UNL     1       8.011  -0.587  23.337  0.00  0.00    +0.018 A 
ATOM     19  C   UNL     1       7.908   0.808  23.192  0.00  0.00    -0.017 A 
ATOM     20  C   UNL     1       8.831   1.651  23.855  0.00  0.00    -0.017 A 
ATOM     21  C   UNL     1       8.725   3.045  23.710  0.00  0.00    +0.023 A 
ATOM     22  C   UNL     1       7.692   3.599  22.942  0.00  0.00    +0.059 A 
ATOM     23  C   UNL     1       6.757   2.766  22.325  0.00  0.00    +0.015 A 
ATOM     24  C   UNL     1       9.816   1.073  24.668  0.00  0.00    +0.009 A 
ATOM     25  C   UNL     1       6.877   1.380  22.433  0.00  0.00    +0.009 A 
ATOM     26  C   UNL     1       9.855  -0.311  24.861  0.00  0.00    +0.011 A 
BRANCH  22  27
ATOM     27  C   UNL     1       7.513   5.064  22.812  0.00  0.00    +0.337 C 
ATOM     28  O   UNL     1       7.408   5.808  23.770  0.00  0.00    -0.245 OA
BRANCH  27  29
ATOM     29  O   UNL     1       7.422   5.485  21.532  0.00  0.00    -0.477 OA
ATOM     30  H   UNL     1       6.518   5.506  21.167  0.00  0.00    +0.295 HD
ENDBRANCH  27  29
ENDBRANCH  22  27
ENDBRANCH   1  17
BRANCH   2  31
ATOM     31  O   UNL     1      10.184  -4.570  24.582  0.00  0.00    -0.409 OA
ATOM     32  H   UNL     1      10.709  -4.511  25.402  0.00  0.00    +0.328 HD
ENDBRANCH   2  31
TORSDOF 5
ENDMDL
MODEL 5
REMARK VINA RESULT:      -7.9      1.618      2.340
REMARK  Name = 
REMARK  9 active torsions:
REMARK  status: ('A' for Active; 'I' for Inactive)
REMARK    1  A    between atoms: C_1  and  C_2
REMARK    2  A    between atoms: C_2  and  C_3
REMARK    3  A    between atoms: C_6  and  C_7
REMARK    4  A    between atoms: C_6  and  C_8
REMARK    5  A    between atoms: C_11  and  C_15
REMARK    6  A    between atoms: C_15  and  C_18
REMARK    7  A    between atoms: N_16  and  O_17
REMARK    8  A    between atoms: C_23  and  C_28
REMARK    9  A    between atoms: C_28  and  O_29
REMARK                            x       y       z     vdW  Elec       q    Type
REMARK                         _______ _______ _______ _____ _____    ______ ____
ROOT
ATOM      1  C   UNL     1       7.451  -4.526  26.094  0.00  0.00    +0.117 C 
ATOM      2  N   UNL     1       8.203  -4.994  27.057  0.00  0.00    -0.086 NA
ENDROOT
BRANCH   1   8
ATOM      3  C   UNL     1       1.786  -5.650  23.042  0.00  0.00    +0.016 C 
ATOM      4  C   UNL     1       2.029  -6.205  24.464  0.00  0.00    -0.010 C 
ATOM      5  C   UNL     1       3.420  -5.765  24.943  0.00  0.00    -0.038 A 
ATOM      6  C   UNL     1       3.606  -4.827  25.980  0.00  0.00    -0.037 A 
ATOM      7  C   UNL     1       4.928  -4.550  26.416  0.00  0.00    +0.014 A 
ATOM      8  C   UNL     1       6.061  -5.014  25.731  0.00  0.00    +0.004 A 
ATOM      9  C   UNL     1       5.857  -5.875  24.656  0.00  0.00    +0.010 A 
ATOM     10  C   UNL     1       2.432  -4.065  26.616  0.00  0.00    -0.010 C 
ATOM     11  C   UNL     1       2.232  -4.530  28.071  0.00  0.00    +0.016 C 
ATOM     12  C   UNL     1       2.707  -2.539  26.621  0.00  0.00    +0.016 C 
ATOM     13  C   UNL     1       1.124  -4.259  25.815  0.00  0.00    +0.012 C 
ATOM     14  C   UNL     1       4.565  -6.276  24.299  0.00  0.00    +0.005 A 
ATOM     15  C   UNL     1       0.917  -5.709  25.414  0.00  0.00    +0.012 C 
ATOM     16  C   UNL     1       1.910  -7.745  24.413  0.00  0.00    +0.016 C 
ENDBRANCH   1   8
BRANCH   1  17
ATOM     17  C   UNL     1       8.069  -3.386  25.308  0.00  0.00    +0.005 A 
ATOM     18  C   UNL     1       7.538  -2.091  25.302  0.00  0.00    +0.018 A 
ATOM     19  C   UNL     1       8.224  -1.029  24.685  0.00  0.00    -0.017 A 
ATOM     20  C   UNL     1       9.410  -1.290  23.959  0.00  0.00    -0.017 A 
ATOM     21  C   UNL     1      10.096  -0.227  23.345  0.00  0.00    +0.023 A 
ATOM     22  C   UNL     1       9.627   1.087  23.480  0.00  0.00    +0.059 A 
ATOM     23  C   UNL     1       8.482   1.346  24.235  0.00  0.00    +0.015 A 
ATOM     24  C   UNL     1       9.890  -2.605  23.892  0.00  0.00    +0.009 A 
ATOM     25  C   UNL     1       7.775   0.293  24.815  0.00  0.00    +0.009 A 
ATOM     26  C   UNL     1       9.237  -3.635  24.574  0.00  0.00    +0.011 A 
BRANCH  22  27
ATOM     27  C   UNL     1      10.354   2.240  22.897  0.00  0.00    +0.337 C 
ATOM     28  O   UNL     1      10.949   3.060  23.572  0.00  0.00    -0.245 OA
BRANCH  27  29
ATOM     29  O   UNL     1      10.243   2.323  21.554  0.00  0.00    -0.477 OA
ATOM     30  H   UNL     1       9.580   1.729  21.155  0.00  0.00    +0.295 HD
ENDBRANCH  27  29
ENDBRANCH  22  27
ENDBRANCH   1  17
BRANCH   2  31
ATOM     31  O   UNL     1       7.603  -5.962  27.858  0.00  0.00    -0.409 OA
ATOM     32  H   UNL     1       8.004  -6.784  27.521  0.00  0.00    +0.328 HD
ENDBRANCH   2  31
TORSDOF 5
ENDMDL
MODEL 6
REMARK VINA RESULT:      -7.9      3.163      4.976
REMARK  Name = 
REMARK  9 active torsions:
REMARK  status: ('A' for Active; 'I' for Inactive)
REMARK    1  A    between atoms: C_1  and  C_2
REMARK    2  A    between atoms: C_2  and  C_3
REMARK    3  A    between atoms: C_6  and  C_7
REMARK    4  A    between atoms: C_6  and  C_8
REMARK    5  A    between atoms: C_11  and  C_15
REMARK    6  A    between atoms: C_15  and  C_18
REMARK    7  A    between atoms: N_16  and  O_17
REMARK    8  A    between atoms: C_23  and  C_28
REMARK    9  A    between atoms: C_28  and  O_29
REMARK                            x       y       z     vdW  Elec       q    Type
REMARK                         _______ _______ _______ _____ _____    ______ ____
ROOT
ATOM      1  C   UNL     1       6.271   1.092  25.130  0.00  0.00    +0.117 C 
ATOM      2  N   UNL     1       5.262   1.899  25.332  0.00  0.00    -0.086 NA
ENDROOT
BRANCH   1   8
ATOM      3  C   UNL     1       7.937  -5.066  26.534  0.00  0.00    +0.016 C 
ATOM      4  C   UNL     1       6.552  -4.753  25.926  0.00  0.00    -0.010 C 
ATOM      5  C   UNL     1       6.445  -3.243  25.672  0.00  0.00    -0.038 A 
ATOM      6  C   UNL     1       6.420  -2.689  24.374  0.00  0.00    -0.037 A 
ATOM      7  C   UNL     1       6.228  -1.290  24.237  0.00  0.00    +0.014 A 
ATOM      8  C   UNL     1       6.264  -0.412  25.331  0.00  0.00    +0.004 A 
ATOM      9  C   UNL     1       6.374  -0.970  26.602  0.00  0.00    +0.010 A 
ATOM     10  C   UNL     1       6.639  -3.543  23.115  0.00  0.00    -0.010 C 
ATOM     11  C   UNL     1       5.331  -3.629  22.306  0.00  0.00    +0.016 C 
ATOM     12  C   UNL     1       7.734  -2.918  22.213  0.00  0.00    +0.016 C 
ATOM     13  C   UNL     1       7.137  -4.964  23.466  0.00  0.00    +0.012 C 
ATOM     14  C   UNL     1       6.418  -2.359  26.770  0.00  0.00    +0.005 A 
ATOM     15  C   UNL     1       6.359  -5.564  24.625  0.00  0.00    +0.012 C 
ATOM     16  C   UNL     1       5.465  -5.239  26.911  0.00  0.00    +0.016 C 
ENDBRANCH   1   8
BRANCH   1  17
ATOM     17  C   UNL     1       7.535   1.771  24.642  0.00  0.00    +0.005 A 
ATOM     18  C   UNL     1       7.622   3.152  24.425  0.00  0.00    +0.018 A 
ATOM     19  C   UNL     1       8.852   3.762  24.120  0.00  0.00    -0.017 A 
ATOM     20  C   UNL     1       9.999   2.960  23.912  0.00  0.00    -0.017 A 
ATOM     21  C   UNL     1      11.228   3.572  23.609  0.00  0.00    +0.023 A 
ATOM     22  C   UNL     1      11.325   4.969  23.547  0.00  0.00    +0.059 A 
ATOM     23  C   UNL     1      10.201   5.759  23.796  0.00  0.00    +0.015 A 
ATOM     24  C   UNL     1       9.887   1.569  24.042  0.00  0.00    +0.009 A 
ATOM     25  C   UNL     1       8.969   5.158  24.060  0.00  0.00    +0.009 A 
ATOM     26  C   UNL     1       8.675   0.986  24.421  0.00  0.00    +0.011 A 
BRANCH  22  27
ATOM     27  C   UNL     1      12.613   5.653  23.288  0.00  0.00    +0.337 C 
ATOM     28  O   UNL     1      13.324   5.392  22.334  0.00  0.00    -0.245 OA
BRANCH  27  29
ATOM     29  O   UNL     1      12.949   6.549  24.241  0.00  0.00    -0.477 OA
ATOM     30  H   UNL     1      13.475   7.309  23.928  0.00  0.00    +0.295 HD
ENDBRANCH  27  29
ENDBRANCH  22  27
ENDBRANCH   1  17
BRANCH   2  31
ATOM     31  O   UNL     1       4.065   1.275  25.670  0.00  0.00    -0.409 OA
ATOM     32  H   UNL     1       4.093   0.468  25.123  0.00  0.00    +0.328 HD
ENDBRANCH   2  31
TORSDOF 5
ENDMDL
MODEL 7
REMARK VINA RESULT:      -7.6      3.686      9.002
REMARK  Name = 
REMARK  9 active torsions:
REMARK  status: ('A' for Active; 'I' for Inactive)
REMARK    1  A    between atoms: C_1  and  C_2
REMARK    2  A    between atoms: C_2  and  C_3
REMARK    3  A    between atoms: C_6  and  C_7
REMARK    4  A    between atoms: C_6  and  C_8
REMARK    5  A    between atoms: C_11  and  C_15
REMARK    6  A    between atoms: C_15  and  C_18
REMARK    7  A    between atoms: N_16  and  O_17
REMARK    8  A    between atoms: C_23  and  C_28
REMARK    9  A    between atoms: C_28  and  O_29
REMARK                            x       y       z     vdW  Elec       q    Type
REMARK                         _______ _______ _______ _____ _____    ______ ____
ROOT
ATOM      1  C   UNL     1       9.794   2.715  23.560  0.00  0.00    +0.117 C 
ATOM      2  N   UNL     1      10.968   3.272  23.409  0.00  0.00    -0.086 NA
ENDROOT
BRANCH   1   8
ATOM      3  C   UNL     1       4.951   6.926  22.342  0.00  0.00    +0.016 C 
ATOM      4  C   UNL     1       4.734   5.751  23.321  0.00  0.00    -0.010 C 
ATOM      5  C   UNL     1       6.038   4.949  23.439  0.00  0.00    -0.038 A 
ATOM      6  C   UNL     1       6.819   4.934  24.614  0.00  0.00    -0.037 A 
ATOM      7  C   UNL     1       7.959   4.091  24.661  0.00  0.00    +0.014 A 
ATOM      8  C   UNL     1       8.457   3.430  23.527  0.00  0.00    +0.004 A 
ATOM      9  C   UNL     1       7.717   3.524  22.350  0.00  0.00    +0.010 A 
ATOM     10  C   UNL     1       6.500   5.831  25.821  0.00  0.00    -0.010 C 
ATOM     11  C   UNL     1       6.026   4.967  27.006  0.00  0.00    +0.016 C 
ATOM     12  C   UNL     1       7.757   6.623  26.262  0.00  0.00    +0.016 C 
ATOM     13  C   UNL     1       5.427   6.891  25.478  0.00  0.00    +0.012 C 
ATOM     14  C   UNL     1       6.511   4.232  22.321  0.00  0.00    +0.005 A 
ATOM     15  C   UNL     1       4.273   6.293  24.692  0.00  0.00    +0.012 C 
ATOM     16  C   UNL     1       3.579   4.875  22.784  0.00  0.00    +0.016 C 
ENDBRANCH   1   8
BRANCH   1  17
ATOM     17  C   UNL     1       9.830   1.214  23.774  0.00  0.00    +0.005 A 
ATOM     18  C   UNL     1       9.396   0.604  24.957  0.00  0.00    +0.018 A 
ATOM     19  C   UNL     1       9.303  -0.796  25.058  0.00  0.00    -0.017 A 
ATOM     20  C   UNL     1       9.765  -1.607  23.995  0.00  0.00    -0.017 A 
ATOM     21  C   UNL     1       9.669  -3.006  24.097  0.00  0.00    +0.023 A 
ATOM     22  C   UNL     1       9.089  -3.593  25.230  0.00  0.00    +0.059 A 
ATOM     23  C   UNL     1       8.594  -2.788  26.258  0.00  0.00    +0.015 A 
ATOM     24  C   UNL     1      10.283  -0.992  22.847  0.00  0.00    +0.009 A 
ATOM     25  C   UNL     1       8.720  -1.401  26.181  0.00  0.00    +0.009 A 
ATOM     26  C   UNL     1      10.297   0.401  22.732  0.00  0.00    +0.011 A 
BRANCH  22  27
ATOM     27  C   UNL     1       8.918  -5.060  25.350  0.00  0.00    +0.337 C 
ATOM     28  O   UNL     1       9.157  -5.834  24.440  0.00  0.00    -0.245 OA
BRANCH  27  29
ATOM     29  O   UNL     1       8.419  -5.449  26.543  0.00  0.00    -0.477 OA
ATOM     30  H   UNL     1       8.696  -4.906  27.304  0.00  0.00    +0.295 HD
ENDBRANCH  27  29
ENDBRANCH  22  27
ENDBRANCH   1  17
BRANCH   2  31
ATOM     31  O   UNL     1      10.942   4.629  23.098  0.00  0.00    -0.409 OA
ATOM     32  H   UNL     1      11.404   5.023  23.861  0.00  0.00    +0.328 HD
ENDBRANCH   2  31
TORSDOF 5
ENDMDL
MODEL 8
REMARK VINA RESULT:      -7.5      3.103      9.145
REMARK  Name = 
REMARK  9 active torsions:
REMARK  status: ('A' for Active; 'I' for Inactive)
REMARK    1  A    between atoms: C_1  and  C_2
REMARK    2  A    between atoms: C_2  and  C_3
REMARK    3  A    between atoms: C_6  and  C_7
REMARK    4  A    between atoms: C_6  and  C_8
REMARK    5  A    between atoms: C_11  and  C_15
REMARK    6  A    between atoms: C_15  and  C_18
REMARK    7  A    between atoms: N_16  and  O_17
REMARK    8  A    between atoms: C_23  and  C_28
REMARK    9  A    between atoms: C_28  and  O_29
REMARK                            x       y       z     vdW  Elec       q    Type
REMARK                         _______ _______ _______ _____ _____    ______ ____
ROOT
ATOM      1  C   UNL     1       9.148   1.098  23.031  0.00  0.00    +0.117 C 
ATOM      2  N   UNL     1      10.150   1.126  22.190  0.00  0.00    -0.086 NA
ENDROOT
BRANCH   1   8
ATOM      3  C   UNL     1       5.070   6.169  22.462  0.00  0.00    +0.016 C 
ATOM      4  C   UNL     1       5.483   5.654  23.859  0.00  0.00    -0.010 C 
ATOM      5  C   UNL     1       6.464   4.485  23.693  0.00  0.00    -0.038 A 
ATOM      6  C   UNL     1       7.828   4.581  24.039  0.00  0.00    -0.037 A 
ATOM      7  C   UNL     1       8.639   3.421  23.936  0.00  0.00    +0.014 A 
ATOM      8  C   UNL     1       8.193   2.242  23.317  0.00  0.00    +0.004 A 
ATOM      9  C   UNL     1       6.865   2.193  22.904  0.00  0.00    +0.010 A 
ATOM     10  C   UNL     1       8.470   5.907  24.478  0.00  0.00    -0.010 C 
ATOM     11  C   UNL     1       8.856   5.835  25.968  0.00  0.00    +0.016 C 
ATOM     12  C   UNL     1       9.751   6.195  23.653  0.00  0.00    +0.016 C 
ATOM     13  C   UNL     1       7.528   7.108  24.235  0.00  0.00    +0.012 C 
ATOM     14  C   UNL     1       6.008   3.276  23.128  0.00  0.00    +0.005 A 
ATOM     15  C   UNL     1       6.106   6.807  24.677  0.00  0.00    +0.012 C 
ATOM     16  C   UNL     1       4.207   5.218  24.615  0.00  0.00    +0.016 C 
ENDBRANCH   1   8
BRANCH   1  17
ATOM     17  C   UNL     1       8.964  -0.224  23.749  0.00  0.00    +0.005 A 
ATOM     18  C   UNL     1       7.983  -0.427  24.727  0.00  0.00    +0.018 A 
ATOM     19  C   UNL     1       7.744  -1.707  25.259  0.00  0.00    -0.017 A 
ATOM     20  C   UNL     1       8.582  -2.786  24.891  0.00  0.00    -0.017 A 
ATOM     21  C   UNL     1       8.341  -4.065  25.421  0.00  0.00    +0.023 A 
ATOM     22  C   UNL     1       7.256  -4.279  26.284  0.00  0.00    +0.059 A 
ATOM     23  C   UNL     1       6.405  -3.222  26.610  0.00  0.00    +0.015 A 
ATOM     24  C   UNL     1       9.621  -2.558  23.978  0.00  0.00    +0.009 A 
ATOM     25  C   UNL     1       6.660  -1.942  26.117  0.00  0.00    +0.009 A 
ATOM     26  C   UNL     1       9.796  -1.297  23.402  0.00  0.00    +0.011 A 
BRANCH  22  27
ATOM     27  C   UNL     1       6.935  -5.623  26.817  0.00  0.00    +0.337 C 
ATOM     28  O   UNL     1       5.997  -6.290  26.418  0.00  0.00    -0.245 OA
BRANCH  27  29
ATOM     29  O   UNL     1       7.746  -6.011  27.825  0.00  0.00    -0.477 OA
ATOM     30  H   UNL     1       7.323  -6.056  28.703  0.00  0.00    +0.295 HD
ENDBRANCH  27  29
ENDBRANCH  22  27
ENDBRANCH   1  17
BRANCH   2  31
ATOM     31  O   UNL     1      10.261   2.294  21.441  0.00  0.00    -0.409 OA
ATOM     32  H   UNL     1      10.917   2.804  21.952  0.00  0.00    +0.328 HD
ENDBRANCH   2  31
TORSDOF 5
ENDMDL
MODEL 9
REMARK VINA RESULT:      -7.4      2.906      8.771
REMARK  Name = 
REMARK  9 active torsions:
REMARK  status: ('A' for Active; 'I' for Inactive)
REMARK    1  A    between atoms: C_1  and  C_2
REMARK    2  A    between atoms: C_2  and  C_3
REMARK    3  A    between atoms: C_6  and  C_7
REMARK    4  A    between atoms: C_6  and  C_8
REMARK    5  A    between atoms: C_11  and  C_15
REMARK    6  A    between atoms: C_15  and  C_18
REMARK    7  A    between atoms: N_16  and  O_17
REMARK    8  A    between atoms: C_23  and  C_28
REMARK    9  A    between atoms: C_28  and  O_29
REMARK                            x       y       z     vdW  Elec       q    Type
REMARK                         _______ _______ _______ _____ _____    ______ ____
ROOT
ATOM      1  C   UNL     1       8.723  -0.974  23.204  0.00  0.00    +0.117 C 
ATOM      2  N   UNL     1       9.332  -1.560  22.206  0.00  0.00    -0.086 NA
ENDROOT
BRANCH   1   8
ATOM      3  C   UNL     1       8.477   5.013  25.804  0.00  0.00    +0.016 C 
ATOM      4  C   UNL     1       8.157   4.800  24.308  0.00  0.00    -0.010 C 
ATOM      5  C   UNL     1       8.262   3.303  23.981  0.00  0.00    -0.038 A 
ATOM      6  C   UNL     1       7.136   2.512  23.668  0.00  0.00    -0.037 A 
ATOM      7  C   UNL     1       7.340   1.160  23.290  0.00  0.00    +0.014 A 
ATOM      8  C   UNL     1       8.585   0.523  23.409  0.00  0.00    +0.004 A 
ATOM      9  C   UNL     1       9.672   1.300  23.802  0.00  0.00    +0.010 A 
ATOM     10  C   UNL     1       5.701   3.054  23.767  0.00  0.00    -0.010 C 
ATOM     11  C   UNL     1       5.088   3.176  22.358  0.00  0.00    +0.016 C 
ATOM     12  C   UNL     1       4.813   2.103  24.608  0.00  0.00    +0.016 C 
ATOM     13  C   UNL     1       5.654   4.424  24.482  0.00  0.00    +0.012 C 
ATOM     14  C   UNL     1       9.520   2.671  24.039  0.00  0.00    +0.005 A 
ATOM     15  C   UNL     1       6.750   5.355  23.992  0.00  0.00    +0.012 C 
ATOM     16  C   UNL     1       9.156   5.632  23.472  0.00  0.00    +0.016 C 
ENDBRANCH   1   8
BRANCH   1  17
ATOM     17  C   UNL     1       8.107  -1.924  24.213  0.00  0.00    +0.005 A 
ATOM     18  C   UNL     1       7.088  -2.826  23.885  0.00  0.00    +0.018 A 
ATOM     19  C   UNL     1       6.651  -3.793  24.808  0.00  0.00    -0.017 A 
ATOM     20  C   UNL     1       7.161  -3.783  26.127  0.00  0.00    -0.017 A 
ATOM     21  C   UNL     1       6.725  -4.751  27.047  0.00  0.00    +0.023 A 
ATOM     22  C   UNL     1       5.815  -5.742  26.652  0.00  0.00    +0.059 A 
ATOM     23  C   UNL     1       5.347  -5.776  25.337  0.00  0.00    +0.015 A 
ATOM     24  C   UNL     1       8.117  -2.819  26.478  0.00  0.00    +0.009 A 
ATOM     25  C   UNL     1       5.746  -4.795  24.428  0.00  0.00    +0.009 A 
ATOM     26  C   UNL     1       8.596  -1.915  25.526  0.00  0.00    +0.011 A 
BRANCH  22  27
ATOM     27  C   UNL     1       5.376  -6.814  27.576  0.00  0.00    +0.337 C 
ATOM     28  O   UNL     1       6.060  -7.216  28.500  0.00  0.00    -0.245 OA
BRANCH  27  29
ATOM     29  O   UNL     1       4.172  -7.338  27.261  0.00  0.00    -0.477 OA
ATOM     30  H   UNL     1       3.960  -7.344  26.309  0.00  0.00    +0.295 HD
ENDBRANCH  27  29
ENDBRANCH  22  27
ENDBRANCH   1  17
BRANCH   2  31
ATOM     31  O   UNL     1       9.802  -0.702  21.215  0.00  0.00    -0.409 OA
ATOM     32  H   UNL     1       9.275  -0.974  20.442  0.00  0.00    +0.328 HD
ENDBRANCH   2  31
TORSDOF 5
ENDMDL
