MODEL 1
REMARK VINA RESULT:      -5.8      0.000      0.000
REMARK  Name = 
REMARK  4 active torsions:
REMARK  status: ('A' for Active; 'I' for Inactive)
REMARK    1  A    between atoms: O_1  and  P_2
REMARK    2  A    between atoms: P_2  and  O_3
REMARK    3  A    between atoms: P_2  and  O_5
REMARK    4  A    between atoms: O_5  and  C_6
REMARK                            x       y       z     vdW  Elec       q    Type
REMARK                         _______ _______ _______ _____ _____    ______ ____
ROOT
ATOM      1  C   UNL     1       9.147  -2.142  24.852  0.00  0.00    +0.153 A 
ATOM      2  C   UNL     1       8.607  -1.833  26.106  0.00  0.00    +0.048 A 
ATOM      3  C   UNL     1       8.260  -0.522  26.423  0.00  0.00    +0.004 A 
ATOM      4  C   UNL     1       8.441   0.488  25.485  0.00  0.00    +0.005 A 
ATOM      5  C   UNL     1       8.958   0.191  24.216  0.00  0.00    -0.023 A 
ATOM      6  C   UNL     1       9.080   1.304  23.205  0.00  0.00    +0.038 C 
ATOM      7  C   UNL     1       9.933   0.909  22.007  0.00  0.00    +0.023 C 
ATOM      8  C   UNL     1       9.571  -0.500  21.561  0.00  0.00    +0.102 C 
ATOM      9  N   UNL     1       9.871  -1.448  22.628  0.00  0.00    -0.341 N 
ATOM     10  H   UNL     1       9.669  -2.419  22.388  0.00  0.00    +0.146 HD
ATOM     11  C   UNL     1       9.281  -1.140  23.875  0.00  0.00    +0.073 A 
ENDROOT
BRANCH   1  12
ATOM     12  O   UNL     1       9.538  -3.428  24.517  0.00  0.00    -0.402 OA
BRANCH  12  13
ATOM     13  P   UNL     1       8.995  -4.683  25.578  0.00  0.00    +0.528 P 
ATOM     14  O   UNL     1       7.971  -5.225  24.577  0.00  0.00    -0.216 OA
BRANCH  13  15
ATOM     15  O   UNL     1       8.451  -5.937  26.639  0.00  0.00    -0.293 OA
ATOM     16  H   UNL     1       9.024  -6.682  26.353  0.00  0.00    +0.223 HD
ENDBRANCH  13  15
BRANCH  13  17
ATOM     17  O   UNL     1      10.360  -5.543  25.341  0.00  0.00    -0.293 OA
ATOM     18  H   UNL     1      10.221  -6.283  24.726  0.00  0.00    +0.223 HD
ENDBRANCH  13  17
ENDBRANCH  12  13
ENDBRANCH   1  12
TORSDOF 4
ENDMDL
MODEL 2
REMARK VINA RESULT:      -5.4      2.734      3.494
REMARK  Name = 
REMARK  4 active torsions:
REMARK  status: ('A' for Active; 'I' for Inactive)
REMARK    1  A    between atoms: O_1  and  P_2
REMARK    2  A    between atoms: P_2  and  O_3
REMARK    3  A    between atoms: P_2  and  O_5
REMARK    4  A    between atoms: O_5  and  C_6
REMARK                            x       y       z     vdW  Elec       q    Type
REMARK                         _______ _______ _______ _____ _____    ______ ____
ROOT
ATOM      1  C   UNL     1       7.767  -3.718  23.300  0.00  0.00    +0.153 A 
ATOM      2  C   UNL     1       7.454  -4.307  24.531  0.00  0.00    +0.048 A 
ATOM      3  C   UNL     1       7.931  -3.758  25.718  0.00  0.00    +0.004 A 
ATOM      4  C   UNL     1       8.715  -2.611  25.685  0.00  0.00    +0.005 A 
ATOM      5  C   UNL     1       9.018  -1.996  24.463  0.00  0.00    -0.023 A 
ATOM      6  C   UNL     1       9.820  -0.718  24.473  0.00  0.00    +0.038 C 
ATOM      7  C   UNL     1      10.332  -0.342  23.089  0.00  0.00    +0.023 C 
ATOM      8  C   UNL     1       9.231  -0.552  22.060  0.00  0.00    +0.102 C 
ATOM      9  N   UNL     1       8.864  -1.963  22.010  0.00  0.00    -0.341 N 
ATOM     10  H   UNL     1       8.140  -2.178  21.323  0.00  0.00    +0.146 HD
ATOM     11  C   UNL     1       8.511  -2.526  23.256  0.00  0.00    +0.073 A 
ENDROOT
BRANCH   1  12
ATOM     12  O   UNL     1       7.340  -4.259  22.098  0.00  0.00    -0.402 OA
BRANCH  12  13
ATOM     13  P   UNL     1       5.875  -5.177  22.160  0.00  0.00    +0.528 P 
ATOM     14  O   UNL     1       4.979  -3.935  22.180  0.00  0.00    -0.216 OA
BRANCH  13  15
ATOM     15  O   UNL     1       4.410  -6.095  22.223  0.00  0.00    -0.293 OA
ATOM     16  H   UNL     1       4.762  -6.992  22.415  0.00  0.00    +0.223 HD
ENDBRANCH  13  15
BRANCH  13  17
ATOM     17  O   UNL     1       6.019  -5.607  20.593  0.00  0.00    -0.293 OA
ATOM     18  H   UNL     1       5.482  -5.043  20.012  0.00  0.00    +0.223 HD
ENDBRANCH  13  17
ENDBRANCH  12  13
ENDBRANCH   1  12
TORSDOF 4
ENDMDL
MODEL 3
REMARK VINA RESULT:      -5.2      3.846      5.244
REMARK  Name = 
REMARK  4 active torsions:
REMARK  status: ('A' for Active; 'I' for Inactive)
REMARK    1  A    between atoms: O_1  and  P_2
REMARK    2  A    between atoms: P_2  and  O_3
REMARK    3  A    between atoms: P_2  and  O_5
REMARK    4  A    between atoms: O_5  and  C_6
REMARK                            x       y       z     vdW  Elec       q    Type
REMARK                         _______ _______ _______ _____ _____    ______ ____
ROOT
ATOM      1  C   UNL     1       8.600  -4.193  24.621  0.00  0.00    +0.153 A 
ATOM      2  C   UNL     1       8.675  -4.124  26.018  0.00  0.00    +0.048 A 
ATOM      3  C   UNL     1       7.649  -4.637  26.807  0.00  0.00    +0.004 A 
ATOM      4  C   UNL     1       6.544  -5.231  26.207  0.00  0.00    +0.005 A 
ATOM      5  C   UNL     1       6.465  -5.329  24.811  0.00  0.00    -0.023 A 
ATOM      6  C   UNL     1       5.281  -6.036  24.200  0.00  0.00    +0.038 C 
ATOM      7  C   UNL     1       5.169  -5.794  22.700  0.00  0.00    +0.023 C 
ATOM      8  C   UNL     1       6.545  -5.903  22.060  0.00  0.00    +0.102 C 
ATOM      9  N   UNL     1       7.422  -4.867  22.595  0.00  0.00    -0.341 N 
ATOM     10  H   UNL     1       8.360  -4.870  22.191  0.00  0.00    +0.146 HD
ATOM     11  C   UNL     1       7.516  -4.842  24.004  0.00  0.00    +0.073 A 
ENDROOT
BRANCH   1  12
ATOM     12  O   UNL     1       9.585  -3.660  23.806  0.00  0.00    -0.402 OA
BRANCH  12  13
ATOM     13  P   UNL     1       9.664  -1.932  23.748  0.00  0.00    +0.528 P 
ATOM     14  O   UNL     1      10.632  -1.916  22.562  0.00  0.00    -0.216 OA
BRANCH  13  15
ATOM     15  O   UNL     1       9.743  -0.205  23.691  0.00  0.00    -0.293 OA
ATOM     16  H   UNL     1      10.397  -0.074  22.970  0.00  0.00    +0.223 HD
ENDBRANCH  13  15
BRANCH  13  17
ATOM     17  O   UNL     1       8.165  -1.836  23.111  0.00  0.00    -0.293 OA
ATOM     18  H   UNL     1       7.476  -1.912  23.791  0.00  0.00    +0.223 HD
ENDBRANCH  13  17
ENDBRANCH  12  13
ENDBRANCH   1  12
TORSDOF 4
ENDMDL
MODEL 4
REMARK VINA RESULT:      -5.2      3.000      3.799
REMARK  Name = 
REMARK  4 active torsions:
REMARK  status: ('A' for Active; 'I' for Inactive)
REMARK    1  A    between atoms: O_1  and  P_2
REMARK    2  A    between atoms: P_2  and  O_3
REMARK    3  A    between atoms: P_2  and  O_5
REMARK    4  A    between atoms: O_5  and  C_6
REMARK                            x       y       z     vdW  Elec       q    Type
REMARK                         _______ _______ _______ _____ _____    ______ ____
ROOT
ATOM      1  C   UNL     1       8.025  -1.751  23.068  0.00  0.00    +0.153 A 
ATOM      2  C   UNL     1       9.315  -2.276  22.926  0.00  0.00    +0.048 A 
ATOM      3  C   UNL     1      10.354  -1.478  22.454  0.00  0.00    +0.004 A 
ATOM      4  C   UNL     1      10.114  -0.147  22.131  0.00  0.00    +0.005 A 
ATOM      5  C   UNL     1       8.833   0.399  22.291  0.00  0.00    -0.023 A 
ATOM      6  C   UNL     1       8.627   1.864  21.989  0.00  0.00    +0.038 C 
ATOM      7  C   UNL     1       7.153   2.237  21.903  0.00  0.00    +0.023 C 
ATOM      8  C   UNL     1       6.388   1.569  23.037  0.00  0.00    +0.102 C 
ATOM      9  N   UNL     1       6.468   0.119  22.899  0.00  0.00    -0.341 N 
ATOM     10  H   UNL     1       5.958  -0.393  23.620  0.00  0.00    +0.146 HD
ATOM     11  C   UNL     1       7.781  -0.393  22.800  0.00  0.00    +0.073 A 
ENDROOT
BRANCH   1  12
ATOM     12  O   UNL     1       6.960  -2.526  23.499  0.00  0.00    -0.402 OA
BRANCH  12  13
ATOM     13  P   UNL     1       6.415  -3.741  22.393  0.00  0.00    +0.528 P 
ATOM     14  O   UNL     1       5.680  -4.538  23.474  0.00  0.00    -0.216 OA
BRANCH  13  15
ATOM     15  O   UNL     1       5.871  -4.955  21.288  0.00  0.00    -0.293 OA
ATOM     16  H   UNL     1       4.941  -5.070  21.582  0.00  0.00    +0.223 HD
ENDBRANCH  13  15
BRANCH  13  17
ATOM     17  O   UNL     1       5.311  -2.728  21.748  0.00  0.00    -0.293 OA
ATOM     18  H   UNL     1       4.832  -3.138  21.008  0.00  0.00    +0.223 HD
ENDBRANCH  13  17
ENDBRANCH  12  13
ENDBRANCH   1  12
TORSDOF 4
ENDMDL
MODEL 5
REMARK VINA RESULT:      -5.1      1.745      2.735
REMARK  Name = 
REMARK  4 active torsions:
REMARK  status: ('A' for Active; 'I' for Inactive)
REMARK    1  A    between atoms: O_1  and  P_2
REMARK    2  A    between atoms: P_2  and  O_3
REMARK    3  A    between atoms: P_2  and  O_5
REMARK    4  A    between atoms: O_5  and  C_6
REMARK                            x       y       z     vdW  Elec       q    Type
REMARK                         _______ _______ _______ _____ _____    ______ ____
ROOT
ATOM      1  C   UNL     1       8.389  -2.343  24.594  0.00  0.00    +0.153 A 
ATOM      2  C   UNL     1       7.840  -3.124  23.570  0.00  0.00    +0.048 A 
ATOM      3  C   UNL     1       7.984  -2.744  22.238  0.00  0.00    +0.004 A 
ATOM      4  C   UNL     1       8.686  -1.587  21.919  0.00  0.00    +0.005 A 
ATOM      5  C   UNL     1       9.261  -0.807  22.931  0.00  0.00    -0.023 A 
ATOM      6  C   UNL     1      10.068   0.407  22.541  0.00  0.00    +0.038 C 
ATOM      7  C   UNL     1      10.360   1.316  23.727  0.00  0.00    +0.023 C 
ATOM      8  C   UNL     1      10.766   0.476  24.930  0.00  0.00    +0.102 C 
ATOM      9  N   UNL     1       9.661  -0.392  25.320  0.00  0.00    -0.341 N 
ATOM     10  H   UNL     1       9.859  -0.972  26.137  0.00  0.00    +0.146 HD
ATOM     11  C   UNL     1       9.150  -1.202  24.282  0.00  0.00    +0.073 A 
ENDROOT
BRANCH   1  12
ATOM     12  O   UNL     1       8.233  -2.671  25.931  0.00  0.00    -0.402 OA
BRANCH  12  13
ATOM     13  P   UNL     1       8.053  -4.356  26.279  0.00  0.00    +0.528 P 
ATOM     14  O   UNL     1       9.424  -4.467  26.952  0.00  0.00    -0.216 OA
BRANCH  13  15
ATOM     15  O   UNL     1       7.873  -6.041  26.627  0.00  0.00    -0.293 OA
ATOM     16  H   UNL     1       8.784  -6.268  26.917  0.00  0.00    +0.223 HD
ENDBRANCH  13  15
BRANCH  13  17
ATOM     17  O   UNL     1       6.986  -4.046  27.473  0.00  0.00    -0.293 OA
ATOM     18  H   UNL     1       6.215  -4.635  27.432  0.00  0.00    +0.223 HD
ENDBRANCH  13  17
ENDBRANCH  12  13
ENDBRANCH   1  12
TORSDOF 4
ENDMDL
MODEL 6
REMARK VINA RESULT:      -5.0      4.696      6.235
REMARK  Name = 
REMARK  4 active torsions:
REMARK  status: ('A' for Active; 'I' for Inactive)
REMARK    1  A    between atoms: O_1  and  P_2
REMARK    2  A    between atoms: P_2  and  O_3
REMARK    3  A    between atoms: P_2  and  O_5
REMARK    4  A    between atoms: O_5  and  C_6
REMARK                            x       y       z     vdW  Elec       q    Type
REMARK                         _______ _______ _______ _____ _____    ______ ____
ROOT
ATOM      1  C   UNL     1       6.946  -4.618  23.641  0.00  0.00    +0.153 A 
ATOM      2  C   UNL     1       7.040  -4.678  22.245  0.00  0.00    +0.048 A 
ATOM      3  C   UNL     1       6.169  -5.480  21.512  0.00  0.00    +0.004 A 
ATOM      4  C   UNL     1       5.191  -6.219  22.167  0.00  0.00    +0.005 A 
ATOM      5  C   UNL     1       5.068  -6.151  23.562  0.00  0.00    -0.023 A 
ATOM      6  C   UNL     1       3.954  -6.920  24.230  0.00  0.00    +0.038 C 
ATOM      7  C   UNL     1       4.132  -7.006  25.740  0.00  0.00    +0.023 C 
ATOM      8  C   UNL     1       4.568  -5.653  26.283  0.00  0.00    +0.102 C 
ATOM      9  N   UNL     1       5.864  -5.290  25.721  0.00  0.00    -0.341 N 
ATOM     10  H   UNL     1       6.227  -4.397  26.060  0.00  0.00    +0.146 HD
ATOM     11  C   UNL     1       5.925  -5.316  24.311  0.00  0.00    +0.073 A 
ENDROOT
BRANCH   1  12
ATOM     12  O   UNL     1       7.820  -3.861  24.404  0.00  0.00    -0.402 OA
BRANCH  12  13
ATOM     13  P   UNL     1       9.178  -4.708  25.060  0.00  0.00    +0.528 P 
ATOM     14  O   UNL     1      10.203  -3.773  24.411  0.00  0.00    -0.216 OA
BRANCH  13  15
ATOM     15  O   UNL     1      10.537  -5.556  25.715  0.00  0.00    -0.293 OA
ATOM     16  H   UNL     1      10.181  -5.826  26.590  0.00  0.00    +0.223 HD
ENDBRANCH  13  15
BRANCH  13  17
ATOM     17  O   UNL     1       8.897  -4.108  26.550  0.00  0.00    -0.293 OA
ATOM     18  H   UNL     1       9.429  -4.556  27.228  0.00  0.00    +0.223 HD
ENDBRANCH  13  17
ENDBRANCH  12  13
ENDBRANCH   1  12
TORSDOF 4
ENDMDL
MODEL 7
REMARK VINA RESULT:      -5.0      3.014      3.942
REMARK  Name = 
REMARK  4 active torsions:
REMARK  status: ('A' for Active; 'I' for Inactive)
REMARK    1  A    between atoms: O_1  and  P_2
REMARK    2  A    between atoms: P_2  and  O_3
REMARK    3  A    between atoms: P_2  and  O_5
REMARK    4  A    between atoms: O_5  and  C_6
REMARK                            x       y       z     vdW  Elec       q    Type
REMARK                         _______ _______ _______ _____ _____    ______ ____
ROOT
ATOM      1  C   UNL     1       7.212  -4.901  24.378  0.00  0.00    +0.153 A 
ATOM      2  C   UNL     1       6.122  -5.400  23.655  0.00  0.00    +0.048 A 
ATOM      3  C   UNL     1       5.737  -4.806  22.456  0.00  0.00    +0.004 A 
ATOM      4  C   UNL     1       6.444  -3.714  21.966  0.00  0.00    +0.005 A 
ATOM      5  C   UNL     1       7.552  -3.217  22.665  0.00  0.00    -0.023 A 
ATOM      6  C   UNL     1       8.332  -2.071  22.069  0.00  0.00    +0.038 C 
ATOM      7  C   UNL     1       9.295  -1.442  23.067  0.00  0.00    +0.023 C 
ATOM      8  C   UNL     1      10.010  -2.535  23.848  0.00  0.00    +0.102 C 
ATOM      9  N   UNL     1       9.040  -3.304  24.620  0.00  0.00    -0.341 N 
ATOM     10  H   UNL     1       9.456  -4.045  25.186  0.00  0.00    +0.146 HD
ATOM     11  C   UNL     1       7.971  -3.834  23.864  0.00  0.00    +0.073 A 
ENDROOT
BRANCH   1  12
ATOM     12  O   UNL     1       7.600  -5.445  25.591  0.00  0.00    -0.402 OA
BRANCH  12  13
ATOM     13  P   UNL     1       6.544  -5.137  26.928  0.00  0.00    +0.528 P 
ATOM     14  O   UNL     1       7.389  -5.950  27.912  0.00  0.00    -0.216 OA
BRANCH  13  15
ATOM     15  O   UNL     1       5.489  -4.828  28.264  0.00  0.00    -0.293 OA
ATOM     16  H   UNL     1       4.663  -5.258  27.950  0.00  0.00    +0.223 HD
ENDBRANCH  13  15
BRANCH  13  17
ATOM     17  O   UNL     1       7.067  -3.596  27.048  0.00  0.00    -0.293 OA
ATOM     18  H   UNL     1       6.849  -3.076  26.257  0.00  0.00    +0.223 HD
ENDBRANCH  13  17
ENDBRANCH  12  13
ENDBRANCH   1  12
TORSDOF 4
ENDMDL
MODEL 8
REMARK VINA RESULT:      -5.0      4.158      5.262
REMARK  Name = 
REMARK  4 active torsions:
REMARK  status: ('A' for Active; 'I' for Inactive)
REMARK    1  A    between atoms: O_1  and  P_2
REMARK    2  A    between atoms: P_2  and  O_3
REMARK    3  A    between atoms: P_2  and  O_5
REMARK    4  A    between atoms: O_5  and  C_6
REMARK                            x       y       z     vdW  Elec       q    Type
REMARK                         _______ _______ _______ _____ _____    ______ ____
ROOT
ATOM      1  C   UNL     1       8.021   0.002  24.191  0.00  0.00    +0.153 A 
ATOM      2  C   UNL     1       8.493   0.403  25.447  0.00  0.00    +0.048 A 
ATOM      3  C   UNL     1       8.742  -0.538  26.442  0.00  0.00    +0.004 A 
ATOM      4  C   UNL     1       8.531  -1.889  26.186  0.00  0.00    +0.005 A 
ATOM      5  C   UNL     1       8.082  -2.308  24.927  0.00  0.00    -0.023 A 
ATOM      6  C   UNL     1       7.926  -3.787  24.669  0.00  0.00    +0.038 C 
ATOM      7  C   UNL     1       7.145  -4.074  23.393  0.00  0.00    +0.023 C 
ATOM      8  C   UNL     1       7.614  -3.144  22.284  0.00  0.00    +0.102 C 
ATOM      9  N   UNL     1       7.337  -1.760  22.650  0.00  0.00    -0.341 N 
ATOM     10  H   UNL     1       7.610  -1.081  21.938  0.00  0.00    +0.146 HD
ATOM     11  C   UNL     1       7.858  -1.364  23.901  0.00  0.00    +0.073 A 
ENDROOT
BRANCH   1  12
ATOM     12  O   UNL     1       7.726   0.915  23.191  0.00  0.00    -0.402 OA
BRANCH  12  13
ATOM     13  P   UNL     1       9.088   1.626  22.395  0.00  0.00    +0.528 P 
ATOM     14  O   UNL     1       9.081   0.606  21.253  0.00  0.00    -0.216 OA
BRANCH  13  15
ATOM     15  O   UNL     1      10.449   2.337  21.598  0.00  0.00    -0.293 OA
ATOM     16  H   UNL     1      10.008   3.038  21.068  0.00  0.00    +0.223 HD
ENDBRANCH  13  15
BRANCH  13  17
ATOM     17  O   UNL     1       8.190   2.887  21.880  0.00  0.00    -0.293 OA
ATOM     18  H   UNL     1       7.746   2.697  21.037  0.00  0.00    +0.223 HD
ENDBRANCH  13  17
ENDBRANCH  12  13
ENDBRANCH   1  12
TORSDOF 4
ENDMDL
MODEL 9
REMARK VINA RESULT:      -5.0      1.379      1.601
REMARK  Name = 
REMARK  4 active torsions:
REMARK  status: ('A' for Active; 'I' for Inactive)
REMARK    1  A    between atoms: O_1  and  P_2
REMARK    2  A    between atoms: P_2  and  O_3
REMARK    3  A    between atoms: P_2  and  O_5
REMARK    4  A    between atoms: O_5  and  C_6
REMARK                            x       y       z     vdW  Elec       q    Type
REMARK                         _______ _______ _______ _____ _____    ______ ____
ROOT
ATOM      1  C   UNL     1       8.867  -2.004  23.929  0.00  0.00    +0.153 A 
ATOM      2  C   UNL     1       8.702  -2.090  25.317  0.00  0.00    +0.048 A 
ATOM      3  C   UNL     1       8.878  -0.967  26.121  0.00  0.00    +0.004 A 
ATOM      4  C   UNL     1       9.209   0.254  25.543  0.00  0.00    +0.005 A 
ATOM      5  C   UNL     1       9.354   0.362  24.153  0.00  0.00    -0.023 A 
ATOM      6  C   UNL     1       9.653   1.717  23.559  0.00  0.00    +0.038 C 
ATOM      7  C   UNL     1      10.088   1.629  22.103  0.00  0.00    +0.023 C 
ATOM      8  C   UNL     1       9.200   0.641  21.360  0.00  0.00    +0.102 C 
ATOM      9  N   UNL     1       9.357  -0.691  21.933  0.00  0.00    -0.341 N 
ATOM     10  H   UNL     1       8.802  -1.410  21.467  0.00  0.00    +0.146 HD
ATOM     11  C   UNL     1       9.146  -0.764  23.327  0.00  0.00    +0.073 A 
ENDROOT
BRANCH   1  12
ATOM     12  O   UNL     1       8.737  -3.108  23.104  0.00  0.00    -0.402 OA
BRANCH  12  13
ATOM     13  P   UNL     1       7.573  -4.288  23.600  0.00  0.00    +0.528 P 
ATOM     14  O   UNL     1       7.173  -4.645  22.166  0.00  0.00    -0.216 OA
BRANCH  13  15
ATOM     15  O   UNL     1       6.409  -5.468  24.097  0.00  0.00    -0.293 OA
ATOM     16  H   UNL     1       6.097  -5.798  23.226  0.00  0.00    +0.223 HD
ENDBRANCH  13  15
BRANCH  13  17
ATOM     17  O   UNL     1       8.746  -5.342  24.018  0.00  0.00    -0.293 OA
ATOM     18  H   UNL     1       8.918  -5.991  23.316  0.00  0.00    +0.223 HD
ENDBRANCH  13  17
ENDBRANCH  12  13
ENDBRANCH   1  12
TORSDOF 4
ENDMDL
