MODEL 1
REMARK VINA RESULT:      -3.9      0.000      0.000
REMARK  Name = 
REMARK  4 active torsions:
REMARK  status: ('A' for Active; 'I' for Inactive)
REMARK    1  A    between atoms: N_6  and  C_7
REMARK    2  A    between atoms: C_7  and  C_8
REMARK    3  A    between atoms: C_8  and  C_9
REMARK    4  A    between atoms: C_9  and  O_10
REMARK                            x       y       z     vdW  Elec       q    Type
REMARK                         _______ _______ _______ _____ _____    ______ ____
ROOT
ATOM      1  N   UNL     1      13.817   5.151  23.004  0.00  0.00    -0.292 N 
ATOM      2  H   UNL     1      13.965   4.427  22.313  0.00  0.00    +0.255 HD
ATOM      3  H   UNL     1      14.622   5.708  23.262  0.00  0.00    +0.255 HD
ATOM      4  C   UNL     1      12.618   5.366  23.556  0.00  0.00    +0.341 C 
ATOM      5  N   UNL     1      11.575   4.607  23.184  0.00  0.00    -0.279 N 
ATOM      6  H   UNL     1      11.742   3.885  22.495  0.00  0.00    +0.258 HD
ATOM      7  N   UNL     1      12.498   6.336  24.465  0.00  0.00    -0.292 N 
ATOM      8  H   UNL     1      13.282   6.910  24.744  0.00  0.00    +0.255 HD
ATOM      9  H   UNL     1      11.611   6.525  24.915  0.00  0.00    +0.255 HD
ENDROOT
BRANCH   5  10
ATOM     10  C   UNL     1      10.220   4.753  23.743  0.00  0.00    +0.198 C 
BRANCH  10  11
ATOM     11  C   UNL     1       9.438   3.444  23.643  0.00  0.00    +0.065 C 
BRANCH  11  12
ATOM     12  C   UNL     1      10.303   2.332  23.070  0.00  0.00    +0.159 C 
BRANCH  12  13
ATOM     13  O   UNL     1      10.173   2.322  21.657  0.00  0.00    -0.395 OA
ATOM     14  H   UNL     1       9.348   2.789  21.431  0.00  0.00    +0.209 HD
ENDBRANCH  12  13
ENDBRANCH  11  12
ENDBRANCH  10  11
ENDBRANCH   5  10
TORSDOF 4
ENDMDL
MODEL 2
REMARK VINA RESULT:      -3.8      2.925      4.363
REMARK  Name = 
REMARK  4 active torsions:
REMARK  status: ('A' for Active; 'I' for Inactive)
REMARK    1  A    between atoms: N_6  and  C_7
REMARK    2  A    between atoms: C_7  and  C_8
REMARK    3  A    between atoms: C_8  and  C_9
REMARK    4  A    between atoms: C_9  and  O_10
REMARK                            x       y       z     vdW  Elec       q    Type
REMARK                         _______ _______ _______ _____ _____    ______ ____
ROOT
ATOM      1  N   UNL     1       7.929   2.851  22.694  0.00  0.00    -0.292 N 
ATOM      2  H   UNL     1       7.446   3.438  23.362  0.00  0.00    +0.255 HD
ATOM      3  H   UNL     1       7.356   2.249  22.117  0.00  0.00    +0.255 HD
ATOM      4  C   UNL     1       9.260   2.863  22.578  0.00  0.00    +0.341 C 
ATOM      5  N   UNL     1       9.985   3.678  23.362  0.00  0.00    -0.279 N 
ATOM      6  H   UNL     1       9.485   4.255  24.027  0.00  0.00    +0.258 HD
ATOM      7  N   UNL     1       9.831   2.059  21.677  0.00  0.00    -0.292 N 
ATOM      8  H   UNL     1       9.287   1.446  21.085  0.00  0.00    +0.255 HD
ATOM      9  H   UNL     1      10.836   2.029  21.564  0.00  0.00    +0.255 HD
ENDROOT
BRANCH   5  10
ATOM     10  C   UNL     1      11.455   3.755  23.322  0.00  0.00    +0.198 C 
BRANCH  10  11
ATOM     11  C   UNL     1      11.936   5.201  23.424  0.00  0.00    +0.065 C 
BRANCH  11  12
ATOM     12  C   UNL     1      13.111   5.454  22.492  0.00  0.00    +0.159 C 
BRANCH  12  13
ATOM     13  O   UNL     1      14.315   5.100  23.155  0.00  0.00    -0.395 OA
ATOM     14  H   UNL     1      14.927   4.739  22.487  0.00  0.00    +0.209 HD
ENDBRANCH  12  13
ENDBRANCH  11  12
ENDBRANCH  10  11
ENDBRANCH   5  10
TORSDOF 4
ENDMDL
MODEL 3
REMARK VINA RESULT:      -3.8      8.771      9.798
REMARK  Name = 
REMARK  4 active torsions:
REMARK  status: ('A' for Active; 'I' for Inactive)
REMARK    1  A    between atoms: N_6  and  C_7
REMARK    2  A    between atoms: C_7  and  C_8
REMARK    3  A    between atoms: C_8  and  C_9
REMARK    4  A    between atoms: C_9  and  O_10
REMARK                            x       y       z     vdW  Elec       q    Type
REMARK                         _______ _______ _______ _____ _____    ______ ____
ROOT
ATOM      1  N   UNL     1       7.993  -5.754  27.100  0.00  0.00    -0.292 N 
ATOM      2  H   UNL     1       7.044  -5.551  27.387  0.00  0.00    +0.255 HD
ATOM      3  H   UNL     1       8.596  -6.188  27.788  0.00  0.00    +0.255 HD
ATOM      4  C   UNL     1       8.437  -5.461  25.874  0.00  0.00    +0.341 C 
ATOM      5  N   UNL     1       7.605  -4.887  24.990  0.00  0.00    -0.279 N 
ATOM      6  H   UNL     1       6.661  -4.688  25.295  0.00  0.00    +0.258 HD
ATOM      7  N   UNL     1       9.704  -5.752  25.566  0.00  0.00    -0.292 N 
ATOM      8  H   UNL     1      10.330  -6.186  26.230  0.00  0.00    +0.255 HD
ATOM      9  H   UNL     1      10.083  -5.538  24.652  0.00  0.00    +0.255 HD
ENDROOT
BRANCH   5  10
ATOM     10  C   UNL     1       8.001  -4.511  23.621  0.00  0.00    +0.198 C 
BRANCH  10  11
ATOM     11  C   UNL     1       7.857  -3.007  23.398  0.00  0.00    +0.065 C 
BRANCH  11  12
ATOM     12  C   UNL     1       9.206  -2.309  23.490  0.00  0.00    +0.159 C 
BRANCH  12  13
ATOM     13  O   UNL     1      10.173  -3.226  23.977  0.00  0.00    -0.395 OA
ATOM     14  H   UNL     1      10.569  -3.676  23.209  0.00  0.00    +0.209 HD
ENDBRANCH  12  13
ENDBRANCH  11  12
ENDBRANCH  10  11
ENDBRANCH   5  10
TORSDOF 4
ENDMDL
MODEL 4
REMARK VINA RESULT:      -3.8      3.093      4.326
REMARK  Name = 
REMARK  4 active torsions:
REMARK  status: ('A' for Active; 'I' for Inactive)
REMARK    1  A    between atoms: N_6  and  C_7
REMARK    2  A    between atoms: C_7  and  C_8
REMARK    3  A    between atoms: C_8  and  C_9
REMARK    4  A    between atoms: C_9  and  O_10
REMARK                            x       y       z     vdW  Elec       q    Type
REMARK                         _______ _______ _______ _____ _____    ______ ____
ROOT
ATOM      1  N   UNL     1      10.877   3.271  22.920  0.00  0.00    -0.292 N 
ATOM      2  H   UNL     1      11.255   3.465  23.838  0.00  0.00    +0.255 HD
ATOM      3  H   UNL     1      11.109   3.925  22.183  0.00  0.00    +0.255 HD
ATOM      4  C   UNL     1      10.104   2.206  22.686  0.00  0.00    +0.341 C 
ATOM      5  N   UNL     1       9.822   1.361  23.690  0.00  0.00    -0.279 N 
ATOM      6  H   UNL     1      10.205   1.573  24.603  0.00  0.00    +0.258 HD
ATOM      7  N   UNL     1       9.636   2.016  21.450  0.00  0.00    -0.292 N 
ATOM      8  H   UNL     1       9.850   2.650  20.692  0.00  0.00    +0.255 HD
ATOM      9  H   UNL     1       9.039   1.228  21.231  0.00  0.00    +0.255 HD
ENDROOT
BRANCH   5  10
ATOM     10  C   UNL     1       8.969   0.170  23.539  0.00  0.00    +0.198 C 
BRANCH  10  11
ATOM     11  C   UNL     1       9.748  -1.109  23.842  0.00  0.00    +0.065 C 
BRANCH  11  12
ATOM     12  C   UNL     1      10.407  -1.659  22.586  0.00  0.00    +0.159 C 
BRANCH  12  13
ATOM     13  O   UNL     1       9.886  -0.982  21.453  0.00  0.00    -0.395 OA
ATOM     14  H   UNL     1       9.762  -1.640  20.745  0.00  0.00    +0.209 HD
ENDBRANCH  12  13
ENDBRANCH  11  12
ENDBRANCH  10  11
ENDBRANCH   5  10
TORSDOF 4
ENDMDL
MODEL 5
REMARK VINA RESULT:      -3.6      3.218      4.181
REMARK  Name = 
REMARK  4 active torsions:
REMARK  status: ('A' for Active; 'I' for Inactive)
REMARK    1  A    between atoms: N_6  and  C_7
REMARK    2  A    between atoms: C_7  and  C_8
REMARK    3  A    between atoms: C_8  and  C_9
REMARK    4  A    between atoms: C_9  and  O_10
REMARK                            x       y       z     vdW  Elec       q    Type
REMARK                         _______ _______ _______ _____ _____    ______ ____
ROOT
ATOM      1  N   UNL     1       7.463   6.177  21.462  0.00  0.00    -0.292 N 
ATOM      2  H   UNL     1       8.329   6.701  21.442  0.00  0.00    +0.255 HD
ATOM      3  H   UNL     1       6.684   6.562  20.943  0.00  0.00    +0.255 HD
ATOM      4  C   UNL     1       7.347   5.031  22.140  0.00  0.00    +0.341 C 
ATOM      5  N   UNL     1       8.406   4.552  22.814  0.00  0.00    -0.279 N 
ATOM      6  H   UNL     1       9.262   5.092  22.786  0.00  0.00    +0.258 HD
ATOM      7  N   UNL     1       6.173   4.395  22.126  0.00  0.00    -0.292 N 
ATOM      8  H   UNL     1       5.376   4.754  21.618  0.00  0.00    +0.255 HD
ATOM      9  H   UNL     1       6.039   3.531  22.635  0.00  0.00    +0.255 HD
ENDROOT
BRANCH   5  10
ATOM     10  C   UNL     1       8.377   3.309  23.604  0.00  0.00    +0.198 C 
BRANCH  10  11
ATOM     11  C   UNL     1       9.784   2.754  23.812  0.00  0.00    +0.065 C 
BRANCH  11  12
ATOM     12  C   UNL     1      10.100   1.667  22.795  0.00  0.00    +0.159 C 
BRANCH  12  13
ATOM     13  O   UNL     1      10.039   2.220  21.489  0.00  0.00    -0.395 OA
ATOM     14  H   UNL     1      10.843   2.754  21.354  0.00  0.00    +0.209 HD
ENDBRANCH  12  13
ENDBRANCH  11  12
ENDBRANCH  10  11
ENDBRANCH   5  10
TORSDOF 4
ENDMDL
MODEL 6
REMARK VINA RESULT:      -3.6      4.179      5.053
REMARK  Name = 
REMARK  4 active torsions:
REMARK  status: ('A' for Active; 'I' for Inactive)
REMARK    1  A    between atoms: N_6  and  C_7
REMARK    2  A    between atoms: C_7  and  C_8
REMARK    3  A    between atoms: C_8  and  C_9
REMARK    4  A    between atoms: C_9  and  O_10
REMARK                            x       y       z     vdW  Elec       q    Type
REMARK                         _______ _______ _______ _____ _____    ______ ____
ROOT
ATOM      1  N   UNL     1       9.567   0.079  25.883  0.00  0.00    -0.292 N 
ATOM      2  H   UNL     1       8.758  -0.499  26.068  0.00  0.00    +0.255 HD
ATOM      3  H   UNL     1       9.919   0.633  26.654  0.00  0.00    +0.255 HD
ATOM      4  C   UNL     1      10.148   0.117  24.680  0.00  0.00    +0.341 C 
ATOM      5  N   UNL     1       9.652  -0.635  23.684  0.00  0.00    -0.279 N 
ATOM      6  H   UNL     1       8.840  -1.204  23.885  0.00  0.00    +0.258 HD
ATOM      7  N   UNL     1      11.210   0.908  24.507  0.00  0.00    -0.292 N 
ATOM      8  H   UNL     1      11.585   1.473  25.257  0.00  0.00    +0.255 HD
ATOM      9  H   UNL     1      11.673   0.975  23.609  0.00  0.00    +0.255 HD
ENDROOT
BRANCH   5  10
ATOM     10  C   UNL     1      10.209  -0.652  22.320  0.00  0.00    +0.198 C 
BRANCH  10  11
ATOM     11  C   UNL     1       9.200  -0.116  21.305  0.00  0.00    +0.065 C 
BRANCH  11  12
ATOM     12  C   UNL     1       8.945   1.368  21.518  0.00  0.00    +0.159 C 
BRANCH  12  13
ATOM     13  O   UNL     1      10.187   2.032  21.703  0.00  0.00    -0.395 OA
ATOM     14  H   UNL     1      10.104   2.605  22.486  0.00  0.00    +0.209 HD
ENDBRANCH  12  13
ENDBRANCH  11  12
ENDBRANCH  10  11
ENDBRANCH   5  10
TORSDOF 4
ENDMDL
MODEL 7
REMARK VINA RESULT:      -3.6     10.014     10.624
REMARK  Name = 
REMARK  4 active torsions:
REMARK  status: ('A' for Active; 'I' for Inactive)
REMARK    1  A    between atoms: N_6  and  C_7
REMARK    2  A    between atoms: C_7  and  C_8
REMARK    3  A    between atoms: C_8  and  C_9
REMARK    4  A    between atoms: C_9  and  O_10
REMARK                            x       y       z     vdW  Elec       q    Type
REMARK                         _______ _______ _______ _____ _____    ______ ____
ROOT
ATOM      1  N   UNL     1       8.055  -5.786  27.039  0.00  0.00    -0.292 N 
ATOM      2  H   UNL     1       7.107  -5.604  27.339  0.00  0.00    +0.255 HD
ATOM      3  H   UNL     1       8.656  -6.274  27.691  0.00  0.00    +0.255 HD
ATOM      4  C   UNL     1       8.501  -5.400  25.839  0.00  0.00    +0.341 C 
ATOM      5  N   UNL     1       7.672  -4.756  25.002  0.00  0.00    -0.279 N 
ATOM      6  H   UNL     1       6.728  -4.579  25.322  0.00  0.00    +0.258 HD
ATOM      7  N   UNL     1       9.767  -5.670  25.510  0.00  0.00    -0.292 N 
ATOM      8  H   UNL     1      10.392  -6.156  26.139  0.00  0.00    +0.255 HD
ATOM      9  H   UNL     1      10.148  -5.386  24.616  0.00  0.00    +0.255 HD
ENDROOT
BRANCH   5  10
ATOM     10  C   UNL     1       8.070  -4.276  23.667  0.00  0.00    +0.198 C 
BRANCH  10  11
ATOM     11  C   UNL     1       7.008  -4.610  22.621  0.00  0.00    +0.065 C 
BRANCH  11  12
ATOM     12  C   UNL     1       7.256  -5.980  22.008  0.00  0.00    +0.159 C 
BRANCH  12  13
ATOM     13  O   UNL     1       6.068  -6.752  22.096  0.00  0.00    -0.395 OA
ATOM     14  H   UNL     1       6.140  -7.321  22.884  0.00  0.00    +0.209 HD
ENDBRANCH  12  13
ENDBRANCH  11  12
ENDBRANCH  10  11
ENDBRANCH   5  10
TORSDOF 4
ENDMDL
MODEL 8
REMARK VINA RESULT:      -3.4      4.434      5.548
REMARK  Name = 
REMARK  4 active torsions:
REMARK  status: ('A' for Active; 'I' for Inactive)
REMARK    1  A    between atoms: N_6  and  C_7
REMARK    2  A    between atoms: C_7  and  C_8
REMARK    3  A    between atoms: C_8  and  C_9
REMARK    4  A    between atoms: C_9  and  O_10
REMARK                            x       y       z     vdW  Elec       q    Type
REMARK                         _______ _______ _______ _____ _____    ______ ____
ROOT
ATOM      1  N   UNL     1       9.619   2.047  21.425  0.00  0.00    -0.292 N 
ATOM      2  H   UNL     1       9.291   1.998  20.469  0.00  0.00    +0.255 HD
ATOM      3  H   UNL     1       9.703   2.970  21.832  0.00  0.00    +0.255 HD
ATOM      4  C   UNL     1       9.932   0.950  22.121  0.00  0.00    +0.341 C 
ATOM      5  N   UNL     1       9.805  -0.256  21.545  0.00  0.00    -0.279 N 
ATOM      6  H   UNL     1       9.479  -0.286  20.587  0.00  0.00    +0.258 HD
ATOM      7  N   UNL     1      10.365   1.091  23.377  0.00  0.00    -0.292 N 
ATOM      8  H   UNL     1      10.459   1.999  23.812  0.00  0.00    +0.255 HD
ATOM      9  H   UNL     1      10.622   0.287  23.936  0.00  0.00    +0.255 HD
ENDROOT
BRANCH   5  10
ATOM     10  C   UNL     1      10.138  -1.523  22.220  0.00  0.00    +0.198 C 
BRANCH  10  11
ATOM     11  C   UNL     1       8.888  -2.190  22.789  0.00  0.00    +0.065 C 
BRANCH  11  12
ATOM     12  C   UNL     1       9.049  -2.479  24.274  0.00  0.00    +0.159 C 
BRANCH  12  13
ATOM     13  O   UNL     1       9.396  -1.278  24.947  0.00  0.00    -0.395 OA
ATOM     14  H   UNL     1       8.604  -0.710  24.968  0.00  0.00    +0.209 HD
ENDBRANCH  12  13
ENDBRANCH  11  12
ENDBRANCH  10  11
ENDBRANCH   5  10
TORSDOF 4
ENDMDL
MODEL 9
REMARK VINA RESULT:      -3.4      2.685      3.661
REMARK  Name = 
REMARK  4 active torsions:
REMARK  status: ('A' for Active; 'I' for Inactive)
REMARK    1  A    between atoms: N_6  and  C_7
REMARK    2  A    between atoms: C_7  and  C_8
REMARK    3  A    between atoms: C_8  and  C_9
REMARK    4  A    between atoms: C_9  and  O_10
REMARK                            x       y       z     vdW  Elec       q    Type
REMARK                         _______ _______ _______ _____ _____    ______ ____
ROOT
ATOM      1  N   UNL     1       7.986   3.921  25.019  0.00  0.00    -0.292 N 
ATOM      2  H   UNL     1       7.453   3.368  25.678  0.00  0.00    +0.255 HD
ATOM      3  H   UNL     1       7.659   4.862  24.842  0.00  0.00    +0.255 HD
ATOM      4  C   UNL     1       9.069   3.435  24.404  0.00  0.00    +0.341 C 
ATOM      5  N   UNL     1       9.471   2.181  24.667  0.00  0.00    -0.279 N 
ATOM      6  H   UNL     1       8.924   1.642  25.325  0.00  0.00    +0.258 HD
ATOM      7  N   UNL     1       9.720   4.219  23.541  0.00  0.00    -0.292 N 
ATOM      8  H   UNL     1       9.420   5.164  23.344  0.00  0.00    +0.255 HD
ATOM      9  H   UNL     1      10.539   3.887  23.046  0.00  0.00    +0.255 HD
ENDROOT
BRANCH   5  10
ATOM     10  C   UNL     1      10.640   1.548  24.031  0.00  0.00    +0.198 C 
BRANCH  10  11
ATOM     11  C   UNL     1      10.221   0.367  23.157  0.00  0.00    +0.065 C 
BRANCH  11  12
ATOM     12  C   UNL     1       9.693   0.842  21.812  0.00  0.00    +0.159 C 
BRANCH  12  13
ATOM     13  O   UNL     1      10.211   2.136  21.539  0.00  0.00    -0.395 OA
ATOM     14  H   UNL     1      10.376   2.576  22.393  0.00  0.00    +0.209 HD
ENDBRANCH  12  13
ENDBRANCH  11  12
ENDBRANCH  10  11
ENDBRANCH   5  10
TORSDOF 4
ENDMDL
