MODEL 1
REMARK VINA RESULT:      -6.3      0.000      0.000
REMARK  Name = 
REMARK  4 active torsions:
REMARK  status: ('A' for Active; 'I' for Inactive)
REMARK    1  A    between atoms: N_6  and  C_9
REMARK    2  A    between atoms: C_12  and  C_14
REMARK    3  A    between atoms: C_14  and  O_15
REMARK    4  A    between atoms: C_16  and  O_18
REMARK                            x       y       z     vdW  Elec       q    Type
REMARK                         _______ _______ _______ _____ _____    ______ ____
ROOT
ATOM      1  C   UNL     1       9.102  -1.635  24.488  0.00  0.00    +0.296 C 
ATOM      2  C   UNL     1      10.012  -1.615  23.253  0.00  0.00    +0.321 C 
ATOM      3  F   UNL     1      10.947  -2.582  23.201  0.00  0.00    -0.198 F 
ATOM      4  F   UNL     1      10.699  -0.432  23.222  0.00  0.00    -0.198 F 
ATOM      5  C   UNL     1       9.086  -1.662  22.047  0.00  0.00    +0.219 C 
ATOM      6  C   UNL     1       7.705  -1.362  22.617  0.00  0.00    +0.181 C 
ATOM      7  O   UNL     1       7.867  -1.048  24.010  0.00  0.00    -0.342 OA
ENDROOT
BRANCH   1  14
ATOM      8  N   UNL     1       7.617  -6.052  27.466  0.00  0.00    -0.343 N 
ATOM      9  H   UNL     1       7.534  -6.947  27.002  0.00  0.00    +0.144 HD
ATOM     10  H   UNL     1       6.819  -5.823  28.052  0.00  0.00    +0.144 HD
ATOM     11  C   UNL     1       8.046  -4.987  26.728  0.00  0.00    +0.123 A 
ATOM     12  C   UNL     1       8.935  -5.199  25.577  0.00  0.00    +0.061 A 
ATOM     13  C   UNL     1       9.229  -4.119  24.852  0.00  0.00    +0.097 A 
ATOM     14  N   UNL     1       8.755  -2.872  25.197  0.00  0.00    -0.267 N 
ATOM     15  C   UNL     1       8.030  -2.700  26.393  0.00  0.00    +0.352 A 
ATOM     16  O   UNL     1       7.737  -1.581  26.814  0.00  0.00    -0.244 OA
ATOM     17  N   UNL     1       7.629  -3.815  27.087  0.00  0.00    -0.178 NA
ENDBRANCH   1  14
BRANCH   5  18
ATOM     18  O   UNL     1       9.441  -0.685  21.052  0.00  0.00    -0.383 OA
ATOM     19  H   UNL     1       8.730  -0.679  20.377  0.00  0.00    +0.210 HD
ENDBRANCH   5  18
BRANCH   6  20
ATOM     20  C   UNL     1       6.766  -2.571  22.513  0.00  0.00    +0.190 C 
BRANCH  20  21
ATOM     21  O   UNL     1       7.459  -3.692  21.970  0.00  0.00    -0.392 OA
ATOM     22  H   UNL     1       7.369  -3.634  20.997  0.00  0.00    +0.210 HD
ENDBRANCH  20  21
ENDBRANCH   6  20
TORSDOF 4
ENDMDL
MODEL 2
REMARK VINA RESULT:      -6.0      2.958      4.227
REMARK  Name = 
REMARK  4 active torsions:
REMARK  status: ('A' for Active; 'I' for Inactive)
REMARK    1  A    between atoms: N_6  and  C_9
REMARK    2  A    between atoms: C_12  and  C_14
REMARK    3  A    between atoms: C_14  and  O_15
REMARK    4  A    between atoms: C_16  and  O_18
REMARK                            x       y       z     vdW  Elec       q    Type
REMARK                         _______ _______ _______ _____ _____    ______ ____
ROOT
ATOM      1  C   UNL     1       9.706   0.193  22.860  0.00  0.00    +0.296 C 
ATOM      2  C   UNL     1       9.377   1.494  22.115  0.00  0.00    +0.321 C 
ATOM      3  F   UNL     1       8.466   1.388  21.130  0.00  0.00    -0.198 F 
ATOM      4  F   UNL     1      10.515   1.968  21.520  0.00  0.00    -0.198 F 
ATOM      5  C   UNL     1       8.943   2.490  23.179  0.00  0.00    +0.219 C 
ATOM      6  C   UNL     1       9.362   1.847  24.495  0.00  0.00    +0.181 C 
ATOM      7  O   UNL     1      10.086   0.646  24.182  0.00  0.00    -0.342 OA
ENDROOT
BRANCH   1  14
ATOM      8  N   UNL     1       6.362  -4.168  23.482  0.00  0.00    -0.343 N 
ATOM      9  H   UNL     1       5.450  -4.028  23.899  0.00  0.00    +0.144 HD
ATOM     10  H   UNL     1       6.877  -4.945  23.886  0.00  0.00    +0.144 HD
ATOM     11  C   UNL     1       7.147  -3.070  23.278  0.00  0.00    +0.123 A 
ATOM     12  C   UNL     1       6.530  -1.756  23.047  0.00  0.00    +0.061 A 
ATOM     13  C   UNL     1       7.365  -0.721  22.955  0.00  0.00    +0.097 A 
ATOM     14  N   UNL     1       8.731  -0.890  23.030  0.00  0.00    -0.267 N 
ATOM     15  C   UNL     1       9.277  -2.188  23.102  0.00  0.00    +0.352 A 
ATOM     16  O   UNL     1      10.487  -2.385  23.003  0.00  0.00    -0.244 OA
ATOM     17  N   UNL     1       8.429  -3.249  23.308  0.00  0.00    -0.178 NA
ENDBRANCH   1  14
BRANCH   5  18
ATOM     18  O   UNL     1       9.584   3.769  23.019  0.00  0.00    -0.383 OA
ATOM     19  H   UNL     1       9.531   4.235  23.879  0.00  0.00    +0.210 HD
ENDBRANCH   5  18
BRANCH   6  20
ATOM     20  C   UNL     1       8.153   1.457  25.355  0.00  0.00    +0.190 C 
BRANCH  20  21
ATOM     21  O   UNL     1       8.514   0.440  26.285  0.00  0.00    -0.392 OA
ATOM     22  H   UNL     1       9.463   0.569  26.488  0.00  0.00    +0.210 HD
ENDBRANCH  20  21
ENDBRANCH   6  20
TORSDOF 4
ENDMDL
MODEL 3
REMARK VINA RESULT:      -6.0      3.302      5.239
REMARK  Name = 
REMARK  4 active torsions:
REMARK  status: ('A' for Active; 'I' for Inactive)
REMARK    1  A    between atoms: N_6  and  C_9
REMARK    2  A    between atoms: C_12  and  C_14
REMARK    3  A    between atoms: C_14  and  O_15
REMARK    4  A    between atoms: C_16  and  O_18
REMARK                            x       y       z     vdW  Elec       q    Type
REMARK                         _______ _______ _______ _____ _____    ______ ____
ROOT
ATOM      1  C   UNL     1       6.679  -1.929  23.398  0.00  0.00    +0.296 C 
ATOM      2  C   UNL     1       6.354  -3.240  22.671  0.00  0.00    +0.321 C 
ATOM      3  F   UNL     1       6.456  -3.204  21.329  0.00  0.00    -0.198 F 
ATOM      4  F   UNL     1       5.057  -3.589  22.936  0.00  0.00    -0.198 F 
ATOM      5  C   UNL     1       7.267  -4.295  23.278  0.00  0.00    +0.219 C 
ATOM      6  C   UNL     1       7.819  -3.640  24.537  0.00  0.00    +0.181 C 
ATOM      7  O   UNL     1       7.168  -2.368  24.689  0.00  0.00    -0.342 OA
ENDROOT
BRANCH   1  14
ATOM      8  N   UNL     1      10.043   2.072  21.593  0.00  0.00    -0.343 N 
ATOM      9  H   UNL     1      11.006   1.841  21.381  0.00  0.00    +0.144 HD
ATOM     10  H   UNL     1       9.943   2.899  22.175  0.00  0.00    +0.144 HD
ATOM     11  C   UNL     1       9.212   1.060  21.975  0.00  0.00    +0.123 A 
ATOM     12  C   UNL     1       9.455  -0.311  21.502  0.00  0.00    +0.061 A 
ATOM     13  C   UNL     1       8.657  -1.256  22.000  0.00  0.00    +0.097 A 
ATOM     14  N   UNL     1       7.638  -0.949  22.875  0.00  0.00    -0.267 N 
ATOM     15  C   UNL     1       7.353   0.397  23.180  0.00  0.00    +0.352 A 
ATOM     16  O   UNL     1       6.352   0.715  23.821  0.00  0.00    -0.244 OA
ATOM     17  N   UNL     1       8.232   1.368  22.763  0.00  0.00    -0.178 NA
ENDBRANCH   1  14
BRANCH   5  18
ATOM     18  O   UNL     1       6.556  -5.501  23.610  0.00  0.00    -0.383 OA
ATOM     19  H   UNL     1       6.398  -5.989  22.775  0.00  0.00    +0.210 HD
ENDBRANCH   5  18
BRANCH   6  20
ATOM     20  C   UNL     1       9.329  -3.387  24.439  0.00  0.00    +0.190 C 
BRANCH  20  21
ATOM     21  O   UNL     1      10.051  -4.579  24.739  0.00  0.00    -0.392 OA
ATOM     22  H   UNL     1      10.520  -4.837  23.919  0.00  0.00    +0.210 HD
ENDBRANCH  20  21
ENDBRANCH   6  20
TORSDOF 4
ENDMDL
MODEL 4
REMARK VINA RESULT:      -6.0      2.928      5.115
REMARK  Name = 
REMARK  4 active torsions:
REMARK  status: ('A' for Active; 'I' for Inactive)
REMARK    1  A    between atoms: N_6  and  C_9
REMARK    2  A    between atoms: C_12  and  C_14
REMARK    3  A    between atoms: C_14  and  O_15
REMARK    4  A    between atoms: C_16  and  O_18
REMARK                            x       y       z     vdW  Elec       q    Type
REMARK                         _______ _______ _______ _____ _____    ______ ____
ROOT
ATOM      1  C   UNL     1       8.664  -2.747  23.849  0.00  0.00    +0.296 C 
ATOM      2  C   UNL     1       7.888  -3.067  25.134  0.00  0.00    +0.321 C 
ATOM      3  F   UNL     1       7.755  -2.049  26.004  0.00  0.00    -0.198 F 
ATOM      4  F   UNL     1       8.543  -4.057  25.817  0.00  0.00    -0.198 F 
ATOM      5  C   UNL     1       6.538  -3.607  24.687  0.00  0.00    +0.219 C 
ATOM      6  C   UNL     1       6.717  -3.895  23.202  0.00  0.00    +0.181 C 
ATOM      7  O   UNL     1       8.095  -3.655  22.874  0.00  0.00    -0.342 OA
ENDROOT
BRANCH   1  14
ATOM      8  N   UNL     1       9.117   2.201  21.421  0.00  0.00    -0.343 N 
ATOM      9  H   UNL     1       8.275   2.727  21.224  0.00  0.00    +0.144 HD
ATOM     10  H   UNL     1       9.752   2.143  20.631  0.00  0.00    +0.144 HD
ATOM     11  C   UNL     1       8.990   1.012  22.078  0.00  0.00    +0.123 A 
ATOM     12  C   UNL     1       7.868   0.799  23.004  0.00  0.00    +0.061 A 
ATOM     13  C   UNL     1       7.761  -0.422  23.530  0.00  0.00    +0.097 A 
ATOM     14  N   UNL     1       8.681  -1.409  23.247  0.00  0.00    -0.267 N 
ATOM     15  C   UNL     1       9.819  -1.110  22.472  0.00  0.00    +0.352 A 
ATOM     16  O   UNL     1      10.739  -1.916  22.339  0.00  0.00    -0.244 OA
ATOM     17  N   UNL     1       9.883   0.107  21.837  0.00  0.00    -0.178 NA
ENDBRANCH   1  14
BRANCH   5  18
ATOM     18  O   UNL     1       6.174  -4.808  25.392  0.00  0.00    -0.383 OA
ATOM     19  H   UNL     1       5.691  -5.383  24.763  0.00  0.00    +0.210 HD
ENDBRANCH   5  18
BRANCH   6  20
ATOM     20  C   UNL     1       5.857  -2.972  22.329  0.00  0.00    +0.190 C 
BRANCH  20  21
ATOM     21  O   UNL     1       5.522  -3.619  21.105  0.00  0.00    -0.392 OA
ATOM     22  H   UNL     1       5.521  -4.581  21.286  0.00  0.00    +0.210 HD
ENDBRANCH  20  21
ENDBRANCH   6  20
TORSDOF 4
ENDMDL
MODEL 5
REMARK VINA RESULT:      -6.0      1.638      2.028
REMARK  Name = 
REMARK  4 active torsions:
REMARK  status: ('A' for Active; 'I' for Inactive)
REMARK    1  A    between atoms: N_6  and  C_9
REMARK    2  A    between atoms: C_12  and  C_14
REMARK    3  A    between atoms: C_14  and  O_15
REMARK    4  A    between atoms: C_16  and  O_18
REMARK                            x       y       z     vdW  Elec       q    Type
REMARK                         _______ _______ _______ _____ _____    ______ ____
ROOT
ATOM      1  C   UNL     1       8.541  -0.366  24.829  0.00  0.00    +0.296 C 
ATOM      2  C   UNL     1       9.802   0.462  24.547  0.00  0.00    +0.321 C 
ATOM      3  F   UNL     1      10.917   0.060  25.185  0.00  0.00    -0.198 F 
ATOM      4  F   UNL     1       9.589   1.753  24.948  0.00  0.00    -0.198 F 
ATOM      5  C   UNL     1       9.982   0.451  23.037  0.00  0.00    +0.219 C 
ATOM      6  C   UNL     1       8.657  -0.074  22.500  0.00  0.00    +0.181 C 
ATOM      7  O   UNL     1       7.764  -0.226  23.615  0.00  0.00    -0.342 OA
ENDROOT
BRANCH   1  14
ATOM      8  N   UNL     1       8.455  -5.667  26.402  0.00  0.00    -0.343 N 
ATOM      9  H   UNL     1       8.692  -6.381  25.725  0.00  0.00    +0.144 HD
ATOM     10  H   UNL     1       7.600  -5.863  26.916  0.00  0.00    +0.144 HD
ATOM     11  C   UNL     1       8.544  -4.361  26.014  0.00  0.00    +0.123 A 
ATOM     12  C   UNL     1       9.505  -3.967  24.974  0.00  0.00    +0.061 A 
ATOM     13  C   UNL     1       9.460  -2.693  24.583  0.00  0.00    +0.097 A 
ATOM     14  N   UNL     1       8.588  -1.795  25.159  0.00  0.00    -0.267 N 
ATOM     15  C   UNL     1       7.792  -2.189  26.254  0.00  0.00    +0.352 A 
ATOM     16  O   UNL     1       7.130  -1.374  26.895  0.00  0.00    -0.244 OA
ATOM     17  N   UNL     1       7.749  -3.520  26.592  0.00  0.00    -0.178 NA
ENDBRANCH   1  14
BRANCH   5  18
ATOM     18  O   UNL     1      10.250   1.766  22.514  0.00  0.00    -0.383 OA
ATOM     19  H   UNL     1      10.029   2.413  23.216  0.00  0.00    +0.210 HD
ENDBRANCH   5  18
BRANCH   6  20
ATOM     20  C   UNL     1       8.812  -1.446  21.830  0.00  0.00    +0.190 C 
BRANCH  20  21
ATOM     21  O   UNL     1      10.156  -1.636  21.396  0.00  0.00    -0.392 OA
ATOM     22  H   UNL     1      10.370  -2.578  21.551  0.00  0.00    +0.210 HD
ENDBRANCH  20  21
ENDBRANCH   6  20
TORSDOF 4
ENDMDL
MODEL 6
REMARK VINA RESULT:      -5.9      2.030      2.841
REMARK  Name = 
REMARK  4 active torsions:
REMARK  status: ('A' for Active; 'I' for Inactive)
REMARK    1  A    between atoms: N_6  and  C_9
REMARK    2  A    between atoms: C_12  and  C_14
REMARK    3  A    between atoms: C_14  and  O_15
REMARK    4  A    between atoms: C_16  and  O_18
REMARK                            x       y       z     vdW  Elec       q    Type
REMARK                         _______ _______ _______ _____ _____    ______ ____
ROOT
ATOM      1  C   UNL     1       9.163  -2.693  23.611  0.00  0.00    +0.296 C 
ATOM      2  C   UNL     1       8.492  -1.845  22.522  0.00  0.00    +0.321 C 
ATOM      3  F   UNL     1       7.331  -2.327  22.040  0.00  0.00    -0.198 F 
ATOM      4  F   UNL     1       9.332  -1.753  21.445  0.00  0.00    -0.198 F 
ATOM      5  C   UNL     1       8.322  -0.456  23.117  0.00  0.00    +0.219 C 
ATOM      6  C   UNL     1       9.195  -0.467  24.365  0.00  0.00    +0.181 C 
ATOM      7  O   UNL     1       9.896  -1.721  24.396  0.00  0.00    -0.342 OA
ENDROOT
BRANCH   1  14
ATOM      8  N   UNL     1       6.642  -6.090  27.174  0.00  0.00    -0.343 N 
ATOM      9  H   UNL     1       5.835  -5.751  27.683  0.00  0.00    +0.144 HD
ATOM     10  H   UNL     1       7.331  -6.548  27.763  0.00  0.00    +0.144 HD
ATOM     11  C   UNL     1       7.212  -5.260  26.252  0.00  0.00    +0.123 A 
ATOM     12  C   UNL     1       6.392  -4.253  25.562  0.00  0.00    +0.061 A 
ATOM     13  C   UNL     1       7.042  -3.418  24.751  0.00  0.00    +0.097 A 
ATOM     14  N   UNL     1       8.401  -3.529  24.546  0.00  0.00    -0.267 N 
ATOM     15  C   UNL     1       9.114  -4.603  25.115  0.00  0.00    +0.352 A 
ATOM     16  O   UNL     1      10.287  -4.827  24.819  0.00  0.00    -0.244 OA
ATOM     17  N   UNL     1       8.479  -5.402  26.036  0.00  0.00    -0.178 NA
ENDBRANCH   1  14
BRANCH   5  18
ATOM     18  O   UNL     1       8.753   0.578  22.213  0.00  0.00    -0.383 OA
ATOM     19  H   UNL     1       9.156   0.140  21.435  0.00  0.00    +0.210 HD
ENDBRANCH   5  18
BRANCH   6  20
ATOM     20  C   UNL     1       8.362  -0.362  25.650  0.00  0.00    +0.190 C 
BRANCH  20  21
ATOM     21  O   UNL     1       9.209  -0.419  26.794  0.00  0.00    -0.392 OA
ATOM     22  H   UNL     1      10.128  -0.478  26.461  0.00  0.00    +0.210 HD
ENDBRANCH  20  21
ENDBRANCH   6  20
TORSDOF 4
ENDMDL
MODEL 7
REMARK VINA RESULT:      -5.9      3.087      5.158
REMARK  Name = 
REMARK  4 active torsions:
REMARK  status: ('A' for Active; 'I' for Inactive)
REMARK    1  A    between atoms: N_6  and  C_9
REMARK    2  A    between atoms: C_12  and  C_14
REMARK    3  A    between atoms: C_14  and  O_15
REMARK    4  A    between atoms: C_16  and  O_18
REMARK                            x       y       z     vdW  Elec       q    Type
REMARK                         _______ _______ _______ _____ _____    ______ ____
ROOT
ATOM      1  C   UNL     1       7.767  -2.959  26.037  0.00  0.00    +0.296 C 
ATOM      2  C   UNL     1       6.503  -3.806  26.243  0.00  0.00    +0.321 C 
ATOM      3  F   UNL     1       5.512  -3.600  25.356  0.00  0.00    -0.198 F 
ATOM      4  F   UNL     1       5.970  -3.521  27.471  0.00  0.00    -0.198 F 
ATOM      5  C   UNL     1       6.965  -5.255  26.246  0.00  0.00    +0.219 C 
ATOM      6  C   UNL     1       8.479  -5.172  26.387  0.00  0.00    +0.181 C 
ATOM      7  O   UNL     1       8.824  -3.790  26.576  0.00  0.00    -0.342 OA
ENDROOT
BRANCH   1  14
ATOM      8  N   UNL     1       9.602  -0.881  21.251  0.00  0.00    -0.343 N 
ATOM      9  H   UNL     1       9.679  -1.495  20.451  0.00  0.00    +0.144 HD
ATOM     10  H   UNL     1      10.433  -0.319  21.413  0.00  0.00    +0.144 HD
ATOM     11  C   UNL     1       9.087  -1.397  22.406  0.00  0.00    +0.123 A 
ATOM     12  C   UNL     1       8.123  -2.506  22.351  0.00  0.00    +0.061 A 
ATOM     13  C   UNL     1       7.744  -3.015  23.523  0.00  0.00    +0.097 A 
ATOM     14  N   UNL     1       8.203  -2.496  24.714  0.00  0.00    -0.267 N 
ATOM     15  C   UNL     1       9.008  -1.339  24.715  0.00  0.00    +0.352 A 
ATOM     16  O   UNL     1       9.296  -0.754  25.759  0.00  0.00    -0.244 OA
ATOM     17  N   UNL     1       9.493  -0.872  23.517  0.00  0.00    -0.178 NA
ENDBRANCH   1  14
BRANCH   5  18
ATOM     18  O   UNL     1       6.399  -6.002  27.339  0.00  0.00    -0.383 OA
ATOM     19  H   UNL     1       6.088  -5.357  28.007  0.00  0.00    +0.210 HD
ENDBRANCH   5  18
BRANCH   6  20
ATOM     20  C   UNL     1       9.202  -5.671  25.129  0.00  0.00    +0.190 C 
BRANCH  20  21
ATOM     21  O   UNL     1      10.559  -5.235  25.133  0.00  0.00    -0.392 OA
ATOM     22  H   UNL     1      10.815  -5.121  26.070  0.00  0.00    +0.210 HD
ENDBRANCH  20  21
ENDBRANCH   6  20
TORSDOF 4
ENDMDL
MODEL 8
REMARK VINA RESULT:      -5.9      2.909      4.514
REMARK  Name = 
REMARK  4 active torsions:
REMARK  status: ('A' for Active; 'I' for Inactive)
REMARK    1  A    between atoms: N_6  and  C_9
REMARK    2  A    between atoms: C_12  and  C_14
REMARK    3  A    between atoms: C_14  and  O_15
REMARK    4  A    between atoms: C_16  and  O_18
REMARK                            x       y       z     vdW  Elec       q    Type
REMARK                         _______ _______ _______ _____ _____    ______ ____
ROOT
ATOM      1  C   UNL     1       7.560  -3.632  22.339  0.00  0.00    +0.296 C 
ATOM      2  C   UNL     1       7.376  -5.127  22.632  0.00  0.00    +0.321 C 
ATOM      3  F   UNL     1       8.258  -5.665  23.495  0.00  0.00    -0.198 F 
ATOM      4  F   UNL     1       7.517  -5.832  21.468  0.00  0.00    -0.198 F 
ATOM      5  C   UNL     1       5.943  -5.286  23.118  0.00  0.00    +0.219 C 
ATOM      6  C   UNL     1       5.272  -3.966  22.762  0.00  0.00    +0.181 C 
ATOM      7  O   UNL     1       6.221  -3.180  22.023  0.00  0.00    -0.342 OA
ENDROOT
BRANCH   1  14
ATOM      8  N   UNL     1       9.846   0.113  25.706  0.00  0.00    -0.343 N 
ATOM      9  H   UNL     1       9.458   0.236  26.633  0.00  0.00    +0.144 HD
ATOM     10  H   UNL     1       9.989   0.987  25.208  0.00  0.00    +0.144 HD
ATOM     11  C   UNL     1       9.310  -0.860  24.913  0.00  0.00    +0.123 A 
ATOM     12  C   UNL     1       8.704  -2.054  25.521  0.00  0.00    +0.061 A 
ATOM     13  C   UNL     1       8.117  -2.908  24.682  0.00  0.00    +0.097 A 
ATOM     14  N   UNL     1       8.121  -2.695  23.320  0.00  0.00    -0.267 N 
ATOM     15  C   UNL     1       8.843  -1.613  22.778  0.00  0.00    +0.352 A 
ATOM     16  O   UNL     1       9.006  -1.490  21.565  0.00  0.00    -0.244 OA
ATOM     17  N   UNL     1       9.357  -0.669  23.634  0.00  0.00    -0.178 NA
ENDBRANCH   1  14
BRANCH   5  18
ATOM     18  O   UNL     1       5.270  -6.382  22.471  0.00  0.00    -0.383 OA
ATOM     19  H   UNL     1       4.895  -6.953  23.173  0.00  0.00    +0.210 HD
ENDBRANCH   5  18
BRANCH   6  20
ATOM     20  C   UNL     1       4.872  -3.169  24.011  0.00  0.00    +0.190 C 
BRANCH  20  21
ATOM     21  O   UNL     1       4.778  -4.034  25.140  0.00  0.00    -0.392 OA
ATOM     22  H   UNL     1       4.532  -4.917  24.798  0.00  0.00    +0.210 HD
ENDBRANCH  20  21
ENDBRANCH   6  20
TORSDOF 4
ENDMDL
MODEL 9
REMARK VINA RESULT:      -5.9      2.501      3.385
REMARK  Name = 
REMARK  4 active torsions:
REMARK  status: ('A' for Active; 'I' for Inactive)
REMARK    1  A    between atoms: N_6  and  C_9
REMARK    2  A    between atoms: C_12  and  C_14
REMARK    3  A    between atoms: C_14  and  O_15
REMARK    4  A    between atoms: C_16  and  O_18
REMARK                            x       y       z     vdW  Elec       q    Type
REMARK                         _______ _______ _______ _____ _____    ______ ____
ROOT
ATOM      1  C   UNL     1       9.043  -2.606  23.397  0.00  0.00    +0.296 C 
ATOM      2  C   UNL     1       9.471  -1.409  22.537  0.00  0.00    +0.321 C 
ATOM      3  F   UNL     1       9.206  -1.511  21.221  0.00  0.00    -0.198 F 
ATOM      4  F   UNL     1      10.827  -1.251  22.632  0.00  0.00    -0.198 F 
ATOM      5  C   UNL     1       8.802  -0.189  23.153  0.00  0.00    +0.219 C 
ATOM      6  C   UNL     1       8.312  -0.670  24.513  0.00  0.00    +0.181 C 
ATOM      7  O   UNL     1       8.781  -2.016  24.694  0.00  0.00    -0.342 OA
ENDROOT
BRANCH   1  14
ATOM      8  N   UNL     1       4.909  -6.123  22.335  0.00  0.00    -0.343 N 
ATOM      9  H   UNL     1       3.998  -5.748  22.105  0.00  0.00    +0.144 HD
ATOM     10  H   UNL     1       4.882  -6.850  23.043  0.00  0.00    +0.144 HD
ATOM     11  C   UNL     1       5.932  -5.240  22.531  0.00  0.00    +0.123 A 
ATOM     12  C   UNL     1       5.926  -3.941  21.843  0.00  0.00    +0.061 A 
ATOM     13  C   UNL     1       6.909  -3.099  22.164  0.00  0.00    +0.097 A 
ATOM     14  N   UNL     1       7.895  -3.454  23.059  0.00  0.00    -0.267 N 
ATOM     15  C   UNL     1       7.938  -4.764  23.576  0.00  0.00    +0.352 A 
ATOM     16  O   UNL     1       8.893  -5.163  24.243  0.00  0.00    -0.244 OA
ATOM     17  N   UNL     1       6.875  -5.602  23.341  0.00  0.00    -0.178 NA
ENDBRANCH   1  14
BRANCH   5  18
ATOM     18  O   UNL     1       9.719   0.910  23.310  0.00  0.00    -0.383 OA
ATOM     19  H   UNL     1       9.632   1.237  24.229  0.00  0.00    +0.210 HD
ENDBRANCH   5  18
BRANCH   6  20
ATOM     20  C   UNL     1       6.781  -0.689  24.598  0.00  0.00    +0.190 C 
BRANCH  20  21
ATOM     21  O   UNL     1       6.216   0.042  23.512  0.00  0.00    -0.392 OA
ATOM     22  H   UNL     1       5.803   0.842  23.897  0.00  0.00    +0.210 HD
ENDBRANCH  20  21
ENDBRANCH   6  20
TORSDOF 4
ENDMDL
