MODEL 1
REMARK VINA RESULT:      -4.6      0.000      0.000
REMARK  Name = 
REMARK  6 active torsions:
REMARK  status: ('A' for Active; 'I' for Inactive)
REMARK    1  A    between atoms: C_1  and  O_2
REMARK    2  A    between atoms: O_2  and  C_3
REMARK    3  A    between atoms: C_6  and  C_8
REMARK    4  A    between atoms: C_9  and  O_11
REMARK    5  A    between atoms: C_12  and  O_14
REMARK    6  A    between atoms: C_15  and  O_17
REMARK                            x       y       z     vdW  Elec       q    Type
REMARK                         _______ _______ _______ _____ _____    ______ ____
ROOT
ATOM      1  C   UNL     1       6.457  -4.798  25.787  0.00  0.00    +0.281 C 
ATOM      2  C   UNL     1       7.487  -4.661  26.930  0.00  0.00    +0.201 C 
ATOM      3  C   UNL     1       8.779  -3.976  26.452  0.00  0.00    +0.179 C 
ATOM      4  C   UNL     1       9.302  -4.678  25.191  0.00  0.00    +0.174 C 
ATOM      5  C   UNL     1       8.217  -4.822  24.107  0.00  0.00    +0.149 C 
ATOM      6  C   UNL     1       7.964  -3.548  23.303  0.00  0.00    +0.041 C 
ATOM      7  O   UNL     1       7.003  -5.397  24.608  0.00  0.00    -0.343 OA
ENDROOT
BRANCH   1   9
ATOM      8  C   UNL     1       4.581  -3.613  24.937  0.00  0.00    +0.197 C 
ATOM      9  O   UNL     1       5.870  -3.524  25.528  0.00  0.00    -0.352 OA
ENDBRANCH   1   9
BRANCH   2  10
ATOM     10  O   UNL     1       7.793  -5.949  27.493  0.00  0.00    -0.384 OA
ATOM     11  H   UNL     1       8.679  -5.867  27.911  0.00  0.00    +0.210 HD
ENDBRANCH   2  10
BRANCH   3  12
ATOM     12  O   UNL     1       8.624  -2.578  26.212  0.00  0.00    -0.386 OA
ATOM     13  H   UNL     1       9.172  -2.341  25.442  0.00  0.00    +0.210 HD
ENDBRANCH   3  12
BRANCH   4  14
ATOM     14  O   UNL     1       9.745  -5.996  25.579  0.00  0.00    -0.387 OA
ATOM     15  H   UNL     1       8.945  -6.523  25.764  0.00  0.00    +0.210 HD
ENDBRANCH   4  14
TORSDOF 4
ENDMDL
MODEL 2
REMARK VINA RESULT:      -4.5      5.048      6.729
REMARK  Name = 
REMARK  6 active torsions:
REMARK  status: ('A' for Active; 'I' for Inactive)
REMARK    1  A    between atoms: C_1  and  O_2
REMARK    2  A    between atoms: O_2  and  C_3
REMARK    3  A    between atoms: C_6  and  C_8
REMARK    4  A    between atoms: C_9  and  O_11
REMARK    5  A    between atoms: C_12  and  O_14
REMARK    6  A    between atoms: C_15  and  O_17
REMARK                            x       y       z     vdW  Elec       q    Type
REMARK                         _______ _______ _______ _____ _____    ______ ____
ROOT
ATOM      1  C   UNL     1       9.907   1.788  23.798  0.00  0.00    +0.281 C 
ATOM      2  C   UNL     1       9.043   1.855  22.519  0.00  0.00    +0.201 C 
ATOM      3  C   UNL     1       8.186   0.589  22.346  0.00  0.00    +0.179 C 
ATOM      4  C   UNL     1       9.073  -0.658  22.463  0.00  0.00    +0.174 C 
ATOM      5  C   UNL     1       9.940  -0.644  23.737  0.00  0.00    +0.149 C 
ATOM      6  C   UNL     1       9.193  -1.046  25.006  0.00  0.00    +0.041 C 
ATOM      7  O   UNL     1      10.667   0.581  23.900  0.00  0.00    -0.343 OA
ENDROOT
BRANCH   1   9
ATOM      8  C   UNL     1       8.484   3.297  24.958  0.00  0.00    +0.197 C 
ATOM      9  O   UNL     1       9.077   2.006  24.938  0.00  0.00    -0.352 OA
ENDBRANCH   1   9
BRANCH   2  10
ATOM     10  O   UNL     1       9.870   2.050  21.359  0.00  0.00    -0.384 OA
ATOM     11  H   UNL     1      10.737   2.377  21.685  0.00  0.00    +0.210 HD
ENDBRANCH   2  10
BRANCH   3  12
ATOM     12  O   UNL     1       7.098   0.510  23.266  0.00  0.00    -0.386 OA
ATOM     13  H   UNL     1       6.341   0.989  22.882  0.00  0.00    +0.210 HD
ENDBRANCH   3  12
BRANCH   4  14
ATOM     14  O   UNL     1       9.943  -0.683  21.312  0.00  0.00    -0.387 OA
ATOM     15  H   UNL     1      10.164  -1.617  21.140  0.00  0.00    +0.210 HD
ENDBRANCH   4  14
TORSDOF 4
ENDMDL
MODEL 3
REMARK VINA RESULT:      -4.4      1.414      3.052
REMARK  Name = 
REMARK  6 active torsions:
REMARK  status: ('A' for Active; 'I' for Inactive)
REMARK    1  A    between atoms: C_1  and  O_2
REMARK    2  A    between atoms: O_2  and  C_3
REMARK    3  A    between atoms: C_6  and  C_8
REMARK    4  A    between atoms: C_9  and  O_11
REMARK    5  A    between atoms: C_12  and  O_14
REMARK    6  A    between atoms: C_15  and  O_17
REMARK                            x       y       z     vdW  Elec       q    Type
REMARK                         _______ _______ _______ _____ _____    ______ ____
ROOT
ATOM      1  C   UNL     1       8.170  -2.663  25.408  0.00  0.00    +0.281 C 
ATOM      2  C   UNL     1       8.606  -3.300  24.070  0.00  0.00    +0.201 C 
ATOM      3  C   UNL     1       8.372  -4.821  24.063  0.00  0.00    +0.179 C 
ATOM      4  C   UNL     1       9.002  -5.449  25.314  0.00  0.00    +0.174 C 
ATOM      5  C   UNL     1       8.562  -4.742  26.610  0.00  0.00    +0.149 C 
ATOM      6  C   UNL     1       7.173  -5.142  27.099  0.00  0.00    +0.041 C 
ATOM      7  O   UNL     1       8.728  -3.319  26.550  0.00  0.00    -0.343 OA
ENDROOT
BRANCH   1   9
ATOM      8  C   UNL     1       6.189  -1.740  24.474  0.00  0.00    +0.197 C 
ATOM      9  O   UNL     1       6.746  -2.601  25.458  0.00  0.00    -0.352 OA
ENDBRANCH   1   9
BRANCH   2  10
ATOM     10  O   UNL     1       9.989  -3.015  23.799  0.00  0.00    -0.384 OA
ATOM     11  H   UNL     1      10.004  -2.191  23.263  0.00  0.00    +0.210 HD
ENDBRANCH   2  10
BRANCH   3  12
ATOM     12  O   UNL     1       6.995  -5.183  23.968  0.00  0.00    -0.386 OA
ATOM     13  H   UNL     1       6.943  -6.080  23.590  0.00  0.00    +0.210 HD
ENDBRANCH   3  12
BRANCH   4  14
ATOM     14  O   UNL     1      10.435  -5.329  25.185  0.00  0.00    -0.387 OA
ATOM     15  H   UNL     1      10.670  -4.418  25.442  0.00  0.00    +0.210 HD
ENDBRANCH   4  14
TORSDOF 4
ENDMDL
MODEL 4
REMARK VINA RESULT:      -4.4      4.591      6.380
REMARK  Name = 
REMARK  6 active torsions:
REMARK  status: ('A' for Active; 'I' for Inactive)
REMARK    1  A    between atoms: C_1  and  O_2
REMARK    2  A    between atoms: O_2  and  C_3
REMARK    3  A    between atoms: C_6  and  C_8
REMARK    4  A    between atoms: C_9  and  O_11
REMARK    5  A    between atoms: C_12  and  O_14
REMARK    6  A    between atoms: C_15  and  O_17
REMARK                            x       y       z     vdW  Elec       q    Type
REMARK                         _______ _______ _______ _____ _____    ______ ____
ROOT
ATOM      1  C   UNL     1       9.936   0.204  24.424  0.00  0.00    +0.281 C 
ATOM      2  C   UNL     1       9.044   1.451  24.240  0.00  0.00    +0.201 C 
ATOM      3  C   UNL     1       8.180   1.349  22.972  0.00  0.00    +0.179 C 
ATOM      4  C   UNL     1       9.065   1.004  21.767  0.00  0.00    +0.174 C 
ATOM      5  C   UNL     1       9.960  -0.222  22.028  0.00  0.00    +0.149 C 
ATOM      6  C   UNL     1       9.240  -1.562  21.894  0.00  0.00    +0.041 C 
ATOM      7  O   UNL     1      10.695  -0.121  23.256  0.00  0.00    -0.343 OA
ENDROOT
BRANCH   1   9
ATOM      8  C   UNL     1       8.788  -0.799  26.247  0.00  0.00    +0.197 C 
ATOM      9  O   UNL     1       9.133  -0.887  24.872  0.00  0.00    -0.352 OA
ENDBRANCH   1   9
BRANCH   2  10
ATOM     10  O   UNL     1       9.846   2.645  24.193  0.00  0.00    -0.384 OA
ATOM     11  H   UNL     1      10.262   2.736  25.079  0.00  0.00    +0.210 HD
ENDBRANCH   2  10
BRANCH   3  12
ATOM     12  O   UNL     1       7.112   0.409  23.087  0.00  0.00    -0.386 OA
ATOM     13  H   UNL     1       6.989  -0.017  22.220  0.00  0.00    +0.210 HD
ENDBRANCH   3  12
BRANCH   4  14
ATOM     14  O   UNL     1       9.909   2.146  21.506  0.00  0.00    -0.387 OA
ATOM     15  H   UNL     1      10.576   2.176  22.216  0.00  0.00    +0.210 HD
ENDBRANCH   4  14
TORSDOF 4
ENDMDL
MODEL 5
REMARK VINA RESULT:      -4.4      3.967      5.609
REMARK  Name = 
REMARK  6 active torsions:
REMARK  status: ('A' for Active; 'I' for Inactive)
REMARK    1  A    between atoms: C_1  and  O_2
REMARK    2  A    between atoms: O_2  and  C_3
REMARK    3  A    between atoms: C_6  and  C_8
REMARK    4  A    between atoms: C_9  and  O_11
REMARK    5  A    between atoms: C_12  and  O_14
REMARK    6  A    between atoms: C_15  and  O_17
REMARK                            x       y       z     vdW  Elec       q    Type
REMARK                         _______ _______ _______ _____ _____    ______ ____
ROOT
ATOM      1  C   UNL     1       9.857   0.382  22.790  0.00  0.00    +0.281 C 
ATOM      2  C   UNL     1       9.272  -0.814  22.006  0.00  0.00    +0.201 C 
ATOM      3  C   UNL     1       8.350  -1.674  22.888  0.00  0.00    +0.179 C 
ATOM      4  C   UNL     1       9.074  -2.045  24.189  0.00  0.00    +0.174 C 
ATOM      5  C   UNL     1       9.670  -0.815  24.900  0.00  0.00    +0.149 C 
ATOM      6  C   UNL     1       8.654   0.005  25.690  0.00  0.00    +0.041 C 
ATOM      7  O   UNL     1      10.464  -0.001  24.027  0.00  0.00    -0.343 OA
ENDROOT
BRANCH   1   9
ATOM      8  C   UNL     1       8.392   1.930  21.739  0.00  0.00    +0.197 C 
ATOM      9  O   UNL     1       8.844   1.371  22.964  0.00  0.00    -0.352 OA
ENDBRANCH   1   9
BRANCH   2  10
ATOM     10  O   UNL     1      10.326  -1.626  21.460  0.00  0.00    -0.384 OA
ATOM     11  H   UNL     1      11.172  -1.211  21.739  0.00  0.00    +0.210 HD
ENDBRANCH   2  10
BRANCH   3  12
ATOM     12  O   UNL     1       7.099  -1.050  23.178  0.00  0.00    -0.386 OA
ATOM     13  H   UNL     1       6.400  -1.723  23.099  0.00  0.00    +0.210 HD
ENDBRANCH   3  12
BRANCH   4  14
ATOM     14  O   UNL     1      10.147  -2.948  23.847  0.00  0.00    -0.387 OA
ATOM     15  H   UNL     1       9.742  -3.813  23.652  0.00  0.00    +0.210 HD
ENDBRANCH   4  14
TORSDOF 4
ENDMDL
MODEL 6
REMARK VINA RESULT:      -4.4      3.361      5.005
REMARK  Name = 
REMARK  6 active torsions:
REMARK  status: ('A' for Active; 'I' for Inactive)
REMARK    1  A    between atoms: C_1  and  O_2
REMARK    2  A    between atoms: O_2  and  C_3
REMARK    3  A    between atoms: C_6  and  C_8
REMARK    4  A    between atoms: C_9  and  O_11
REMARK    5  A    between atoms: C_12  and  O_14
REMARK    6  A    between atoms: C_15  and  O_17
REMARK                            x       y       z     vdW  Elec       q    Type
REMARK                         _______ _______ _______ _____ _____    ______ ____
ROOT
ATOM      1  C   UNL     1       7.760  -1.510  22.642  0.00  0.00    +0.281 C 
ATOM      2  C   UNL     1       9.158  -1.754  22.031  0.00  0.00    +0.201 C 
ATOM      3  C   UNL     1      10.244  -1.842  23.116  0.00  0.00    +0.179 C 
ATOM      4  C   UNL     1      10.149  -0.624  24.046  0.00  0.00    +0.174 C 
ATOM      5  C   UNL     1       8.723  -0.410  24.587  0.00  0.00    +0.149 C 
ATOM      6  C   UNL     1       8.348  -1.333  25.744  0.00  0.00    +0.041 C 
ATOM      7  O   UNL     1       7.730  -0.407  23.552  0.00  0.00    -0.343 OA
ENDROOT
BRANCH   1   9
ATOM      8  C   UNL     1       7.080  -3.760  22.293  0.00  0.00    +0.197 C 
ATOM      9  O   UNL     1       7.288  -2.718  23.236  0.00  0.00    -0.352 OA
ENDBRANCH   1   9
BRANCH   2  10
ATOM     10  O   UNL     1       9.487  -0.719  21.088  0.00  0.00    -0.384 OA
ATOM     11  H   UNL     1       8.761  -0.703  20.426  0.00  0.00    +0.210 HD
ENDBRANCH   2  10
BRANCH   3  12
ATOM     12  O   UNL     1      10.192  -3.049  23.875  0.00  0.00    -0.386 OA
ATOM     13  H   UNL     1      10.161  -2.812  24.820  0.00  0.00    +0.210 HD
ENDBRANCH   3  12
BRANCH   4  14
ATOM     14  O   UNL     1      10.532   0.538  23.280  0.00  0.00    -0.387 OA
ATOM     15  H   UNL     1      10.422   0.309  22.338  0.00  0.00    +0.210 HD
ENDBRANCH   4  14
TORSDOF 4
ENDMDL
MODEL 7
REMARK VINA RESULT:      -4.4      4.687      6.230
REMARK  Name = 
REMARK  6 active torsions:
REMARK  status: ('A' for Active; 'I' for Inactive)
REMARK    1  A    between atoms: C_1  and  O_2
REMARK    2  A    between atoms: O_2  and  C_3
REMARK    3  A    between atoms: C_6  and  C_8
REMARK    4  A    between atoms: C_9  and  O_11
REMARK    5  A    between atoms: C_12  and  O_14
REMARK    6  A    between atoms: C_15  and  O_17
REMARK                            x       y       z     vdW  Elec       q    Type
REMARK                         _______ _______ _______ _____ _____    ______ ____
ROOT
ATOM      1  C   UNL     1       8.302  -0.568  23.178  0.00  0.00    +0.281 C 
ATOM      2  C   UNL     1       9.783  -0.655  22.748  0.00  0.00    +0.201 C 
ATOM      3  C   UNL     1      10.608   0.514  23.315  0.00  0.00    +0.179 C 
ATOM      4  C   UNL     1       9.916   1.845  22.987  0.00  0.00    +0.174 C 
ATOM      5  C   UNL     1       8.432   1.852  23.400  0.00  0.00    +0.149 C 
ATOM      6  C   UNL     1       8.200   2.089  24.890  0.00  0.00    +0.041 C 
ATOM      7  O   UNL     1       7.715   0.710  22.914  0.00  0.00    -0.343 OA
ENDROOT
BRANCH   1   9
ATOM      8  C   UNL     1       8.547  -2.300  24.786  0.00  0.00    +0.197 C 
ATOM      9  O   UNL     1       8.186  -0.947  24.549  0.00  0.00    -0.352 OA
ENDBRANCH   1   9
BRANCH   2  10
ATOM     10  O   UNL     1       9.894  -0.685  21.315  0.00  0.00    -0.384 OA
ATOM     11  H   UNL     1       9.224  -1.328  20.996  0.00  0.00    +0.210 HD
ENDBRANCH   2  10
BRANCH   3  12
ATOM     12  O   UNL     1      10.846   0.414  24.718  0.00  0.00    -0.386 OA
ATOM     13  H   UNL     1      10.479  -0.434  25.027  0.00  0.00    +0.210 HD
ENDBRANCH   3  12
BRANCH   4  14
ATOM     14  O   UNL     1       9.999   2.037  21.558  0.00  0.00    -0.387 OA
ATOM     15  H   UNL     1      10.892   2.378  21.367  0.00  0.00    +0.210 HD
ENDBRANCH   4  14
TORSDOF 4
ENDMDL
MODEL 8
REMARK VINA RESULT:      -4.3      1.573      3.024
REMARK  Name = 
REMARK  6 active torsions:
REMARK  status: ('A' for Active; 'I' for Inactive)
REMARK    1  A    between atoms: C_1  and  O_2
REMARK    2  A    between atoms: O_2  and  C_3
REMARK    3  A    between atoms: C_6  and  C_8
REMARK    4  A    between atoms: C_9  and  O_11
REMARK    5  A    between atoms: C_12  and  O_14
REMARK    6  A    between atoms: C_15  and  O_17
REMARK                            x       y       z     vdW  Elec       q    Type
REMARK                         _______ _______ _______ _____ _____    ______ ____
ROOT
ATOM      1  C   UNL     1       8.613  -3.588  23.936  0.00  0.00    +0.281 C 
ATOM      2  C   UNL     1       8.389  -5.066  24.325  0.00  0.00    +0.201 C 
ATOM      3  C   UNL     1       7.529  -5.194  25.594  0.00  0.00    +0.179 C 
ATOM      4  C   UNL     1       8.114  -4.315  26.708  0.00  0.00    +0.174 C 
ATOM      5  C   UNL     1       8.354  -2.865  26.245  0.00  0.00    +0.149 C 
ATOM      6  C   UNL     1       7.095  -2.002  26.213  0.00  0.00    +0.041 C 
ATOM      7  O   UNL     1       9.096  -2.789  25.021  0.00  0.00    -0.343 OA
ENDROOT
BRANCH   1   9
ATOM      8  C   UNL     1       7.645  -1.958  22.504  0.00  0.00    +0.197 C 
ATOM      9  O   UNL     1       7.415  -3.063  23.366  0.00  0.00    -0.352 OA
ENDBRANCH   1   9
BRANCH   2  10
ATOM     10  O   UNL     1       9.646  -5.737  24.513  0.00  0.00    -0.384 OA
ATOM     11  H   UNL     1      10.298  -5.045  24.760  0.00  0.00    +0.210 HD
ENDBRANCH   2  10
BRANCH   3  12
ATOM     12  O   UNL     1       6.154  -4.877  25.383  0.00  0.00    -0.386 OA
ATOM     13  H   UNL     1       6.094  -4.290  24.608  0.00  0.00    +0.210 HD
ENDBRANCH   3  12
BRANCH   4  14
ATOM     14  O   UNL     1       9.378  -4.891  27.099  0.00  0.00    -0.387 OA
ATOM     15  H   UNL     1       9.232  -5.354  27.945  0.00  0.00    +0.210 HD
ENDBRANCH   4  14
TORSDOF 4
ENDMDL
MODEL 9
REMARK VINA RESULT:      -4.3      5.040      6.688
REMARK  Name = 
REMARK  6 active torsions:
REMARK  status: ('A' for Active; 'I' for Inactive)
REMARK    1  A    between atoms: C_1  and  O_2
REMARK    2  A    between atoms: O_2  and  C_3
REMARK    3  A    between atoms: C_6  and  C_8
REMARK    4  A    between atoms: C_9  and  O_11
REMARK    5  A    between atoms: C_12  and  O_14
REMARK    6  A    between atoms: C_15  and  O_17
REMARK                            x       y       z     vdW  Elec       q    Type
REMARK                         _______ _______ _______ _____ _____    ______ ____
ROOT
ATOM      1  C   UNL     1       7.694   1.339  23.891  0.00  0.00    +0.281 C 
ATOM      2  C   UNL     1       7.635   1.008  22.384  0.00  0.00    +0.201 C 
ATOM      3  C   UNL     1       8.918   0.306  21.907  0.00  0.00    +0.179 C 
ATOM      4  C   UNL     1      10.146   1.116  22.343  0.00  0.00    +0.174 C 
ATOM      5  C   UNL     1      10.124   1.451  23.847  0.00  0.00    +0.149 C 
ATOM      6  C   UNL     1      10.554   0.298  24.750  0.00  0.00    +0.041 C 
ATOM      7  O   UNL     1       8.885   2.037  24.267  0.00  0.00    -0.343 OA
ENDROOT
BRANCH   1   9
ATOM      8  C   UNL     1       6.209  -0.418  24.486  0.00  0.00    +0.197 C 
ATOM      9  O   UNL     1       7.505   0.142  24.645  0.00  0.00    -0.352 OA
ENDBRANCH   1   9
BRANCH   2  10
ATOM     10  O   UNL     1       7.411   2.200  21.611  0.00  0.00    -0.384 OA
ATOM     11  H   UNL     1       6.546   2.082  21.161  0.00  0.00    +0.210 HD
ENDBRANCH   2  10
BRANCH   3  12
ATOM     12  O   UNL     1       9.029  -1.043  22.360  0.00  0.00    -0.386 OA
ATOM     13  H   UNL     1       9.139  -1.616  21.579  0.00  0.00    +0.210 HD
ENDBRANCH   3  12
BRANCH   4  14
ATOM     14  O   UNL     1      10.141   2.350  21.594  0.00  0.00    -0.387 OA
ATOM     15  H   UNL     1      11.028   2.746  21.688  0.00  0.00    +0.210 HD
ENDBRANCH   4  14
TORSDOF 4
ENDMDL
