MODEL 1
REMARK VINA RESULT:      -6.2      0.000      0.000
REMARK  Name = 
REMARK  9 active torsions:
REMARK  status: ('A' for Active; 'I' for Inactive)
REMARK    1  A    between atoms: N_2  and  C_3
REMARK    2  A    between atoms: N_2  and  C_4
REMARK    3  A    between atoms: C_8  and  C_9
REMARK    4  A    between atoms: N_11  and  C_13
REMARK    5  A    between atoms: N_16  and  C_17
REMARK    6  A    between atoms: N_20  and  C_21
REMARK    7  A    between atoms: C_21  and  C_22
REMARK    8  A    between atoms: C_24  and  O_25
REMARK    9  A    between atoms: O_25  and  C_26
REMARK                            x       y       z     vdW  Elec       q    Type
REMARK                         _______ _______ _______ _____ _____    ______ ____
ROOT
ATOM      1  C   UNL     1       9.484  -1.607  22.834  0.00  0.00    +0.248 C 
ATOM      2  N   UNL     1       9.155  -0.316  23.197  0.00  0.00    -0.306 N 
ATOM      3  H   UNL     1       8.241  -0.130  23.577  0.00  0.00    +0.149 HD
ATOM      4  O   UNL     1      10.504  -1.900  22.225  0.00  0.00    -0.270 OA
ENDROOT
BRANCH   2   5
ATOM      5  C   UNL     1      10.085   0.811  23.111  0.00  0.00    +0.101 C 
ATOM      6  C   UNL     1       9.817   1.816  21.969  0.00  0.00    +0.108 C 
ATOM      7  N   UNL     1       8.550   2.547  21.926  0.00  0.00    -0.300 NA
ATOM      8  C   UNL     1       8.371   3.624  22.895  0.00  0.00    +0.100 C 
ATOM      9  C   UNL     1       9.154   3.634  24.231  0.00  0.00    +0.099 C 
ATOM     10  N   UNL     1       9.247   2.396  25.007  0.00  0.00    -0.302 NA
ATOM     11  C   UNL     1       7.962   1.827  25.368  0.00  0.00    +0.105 C 
ATOM     12  C   UNL     1      10.262   1.475  24.494  0.00  0.00    +0.107 C 
BRANCH   7  13
ATOM     13  C   UNL     1       7.392   1.704  21.643  0.00  0.00    +0.081 C 
ATOM     14  C   UNL     1       6.110   2.178  22.321  0.00  0.00    +0.020 C 
ENDBRANCH   7  13
ENDBRANCH   2   5
BRANCH   1  18
ATOM     15  C   UNL     1       6.660  -4.621  24.156  0.00  0.00    +0.045 A 
ATOM     16  C   UNL     1       7.282  -3.768  25.082  0.00  0.00    +0.070 A 
ATOM     17  C   UNL     1       8.213  -2.785  24.701  0.00  0.00    +0.134 A 
ATOM     18  C   UNL     1       8.533  -2.647  23.341  0.00  0.00    +0.079 A 
ATOM     19  C   UNL     1       7.918  -3.484  22.398  0.00  0.00    +0.033 A 
ATOM     20  C   UNL     1       7.022  -4.472  22.806  0.00  0.00    +0.040 A 
ATOM     21 BR   UNL     1       6.283  -5.599  21.461  0.00  0.00    -0.048 Br
BRANCH  15  23
ATOM     22  H   UNL     1       4.951  -5.667  24.039  0.00  0.00    +0.146 HD
ATOM     23  N   UNL     1       5.829  -5.681  24.560  0.00  0.00    -0.346 N 
ATOM     24  C   UNL     1       5.620  -5.923  25.977  0.00  0.00    +0.125 C 
ENDBRANCH  15  23
BRANCH  17  25
ATOM     25  O   UNL     1       8.873  -1.980  25.594  0.00  0.00    -0.494 OA
ATOM     26  C   UNL     1       8.140  -1.497  26.713  0.00  0.00    +0.277 C 
ENDBRANCH  17  25
ENDBRANCH   1  18
TORSDOF 5
ENDMDL
MODEL 2
REMARK VINA RESULT:      -6.2      1.723      2.319
REMARK  Name = 
REMARK  9 active torsions:
REMARK  status: ('A' for Active; 'I' for Inactive)
REMARK    1  A    between atoms: N_2  and  C_3
REMARK    2  A    between atoms: N_2  and  C_4
REMARK    3  A    between atoms: C_8  and  C_9
REMARK    4  A    between atoms: N_11  and  C_13
REMARK    5  A    between atoms: N_16  and  C_17
REMARK    6  A    between atoms: N_20  and  C_21
REMARK    7  A    between atoms: C_21  and  C_22
REMARK    8  A    between atoms: C_24  and  O_25
REMARK    9  A    between atoms: O_25  and  C_26
REMARK                            x       y       z     vdW  Elec       q    Type
REMARK                         _______ _______ _______ _____ _____    ______ ____
ROOT
ATOM      1  C   UNL     1       8.905  -3.025  24.248  0.00  0.00    +0.248 C 
ATOM      2  N   UNL     1       8.481  -1.758  24.595  0.00  0.00    -0.306 N 
ATOM      3  H   UNL     1       7.505  -1.526  24.515  0.00  0.00    +0.149 HD
ATOM      4  O   UNL     1      10.082  -3.347  24.166  0.00  0.00    -0.270 OA
ENDROOT
BRANCH   2   5
ATOM      5  C   UNL     1       9.371  -0.727  25.134  0.00  0.00    +0.101 C 
ATOM      6  C   UNL     1      10.110   0.134  24.085  0.00  0.00    +0.108 C 
ATOM      7  N   UNL     1       9.342   0.948  23.141  0.00  0.00    -0.300 NA
ATOM      8  C   UNL     1       8.710   2.155  23.665  0.00  0.00    +0.100 C 
ATOM      9  C   UNL     1       8.356   2.283  25.166  0.00  0.00    +0.099 C 
ATOM     10  N   UNL     1       7.709   1.156  25.841  0.00  0.00    -0.302 NA
ATOM     11  C   UNL     1       6.460   0.740  25.229  0.00  0.00    +0.105 C 
ATOM     12  C   UNL     1       8.648   0.101  26.219  0.00  0.00    +0.107 C 
BRANCH   7  13
ATOM     13  C   UNL     1       8.585   0.166  22.168  0.00  0.00    +0.081 C 
ATOM     14  C   UNL     1       9.448  -0.782  21.341  0.00  0.00    +0.020 C 
ENDBRANCH   7  13
ENDBRANCH   2   5
BRANCH   1  18
ATOM     15  C   UNL     1       5.675  -5.846  23.600  0.00  0.00    +0.045 A 
ATOM     16  C   UNL     1       5.976  -5.386  24.893  0.00  0.00    +0.070 A 
ATOM     17  C   UNL     1       7.021  -4.482  25.152  0.00  0.00    +0.134 A 
ATOM     18  C   UNL     1       7.795  -4.016  24.078  0.00  0.00    +0.079 A 
ATOM     19  C   UNL     1       7.508  -4.457  22.777  0.00  0.00    +0.033 A 
ATOM     20  C   UNL     1       6.485  -5.379  22.552  0.00  0.00    +0.040 A 
ATOM     21 BR   UNL     1       6.208  -5.964  20.761  0.00  0.00    -0.048 Br
BRANCH  15  23
ATOM     22  H   UNL     1       4.264  -6.708  22.462  0.00  0.00    +0.146 HD
ATOM     23  N   UNL     1       4.712  -6.844  23.369  0.00  0.00    -0.346 N 
ATOM     24  C   UNL     1       3.753  -7.165  24.411  0.00  0.00    +0.125 C 
ENDBRANCH  15  23
BRANCH  17  25
ATOM     25  O   UNL     1       7.367  -4.065  26.412  0.00  0.00    -0.494 OA
ATOM     26  C   UNL     1       6.548  -4.490  27.495  0.00  0.00    +0.277 C 
ENDBRANCH  17  25
ENDBRANCH   1  18
TORSDOF 5
ENDMDL
MODEL 3
REMARK VINA RESULT:      -6.1      2.203      3.072
REMARK  Name = 
REMARK  9 active torsions:
REMARK  status: ('A' for Active; 'I' for Inactive)
REMARK    1  A    between atoms: N_2  and  C_3
REMARK    2  A    between atoms: N_2  and  C_4
REMARK    3  A    between atoms: C_8  and  C_9
REMARK    4  A    between atoms: N_11  and  C_13
REMARK    5  A    between atoms: N_16  and  C_17
REMARK    6  A    between atoms: N_20  and  C_21
REMARK    7  A    between atoms: C_21  and  C_22
REMARK    8  A    between atoms: C_24  and  O_25
REMARK    9  A    between atoms: O_25  and  C_26
REMARK                            x       y       z     vdW  Elec       q    Type
REMARK                         _______ _______ _______ _____ _____    ______ ____
ROOT
ATOM      1  C   UNL     1       7.340  -3.674  23.416  0.00  0.00    +0.248 C 
ATOM      2  N   UNL     1       7.704  -2.428  23.886  0.00  0.00    -0.306 N 
ATOM      3  H   UNL     1       7.396  -2.138  24.800  0.00  0.00    +0.149 HD
ATOM      4  O   UNL     1       7.535  -4.048  22.268  0.00  0.00    -0.270 OA
ENDROOT
BRANCH   2   5
ATOM      5  C   UNL     1       8.569  -1.506  23.148  0.00  0.00    +0.101 C 
ATOM      6  C   UNL     1       7.886  -0.225  22.618  0.00  0.00    +0.108 C 
ATOM      7  N   UNL     1       7.277   0.717  23.559  0.00  0.00    -0.300 NA
ATOM      8  C   UNL     1       8.182   1.545  24.350  0.00  0.00    +0.100 C 
ATOM      9  C   UNL     1       9.634   1.091  24.636  0.00  0.00    +0.099 C 
ATOM     10  N   UNL     1       9.875  -0.292  25.053  0.00  0.00    -0.302 NA
ATOM     11  C   UNL     1       9.152  -0.682  26.249  0.00  0.00    +0.105 C 
ATOM     12  C   UNL     1       9.870  -1.235  23.935  0.00  0.00    +0.107 C 
BRANCH   7  13
ATOM     13  C   UNL     1       6.091   0.195  24.231  0.00  0.00    +0.081 C 
ATOM     14  C   UNL     1       5.792   0.878  25.562  0.00  0.00    +0.020 C 
ENDBRANCH   7  13
ENDBRANCH   2   5
BRANCH   1  18
ATOM     15  C   UNL     1       5.554  -6.283  26.384  0.00  0.00    +0.045 A 
ATOM     16  C   UNL     1       6.768  -5.627  26.646  0.00  0.00    +0.070 A 
ATOM     17  C   UNL     1       7.390  -4.782  25.709  0.00  0.00    +0.134 A 
ATOM     18  C   UNL     1       6.775  -4.583  24.464  0.00  0.00    +0.079 A 
ATOM     19  C   UNL     1       5.557  -5.223  24.184  0.00  0.00    +0.033 A 
ATOM     20  C   UNL     1       4.978  -6.080  25.119  0.00  0.00    +0.040 A 
ATOM     21 BR   UNL     1       3.357  -6.950  24.627  0.00  0.00    -0.048 Br
BRANCH  15  23
ATOM     22  H   UNL     1       4.237  -7.729  26.837  0.00  0.00    +0.146 HD
ATOM     23  N   UNL     1       5.007  -7.222  27.277  0.00  0.00    -0.346 N 
ATOM     24  C   UNL     1       4.690  -6.815  28.635  0.00  0.00    +0.125 C 
ENDBRANCH  15  23
BRANCH  17  25
ATOM     25  O   UNL     1       8.602  -4.177  25.923  0.00  0.00    -0.494 OA
ATOM     26  C   UNL     1       9.774  -4.945  25.679  0.00  0.00    +0.277 C 
ENDBRANCH  17  25
ENDBRANCH   1  18
TORSDOF 5
ENDMDL
MODEL 4
REMARK VINA RESULT:      -6.1      2.844      6.997
REMARK  Name = 
REMARK  9 active torsions:
REMARK  status: ('A' for Active; 'I' for Inactive)
REMARK    1  A    between atoms: N_2  and  C_3
REMARK    2  A    between atoms: N_2  and  C_4
REMARK    3  A    between atoms: C_8  and  C_9
REMARK    4  A    between atoms: N_11  and  C_13
REMARK    5  A    between atoms: N_16  and  C_17
REMARK    6  A    between atoms: N_20  and  C_21
REMARK    7  A    between atoms: C_21  and  C_22
REMARK    8  A    between atoms: C_24  and  O_25
REMARK    9  A    between atoms: O_25  and  C_26
REMARK                            x       y       z     vdW  Elec       q    Type
REMARK                         _______ _______ _______ _____ _____    ______ ____
ROOT
ATOM      1  C   UNL     1       8.581  -0.971  25.822  0.00  0.00    +0.248 C 
ATOM      2  N   UNL     1       8.145  -2.008  25.021  0.00  0.00    -0.306 N 
ATOM      3  H   UNL     1       7.960  -1.832  24.047  0.00  0.00    +0.149 HD
ATOM      4  O   UNL     1       8.683  -1.051  27.038  0.00  0.00    -0.270 OA
ENDROOT
BRANCH   2   5
ATOM      5  C   UNL     1       7.984  -3.384  25.495  0.00  0.00    +0.101 C 
ATOM      6  C   UNL     1       6.622  -3.711  26.148  0.00  0.00    +0.108 C 
ATOM      7  N   UNL     1       5.391  -3.580  25.367  0.00  0.00    -0.300 NA
ATOM      8  C   UNL     1       5.135  -4.600  24.354  0.00  0.00    +0.100 C 
ATOM      9  C   UNL     1       6.294  -5.408  23.724  0.00  0.00    +0.099 C 
ATOM     10  N   UNL     1       7.501  -4.699  23.294  0.00  0.00    -0.302 NA
ATOM     11  C   UNL     1       7.254  -3.645  22.328  0.00  0.00    +0.105 C 
ATOM     12  C   UNL     1       8.406  -4.388  24.401  0.00  0.00    +0.107 C 
BRANCH   7  13
ATOM     13  C   UNL     1       5.053  -2.201  25.027  0.00  0.00    +0.081 C 
ATOM     14  C   UNL     1       4.794  -1.317  26.243  0.00  0.00    +0.020 C 
ENDBRANCH   7  13
ENDBRANCH   2   5
BRANCH   1  18
ATOM     15  C   UNL     1       9.725   2.617  23.670  0.00  0.00    +0.045 A 
ATOM     16  C   UNL     1      10.277   1.371  23.330  0.00  0.00    +0.070 A 
ATOM     17  C   UNL     1       9.946   0.184  24.007  0.00  0.00    +0.134 A 
ATOM     18  C   UNL     1       9.025   0.243  25.065  0.00  0.00    +0.079 A 
ATOM     19  C   UNL     1       8.456   1.476  25.418  0.00  0.00    +0.033 A 
ATOM     20  C   UNL     1       8.826   2.643  24.750  0.00  0.00    +0.040 A 
ATOM     21 BR   UNL     1       8.045   4.277  25.338  0.00  0.00    -0.048 Br
BRANCH  15  23
ATOM     22  H   UNL     1       9.951   3.808  22.071  0.00  0.00    +0.146 HD
ATOM     23  N   UNL     1      10.158   3.813  23.071  0.00  0.00    -0.346 N 
ATOM     24  C   UNL     1      11.494   4.309  23.351  0.00  0.00    +0.125 C 
ENDBRANCH  15  23
BRANCH  17  25
ATOM     25  O   UNL     1      10.515  -1.032  23.727  0.00  0.00    -0.494 OA
ATOM     26  C   UNL     1      10.384  -1.532  22.402  0.00  0.00    +0.277 C 
ENDBRANCH  17  25
ENDBRANCH   1  18
TORSDOF 5
ENDMDL
MODEL 5
REMARK VINA RESULT:      -6.0      2.923      7.077
REMARK  Name = 
REMARK  9 active torsions:
REMARK  status: ('A' for Active; 'I' for Inactive)
REMARK    1  A    between atoms: N_2  and  C_3
REMARK    2  A    between atoms: N_2  and  C_4
REMARK    3  A    between atoms: C_8  and  C_9
REMARK    4  A    between atoms: N_11  and  C_13
REMARK    5  A    between atoms: N_16  and  C_17
REMARK    6  A    between atoms: N_20  and  C_21
REMARK    7  A    between atoms: C_21  and  C_22
REMARK    8  A    between atoms: C_24  and  O_25
REMARK    9  A    between atoms: O_25  and  C_26
REMARK                            x       y       z     vdW  Elec       q    Type
REMARK                         _______ _______ _______ _____ _____    ______ ____
ROOT
ATOM      1  C   UNL     1       6.672  -4.194  22.553  0.00  0.00    +0.248 C 
ATOM      2  N   UNL     1       6.116  -4.823  23.650  0.00  0.00    -0.306 N 
ATOM      3  H   UNL     1       6.572  -4.743  24.545  0.00  0.00    +0.149 HD
ATOM      4  O   UNL     1       6.279  -4.360  21.407  0.00  0.00    -0.270 OA
ENDROOT
BRANCH   2   5
ATOM      5  C   UNL     1       4.856  -5.566  23.604  0.00  0.00    +0.101 C 
ATOM      6  C   UNL     1       4.711  -6.702  24.641  0.00  0.00    +0.108 C 
ATOM      7  N   UNL     1       4.755  -6.392  26.071  0.00  0.00    -0.300 NA
ATOM      8  C   UNL     1       3.584  -5.738  26.646  0.00  0.00    +0.100 C 
ATOM      9  C   UNL     1       2.625  -4.900  25.766  0.00  0.00    +0.099 C 
ATOM     10  N   UNL     1       3.192  -3.952  24.804  0.00  0.00    -0.302 NA
ATOM     11  C   UNL     1       4.067  -2.960  25.398  0.00  0.00    +0.105 C 
ATOM     12  C   UNL     1       3.655  -4.596  23.574  0.00  0.00    +0.107 C 
BRANCH   7  13
ATOM     13  C   UNL     1       6.065  -5.947  26.537  0.00  0.00    +0.081 C 
ATOM     14  C   UNL     1       6.008  -5.104  27.807  0.00  0.00    +0.020 C 
ENDBRANCH   7  13
ENDBRANCH   2   5
BRANCH   1  18
ATOM     15  C   UNL     1       9.724  -1.232  23.401  0.00  0.00    +0.045 A 
ATOM     16  C   UNL     1       9.834  -2.538  23.906  0.00  0.00    +0.070 A 
ATOM     17  C   UNL     1       8.864  -3.528  23.667  0.00  0.00    +0.134 A 
ATOM     18  C   UNL     1       7.740  -3.201  22.892  0.00  0.00    +0.079 A 
ATOM     19  C   UNL     1       7.613  -1.903  22.372  0.00  0.00    +0.033 A 
ATOM     20  C   UNL     1       8.575  -0.932  22.651  0.00  0.00    +0.040 A 
ATOM     21 BR   UNL     1       8.287   0.815  21.951  0.00  0.00    -0.048 Br
BRANCH  15  23
ATOM     22  H   UNL     1      11.592  -0.510  23.546  0.00  0.00    +0.146 HD
ATOM     23  N   UNL     1      10.634  -0.219  23.751  0.00  0.00    -0.346 N 
ATOM     24  C   UNL     1      10.524   0.423  25.049  0.00  0.00    +0.125 C 
ENDBRANCH  15  23
BRANCH  17  25
ATOM     25  O   UNL     1       8.924  -4.791  24.197  0.00  0.00    -0.494 OA
ATOM     26  C   UNL     1       9.609  -4.956  25.432  0.00  0.00    +0.277 C 
ENDBRANCH  17  25
ENDBRANCH   1  18
TORSDOF 5
ENDMDL
MODEL 6
REMARK VINA RESULT:      -5.9      2.554      6.731
REMARK  Name = 
REMARK  9 active torsions:
REMARK  status: ('A' for Active; 'I' for Inactive)
REMARK    1  A    between atoms: N_2  and  C_3
REMARK    2  A    between atoms: N_2  and  C_4
REMARK    3  A    between atoms: C_8  and  C_9
REMARK    4  A    between atoms: N_11  and  C_13
REMARK    5  A    between atoms: N_16  and  C_17
REMARK    6  A    between atoms: N_20  and  C_21
REMARK    7  A    between atoms: C_21  and  C_22
REMARK    8  A    between atoms: C_24  and  O_25
REMARK    9  A    between atoms: O_25  and  C_26
REMARK                            x       y       z     vdW  Elec       q    Type
REMARK                         _______ _______ _______ _____ _____    ______ ____
ROOT
ATOM      1  C   UNL     1       8.290  -1.495  22.728  0.00  0.00    +0.248 C 
ATOM      2  N   UNL     1       7.318  -2.329  23.244  0.00  0.00    -0.306 N 
ATOM      3  H   UNL     1       6.874  -2.087  24.116  0.00  0.00    +0.149 HD
ATOM      4  O   UNL     1       8.986  -1.782  21.764  0.00  0.00    -0.270 OA
ENDROOT
BRANCH   2   5
ATOM      5  C   UNL     1       6.845  -3.537  22.566  0.00  0.00    +0.101 C 
ATOM      6  C   UNL     1       7.440  -4.868  23.077  0.00  0.00    +0.108 C 
ATOM      7  N   UNL     1       7.227  -5.274  24.467  0.00  0.00    -0.300 NA
ATOM      8  C   UNL     1       5.894  -5.749  24.824  0.00  0.00    +0.100 C 
ATOM      9  C   UNL     1       4.649  -5.323  24.008  0.00  0.00    +0.099 C 
ATOM     10  N   UNL     1       4.495  -3.915  23.635  0.00  0.00    -0.302 NA
ATOM     11  C   UNL     1       4.495  -3.002  24.763  0.00  0.00    +0.105 C 
ATOM     12  C   UNL     1       5.303  -3.540  22.475  0.00  0.00    +0.107 C 
BRANCH   7  13
ATOM     13  C   UNL     1       7.917  -4.432  25.439  0.00  0.00    +0.081 C 
ATOM     14  C   UNL     1       9.378  -4.818  25.655  0.00  0.00    +0.020 C 
ENDBRANCH   7  13
ENDBRANCH   2   5
BRANCH   1  18
ATOM     15  C   UNL     1       8.479   2.469  24.480  0.00  0.00    +0.045 A 
ATOM     16  C   UNL     1       8.927   1.346  25.197  0.00  0.00    +0.070 A 
ATOM     17  C   UNL     1       8.874   0.042  24.674  0.00  0.00    +0.134 A 
ATOM     18  C   UNL     1       8.354  -0.150  23.384  0.00  0.00    +0.079 A 
ATOM     19  C   UNL     1       7.906   0.958  22.648  0.00  0.00    +0.033 A 
ATOM     20  C   UNL     1       7.942   2.237  23.203  0.00  0.00    +0.040 A 
ATOM     21 BR   UNL     1       7.258   3.670  22.151  0.00  0.00    -0.048 Br
BRANCH  15  23
ATOM     22  H   UNL     1       9.350   4.053  25.352  0.00  0.00    +0.146 HD
ATOM     23  N   UNL     1       8.420   3.748  25.060  0.00  0.00    -0.346 N 
ATOM     24  C   UNL     1       7.411   4.030  26.066  0.00  0.00    +0.125 C 
ENDBRANCH  15  23
BRANCH  17  25
ATOM     25  O   UNL     1       9.255  -1.072  25.378  0.00  0.00    -0.494 OA
ATOM     26  C   UNL     1       8.802  -1.190  26.721  0.00  0.00    +0.277 C 
ENDBRANCH  17  25
ENDBRANCH   1  18
TORSDOF 5
ENDMDL
MODEL 7
REMARK VINA RESULT:      -5.9      3.484      7.212
REMARK  Name = 
REMARK  9 active torsions:
REMARK  status: ('A' for Active; 'I' for Inactive)
REMARK    1  A    between atoms: N_2  and  C_3
REMARK    2  A    between atoms: N_2  and  C_4
REMARK    3  A    between atoms: C_8  and  C_9
REMARK    4  A    between atoms: N_11  and  C_13
REMARK    5  A    between atoms: N_16  and  C_17
REMARK    6  A    between atoms: N_20  and  C_21
REMARK    7  A    between atoms: C_21  and  C_22
REMARK    8  A    between atoms: C_24  and  O_25
REMARK    9  A    between atoms: O_25  and  C_26
REMARK                            x       y       z     vdW  Elec       q    Type
REMARK                         _______ _______ _______ _____ _____    ______ ____
ROOT
ATOM      1  C   UNL     1       7.608   1.483  23.124  0.00  0.00    +0.248 C 
ATOM      2  N   UNL     1       7.685   0.488  24.079  0.00  0.00    -0.306 N 
ATOM      3  H   UNL     1       8.460   0.483  24.722  0.00  0.00    +0.149 HD
ATOM      4  O   UNL     1       6.795   1.483  22.211  0.00  0.00    -0.270 OA
ENDROOT
BRANCH   2   5
ATOM      5  C   UNL     1       6.664  -0.546  24.253  0.00  0.00    +0.101 C 
ATOM      6  C   UNL     1       6.850  -1.820  23.399  0.00  0.00    +0.108 C 
ATOM      7  N   UNL     1       8.052  -2.638  23.564  0.00  0.00    -0.300 NA
ATOM      8  C   UNL     1       8.140  -3.453  24.772  0.00  0.00    +0.100 C 
ATOM      9  C   UNL     1       7.357  -3.072  26.052  0.00  0.00    +0.099 C 
ATOM     10  N   UNL     1       7.366  -1.677  26.498  0.00  0.00    -0.302 NA
ATOM     11  C   UNL     1       8.693  -1.141  26.735  0.00  0.00    +0.105 C 
ATOM     12  C   UNL     1       6.432  -0.833  25.753  0.00  0.00    +0.107 C 
BRANCH   7  13
ATOM     13  C   UNL     1       9.276  -1.987  23.107  0.00  0.00    +0.081 C 
ATOM     14  C   UNL     1       9.215  -1.519  21.657  0.00  0.00    +0.020 C 
ENDBRANCH   7  13
ENDBRANCH   2   5
BRANCH   1  18
ATOM     15  C   UNL     1      10.204   4.903  23.736  0.00  0.00    +0.045 A 
ATOM     16  C   UNL     1      10.739   3.609  23.622  0.00  0.00    +0.070 A 
ATOM     17  C   UNL     1       9.936   2.470  23.435  0.00  0.00    +0.134 A 
ATOM     18  C   UNL     1       8.543   2.629  23.358  0.00  0.00    +0.079 A 
ATOM     19  C   UNL     1       7.988   3.914  23.462  0.00  0.00    +0.033 A 
ATOM     20  C   UNL     1       8.806   5.023  23.678  0.00  0.00    +0.040 A 
ATOM     21 BR   UNL     1       7.957   6.717  23.867  0.00  0.00    -0.048 Br
BRANCH  15  23
ATOM     22  H   UNL     1      10.618   6.864  23.632  0.00  0.00    +0.146 HD
ATOM     23  N   UNL     1      11.005   6.016  24.048  0.00  0.00    -0.346 N 
ATOM     24  C   UNL     1      12.445   5.929  23.877  0.00  0.00    +0.125 C 
ENDBRANCH  15  23
BRANCH  17  25
ATOM     25  O   UNL     1      10.434   1.193  23.378  0.00  0.00    -0.494 OA
ATOM     26  C   UNL     1      11.198   0.733  24.486  0.00  0.00    +0.277 C 
ENDBRANCH  17  25
ENDBRANCH   1  18
TORSDOF 5
ENDMDL
MODEL 8
REMARK VINA RESULT:      -5.8      1.863      3.472
REMARK  Name = 
REMARK  9 active torsions:
REMARK  status: ('A' for Active; 'I' for Inactive)
REMARK    1  A    between atoms: N_2  and  C_3
REMARK    2  A    between atoms: N_2  and  C_4
REMARK    3  A    between atoms: C_8  and  C_9
REMARK    4  A    between atoms: N_11  and  C_13
REMARK    5  A    between atoms: N_16  and  C_17
REMARK    6  A    between atoms: N_20  and  C_21
REMARK    7  A    between atoms: C_21  and  C_22
REMARK    8  A    between atoms: C_24  and  O_25
REMARK    9  A    between atoms: O_25  and  C_26
REMARK                            x       y       z     vdW  Elec       q    Type
REMARK                         _______ _______ _______ _____ _____    ______ ____
ROOT
ATOM      1  C   UNL     1       6.158  -0.853  24.713  0.00  0.00    +0.248 C 
ATOM      2  N   UNL     1       6.557   0.204  23.919  0.00  0.00    -0.306 N 
ATOM      3  H   UNL     1       7.057   0.015  23.065  0.00  0.00    +0.149 HD
ATOM      4  O   UNL     1       5.687  -0.717  25.834  0.00  0.00    -0.270 OA
ENDROOT
BRANCH   2   5
ATOM      5  C   UNL     1       6.249   1.603  24.218  0.00  0.00    +0.101 C 
ATOM      6  C   UNL     1       7.200   2.300  25.216  0.00  0.00    +0.108 C 
ATOM      7  N   UNL     1       8.622   2.431  24.894  0.00  0.00    -0.300 NA
ATOM      8  C   UNL     1       8.986   3.417  23.881  0.00  0.00    +0.100 C 
ATOM      9  C   UNL     1       7.969   3.870  22.806  0.00  0.00    +0.099 C 
ATOM     10  N   UNL     1       7.164   2.857  22.120  0.00  0.00    -0.302 NA
ATOM     11  C   UNL     1       7.947   1.839  21.444  0.00  0.00    +0.105 C 
ATOM     12  C   UNL     1       6.023   2.400  22.915  0.00  0.00    +0.107 C 
BRANCH   7  13
ATOM     13  C   UNL     1       9.343   1.162  24.880  0.00  0.00    +0.081 C 
ATOM     14  C   UNL     1      10.661   1.215  24.113  0.00  0.00    +0.020 C 
ENDBRANCH   7  13
ENDBRANCH   2   5
BRANCH   1  18
ATOM     15  C   UNL     1       6.300  -4.776  22.869  0.00  0.00    +0.045 A 
ATOM     16  C   UNL     1       7.446  -3.965  22.916  0.00  0.00    +0.070 A 
ATOM     17  C   UNL     1       7.444  -2.682  23.492  0.00  0.00    +0.134 A 
ATOM     18  C   UNL     1       6.251  -2.190  24.046  0.00  0.00    +0.079 A 
ATOM     19  C   UNL     1       5.096  -2.987  24.016  0.00  0.00    +0.033 A 
ATOM     20  C   UNL     1       5.118  -4.243  23.411  0.00  0.00    +0.040 A 
ATOM     21 BR   UNL     1       3.488  -5.226  23.367  0.00  0.00    -0.048 Br
BRANCH  15  23
ATOM     22  H   UNL     1       7.008  -6.625  22.538  0.00  0.00    +0.146 HD
ATOM     23  N   UNL     1       6.282  -6.001  22.181  0.00  0.00    -0.346 N 
ATOM     24  C   UNL     1       6.224  -6.003  20.729  0.00  0.00    +0.125 C 
ENDBRANCH  15  23
BRANCH  17  25
ATOM     25  O   UNL     1       8.536  -1.852  23.498  0.00  0.00    -0.494 OA
ATOM     26  C   UNL     1       9.810  -2.442  23.724  0.00  0.00    +0.277 C 
ENDBRANCH  17  25
ENDBRANCH   1  18
TORSDOF 5
ENDMDL
MODEL 9
REMARK VINA RESULT:      -5.8      2.148      3.585
REMARK  Name = 
REMARK  9 active torsions:
REMARK  status: ('A' for Active; 'I' for Inactive)
REMARK    1  A    between atoms: N_2  and  C_3
REMARK    2  A    between atoms: N_2  and  C_4
REMARK    3  A    between atoms: C_8  and  C_9
REMARK    4  A    between atoms: N_11  and  C_13
REMARK    5  A    between atoms: N_16  and  C_17
REMARK    6  A    between atoms: N_20  and  C_21
REMARK    7  A    between atoms: C_21  and  C_22
REMARK    8  A    between atoms: C_24  and  O_25
REMARK    9  A    between atoms: O_25  and  C_26
REMARK                            x       y       z     vdW  Elec       q    Type
REMARK                         _______ _______ _______ _____ _____    ______ ____
ROOT
ATOM      1  C   UNL     1       8.152  -3.180  25.644  0.00  0.00    +0.248 C 
ATOM      2  N   UNL     1       7.969  -1.907  25.141  0.00  0.00    -0.306 N 
ATOM      3  H   UNL     1       7.340  -1.771  24.367  0.00  0.00    +0.149 HD
ATOM      4  O   UNL     1       9.004  -3.465  26.474  0.00  0.00    -0.270 OA
ENDROOT
BRANCH   2   5
ATOM      5  C   UNL     1       8.603  -0.716  25.707  0.00  0.00    +0.101 C 
ATOM      6  C   UNL     1      10.036  -0.420  25.211  0.00  0.00    +0.108 C 
ATOM      7  N   UNL     1      10.276  -0.168  23.789  0.00  0.00    -0.300 NA
ATOM      8  C   UNL     1       9.843   1.121  23.260  0.00  0.00    +0.100 C 
ATOM      9  C   UNL     1       8.710   1.925  23.943  0.00  0.00    +0.099 C 
ATOM     10  N   UNL     1       7.493   1.223  24.357  0.00  0.00    -0.302 NA
ATOM     11  C   UNL     1       6.818   0.527  23.277  0.00  0.00    +0.105 C 
ATOM     12  C   UNL     1       7.653   0.499  25.618  0.00  0.00    +0.107 C 
BRANCH   7  13
ATOM     13  C   UNL     1      10.076  -1.340  22.941  0.00  0.00    +0.081 C 
ATOM     14  C   UNL     1       9.772  -0.996  21.486  0.00  0.00    +0.020 C 
ENDBRANCH   7  13
ENDBRANCH   2   5
BRANCH   1  18
ATOM     15  C   UNL     1       5.246  -6.151  24.400  0.00  0.00    +0.045 A 
ATOM     16  C   UNL     1       5.963  -5.407  23.448  0.00  0.00    +0.070 A 
ATOM     17  C   UNL     1       6.905  -4.426  23.804  0.00  0.00    +0.134 A 
ATOM     18  C   UNL     1       7.143  -4.179  25.166  0.00  0.00    +0.079 A 
ATOM     19  C   UNL     1       6.443  -4.915  26.134  0.00  0.00    +0.033 A 
ATOM     20  C   UNL     1       5.491  -5.861  25.753  0.00  0.00    +0.040 A 
ATOM     21 BR   UNL     1       4.550  -6.767  27.138  0.00  0.00    -0.048 Br
BRANCH  15  23
ATOM     22  H   UNL     1       4.597  -7.828  23.508  0.00  0.00    +0.146 HD
ATOM     23  N   UNL     1       4.219  -7.038  24.034  0.00  0.00    -0.346 N 
ATOM     24  C   UNL     1       3.003  -6.513  23.436  0.00  0.00    +0.125 C 
ENDBRANCH  15  23
BRANCH  17  25
ATOM     25  O   UNL     1       7.574  -3.651  22.892  0.00  0.00    -0.494 OA
ATOM     26  C   UNL     1       6.808  -3.036  21.862  0.00  0.00    +0.277 C 
ENDBRANCH  17  25
ENDBRANCH   1  18
TORSDOF 5
ENDMDL
