MODEL 1
REMARK VINA RESULT:      -7.4      0.000      0.000
REMARK  Name = 
REMARK  16 active torsions:
REMARK  status: ('A' for Active; 'I' for Inactive)
REMARK    1  A    between atoms: N_10  and  C_11
REMARK    2  A    between atoms: C_14  and  C_16
REMARK    3  A    between atoms: C_16  and  O_17
REMARK    4  A    between atoms: O_17  and  P_18
REMARK    5  A    between atoms: P_18  and  O_19
REMARK    6  A    between atoms: P_18  and  C_21
REMARK    7  A    between atoms: C_21  and  P_22
REMARK    8  A    between atoms: P_22  and  O_23
REMARK    9  A    between atoms: P_22  and  O_25
REMARK   10  A    between atoms: O_25  and  C_26
REMARK   11  A    between atoms: C_26  and  C_27
REMARK   12  A    between atoms: C_30  and  O_32
REMARK   13  A    between atoms: C_33  and  O_35
REMARK   14  A    between atoms: C_36  and  O_38
REMARK   15  A    between atoms: C_39  and  O_41
REMARK   16  A    between atoms: C_42  and  O_44
REMARK                            x       y       z     vdW  Elec       q    Type
REMARK                         _______ _______ _______ _____ _____    ______ ____
ROOT
ATOM      1  O   UNL     1      10.091  -3.178  24.185  0.00  0.00    -0.305 OA
ENDROOT
BRANCH   1   2
ATOM      2  P   UNL     1       8.899  -4.229  24.868  0.00  0.00    +0.342 P 
ATOM      3  O   UNL     1       9.001  -3.457  26.180  0.00  0.00    -0.258 OA
BRANCH   2   4
ATOM      4  O   UNL     1      10.111  -5.336  24.908  0.00  0.00    -0.324 OA
ATOM      5  H   UNL     1      10.706  -5.093  24.159  0.00  0.00    +0.220 HD
ENDBRANCH   2   4
BRANCH   2   6
ATOM      6  C   UNL     1       7.639  -5.343  25.590  0.00  0.00    +0.253 C 
BRANCH   6   7
ATOM      7  P   UNL     1       6.543  -4.389  26.703  0.00  0.00    +0.342 P 
ATOM      8  O   UNL     1       5.219  -5.159  26.793  0.00  0.00    -0.258 OA
BRANCH   7   9
ATOM      9  O   UNL     1       7.086  -5.335  28.047  0.00  0.00    -0.324 OA
ATOM     10  H   UNL     1       7.542  -6.104  27.645  0.00  0.00    +0.220 HD
ENDBRANCH   7   9
BRANCH   7  11
ATOM     11  O   UNL     1       6.002  -3.444  25.360  0.00  0.00    -0.305 OA
BRANCH  11  12
ATOM     12  C   UNL     1       4.800  -3.900  24.734  0.00  0.00    +0.204 C 
BRANCH  12  13
ATOM     13  C   UNL     1       4.964  -4.153  23.236  0.00  0.00    +0.179 C 
ATOM     14  C   UNL     1       5.110  -5.630  22.873  0.00  0.00    +0.179 C 
ATOM     15  C   UNL     1       6.114  -5.629  21.715  0.00  0.00    +0.201 C 
ATOM     16  C   UNL     1       6.412  -4.143  21.472  0.00  0.00    +0.279 C 
ATOM     17  O   UNL     1       6.154  -3.509  22.726  0.00  0.00    -0.341 OA
BRANCH  16  18
ATOM     18  O   UNL     1       5.561  -3.589  20.490  0.00  0.00    -0.365 OA
ATOM     19  H   UNL     1       5.504  -2.640  20.694  0.00  0.00    +0.213 HD
ENDBRANCH  16  18
BRANCH  15  20
ATOM     20  O   UNL     1       7.306  -6.315  22.149  0.00  0.00    -0.384 OA
ATOM     21  H   UNL     1       7.592  -5.884  22.977  0.00  0.00    +0.210 HD
ENDBRANCH  15  20
BRANCH  14  22
ATOM     22  O   UNL     1       3.851  -6.182  22.499  0.00  0.00    -0.386 OA
ATOM     23  H   UNL     1       3.249  -6.058  23.255  0.00  0.00    +0.210 HD
ENDBRANCH  14  22
ENDBRANCH  12  13
ENDBRANCH  11  12
ENDBRANCH   7  11
ENDBRANCH   6   7
ENDBRANCH   2   6
ENDBRANCH   1   2
BRANCH   1  24
ATOM     24  C   UNL     1       9.611  -2.440  23.066  0.00  0.00    +0.204 C 
BRANCH  24  28
ATOM     25  C   UNL     1       9.177   0.524  25.182  0.00  0.00    +0.253 C 
ATOM     26  C   UNL     1       7.743  -0.020  25.139  0.00  0.00    +0.195 C 
ATOM     27  C   UNL     1       7.708  -0.933  23.913  0.00  0.00    +0.178 C 
ATOM     28  C   UNL     1       9.167  -1.034  23.470  0.00  0.00    +0.178 C 
ATOM     29  O   UNL     1       9.966  -0.532  24.560  0.00  0.00    -0.346 OA
BRANCH  25  37
ATOM     30  N   UNL     1       9.734   6.229  23.196  0.00  0.00    -0.341 N 
ATOM     31  H   UNL     1      10.417   5.913  22.517  0.00  0.00    +0.144 HD
ATOM     32  H   UNL     1       9.121   6.990  22.937  0.00  0.00    +0.144 HD
ATOM     33  C   UNL     1       9.058   5.197  23.833  0.00  0.00    +0.147 A 
ATOM     34  C   UNL     1       9.546   3.879  23.898  0.00  0.00    +0.147 A 
ATOM     35  N   UNL     1      10.682   3.289  23.392  0.00  0.00    -0.231 NA
ATOM     36  C   UNL     1      10.622   2.042  23.806  0.00  0.00    +0.203 A 
ATOM     37  N   UNL     1       9.472   1.780  24.517  0.00  0.00    -0.286 N 
ATOM     38  C   UNL     1       8.780   2.960  24.598  0.00  0.00    +0.167 A 
ATOM     39  N   UNL     1       7.618   3.200  25.226  0.00  0.00    -0.216 NA
ATOM     40  C   UNL     1       7.232   4.482  25.068  0.00  0.00    +0.225 A 
ATOM     41  N   UNL     1       7.871   5.476  24.415  0.00  0.00    -0.219 NA
ENDBRANCH  25  37
BRANCH  27  42
ATOM     42  O   UNL     1       6.935  -0.342  22.868  0.00  0.00    -0.386 OA
ATOM     43  H   UNL     1       7.451  -0.395  22.045  0.00  0.00    +0.210 HD
ENDBRANCH  27  42
BRANCH  26  44
ATOM     44  O   UNL     1       7.497  -0.811  26.323  0.00  0.00    -0.385 OA
ATOM     45  H   UNL     1       7.896  -0.353  27.086  0.00  0.00    +0.210 HD
ENDBRANCH  26  44
ENDBRANCH  24  28
ENDBRANCH   1  24
TORSDOF 16
ENDMDL
MODEL 2
REMARK VINA RESULT:      -7.3      3.875      6.577
REMARK  Name = 
REMARK  16 active torsions:
REMARK  status: ('A' for Active; 'I' for Inactive)
REMARK    1  A    between atoms: N_10  and  C_11
REMARK    2  A    between atoms: C_14  and  C_16
REMARK    3  A    between atoms: C_16  and  O_17
REMARK    4  A    between atoms: O_17  and  P_18
REMARK    5  A    between atoms: P_18  and  O_19
REMARK    6  A    between atoms: P_18  and  C_21
REMARK    7  A    between atoms: C_21  and  P_22
REMARK    8  A    between atoms: P_22  and  O_23
REMARK    9  A    between atoms: P_22  and  O_25
REMARK   10  A    between atoms: O_25  and  C_26
REMARK   11  A    between atoms: C_26  and  C_27
REMARK   12  A    between atoms: C_30  and  O_32
REMARK   13  A    between atoms: C_33  and  O_35
REMARK   14  A    between atoms: C_36  and  O_38
REMARK   15  A    between atoms: C_39  and  O_41
REMARK   16  A    between atoms: C_42  and  O_44
REMARK                            x       y       z     vdW  Elec       q    Type
REMARK                         _______ _______ _______ _____ _____    ______ ____
ROOT
ATOM      1  O   UNL     1       8.327   1.533  25.415  0.00  0.00    -0.305 OA
ENDROOT
BRANCH   1   2
ATOM      2  P   UNL     1       6.975   0.695  26.095  0.00  0.00    +0.342 P 
ATOM      3  O   UNL     1       6.044   1.706  25.434  0.00  0.00    -0.258 OA
BRANCH   2   4
ATOM      4  O   UNL     1       7.447   1.383  27.508  0.00  0.00    -0.324 OA
ATOM      5  H   UNL     1       6.609   1.565  27.998  0.00  0.00    +0.220 HD
ENDBRANCH   2   4
BRANCH   2   6
ATOM      6  C   UNL     1       5.546  -0.192  26.816  0.00  0.00    +0.253 C 
BRANCH   6   7
ATOM      7  P   UNL     1       5.335  -1.802  25.972  0.00  0.00    +0.342 P 
ATOM      8  O   UNL     1       3.828  -1.997  25.754  0.00  0.00    -0.258 OA
BRANCH   7   9
ATOM      9  O   UNL     1       5.366  -1.001  24.438  0.00  0.00    -0.324 OA
ATOM     10  H   UNL     1       5.236  -1.715  23.778  0.00  0.00    +0.220 HD
ENDBRANCH   7   9
BRANCH   7  11
ATOM     11  O   UNL     1       5.304  -2.601  27.505  0.00  0.00    -0.305 OA
BRANCH  11  12
ATOM     12  C   UNL     1       4.107  -3.328  27.792  0.00  0.00    +0.204 C 
BRANCH  12  13
ATOM     13  C   UNL     1       4.375  -4.736  28.325  0.00  0.00    +0.179 C 
ATOM     14  C   UNL     1       5.699  -4.867  29.077  0.00  0.00    +0.179 C 
ATOM     15  C   UNL     1       6.201  -6.265  28.699  0.00  0.00    +0.201 C 
ATOM     16  C   UNL     1       5.091  -6.840  27.808  0.00  0.00    +0.279 C 
ATOM     17  O   UNL     1       4.445  -5.696  27.247  0.00  0.00    -0.341 OA
BRANCH  16  18
ATOM     18  O   UNL     1       4.150  -7.584  28.554  0.00  0.00    -0.365 OA
ATOM     19  H   UNL     1       3.405  -6.982  28.714  0.00  0.00    +0.213 HD
ENDBRANCH  16  18
BRANCH  15  20
ATOM     20  O   UNL     1       7.423  -6.117  27.945  0.00  0.00    -0.384 OA
ATOM     21  H   UNL     1       7.211  -6.344  27.020  0.00  0.00    +0.210 HD
ENDBRANCH  15  20
BRANCH  14  22
ATOM     22  O   UNL     1       5.495  -4.726  30.480  0.00  0.00    -0.386 OA
ATOM     23  H   UNL     1       5.820  -5.543  30.899  0.00  0.00    +0.210 HD
ENDBRANCH  14  22
ENDBRANCH  12  13
ENDBRANCH  11  12
ENDBRANCH   7  11
ENDBRANCH   6   7
ENDBRANCH   2   6
ENDBRANCH   1   2
BRANCH   1  24
ATOM     24  C   UNL     1       9.387   0.664  25.028  0.00  0.00    +0.204 C 
BRANCH  24  28
ATOM     25  C   UNL     1       9.451  -2.653  23.463  0.00  0.00    +0.253 C 
ATOM     26  C   UNL     1       9.192  -1.757  22.245  0.00  0.00    +0.195 C 
ATOM     27  C   UNL     1       8.656  -0.448  22.828  0.00  0.00    +0.178 C 
ATOM     28  C   UNL     1       8.857  -0.592  24.336  0.00  0.00    +0.178 C 
ATOM     29  O   UNL     1       9.752  -1.706  24.529  0.00  0.00    -0.346 OA
BRANCH  25  37
ATOM     30  N   UNL     1       4.669  -6.295  24.282  0.00  0.00    -0.341 N 
ATOM     31  H   UNL     1       5.000  -6.498  25.217  0.00  0.00    +0.144 HD
ATOM     32  H   UNL     1       3.671  -6.258  24.126  0.00  0.00    +0.144 HD
ATOM     33  C   UNL     1       5.339  -5.246  23.666  0.00  0.00    +0.147 A 
ATOM     34  C   UNL     1       6.614  -4.805  24.065  0.00  0.00    +0.147 A 
ATOM     35  N   UNL     1       7.459  -5.214  25.072  0.00  0.00    -0.231 NA
ATOM     36  C   UNL     1       8.530  -4.461  24.935  0.00  0.00    +0.203 A 
ATOM     37  N   UNL     1       8.399  -3.546  23.914  0.00  0.00    -0.286 N 
ATOM     38  C   UNL     1       7.178  -3.770  23.335  0.00  0.00    +0.167 A 
ATOM     39  N   UNL     1       6.631  -3.144  22.281  0.00  0.00    -0.216 NA
ATOM     40  C   UNL     1       5.400  -3.624  22.012  0.00  0.00    +0.225 A 
ATOM     41  N   UNL     1       4.732  -4.617  22.636  0.00  0.00    -0.219 NA
ENDBRANCH  25  37
BRANCH  27  42
ATOM     42  O   UNL     1       7.264  -0.305  22.546  0.00  0.00    -0.386 OA
ATOM     43  H   UNL     1       6.864  -1.192  22.552  0.00  0.00    +0.210 HD
ENDBRANCH  27  42
BRANCH  26  44
ATOM     44  O   UNL     1      10.443  -1.495  21.570  0.00  0.00    -0.385 OA
ATOM     45  H   UNL     1      10.905  -0.781  22.047  0.00  0.00    +0.210 HD
ENDBRANCH  26  44
ENDBRANCH  24  28
ENDBRANCH   1  24
TORSDOF 16
ENDMDL
MODEL 3
REMARK VINA RESULT:      -7.2      3.397      6.941
REMARK  Name = 
REMARK  16 active torsions:
REMARK  status: ('A' for Active; 'I' for Inactive)
REMARK    1  A    between atoms: N_10  and  C_11
REMARK    2  A    between atoms: C_14  and  C_16
REMARK    3  A    between atoms: C_16  and  O_17
REMARK    4  A    between atoms: O_17  and  P_18
REMARK    5  A    between atoms: P_18  and  O_19
REMARK    6  A    between atoms: P_18  and  C_21
REMARK    7  A    between atoms: C_21  and  P_22
REMARK    8  A    between atoms: P_22  and  O_23
REMARK    9  A    between atoms: P_22  and  O_25
REMARK   10  A    between atoms: O_25  and  C_26
REMARK   11  A    between atoms: C_26  and  C_27
REMARK   12  A    between atoms: C_30  and  O_32
REMARK   13  A    between atoms: C_33  and  O_35
REMARK   14  A    between atoms: C_36  and  O_38
REMARK   15  A    between atoms: C_39  and  O_41
REMARK   16  A    between atoms: C_42  and  O_44
REMARK                            x       y       z     vdW  Elec       q    Type
REMARK                         _______ _______ _______ _____ _____    ______ ____
ROOT
ATOM      1  O   UNL     1       2.435  -3.394  26.671  0.00  0.00    -0.305 OA
ENDROOT
BRANCH   1   2
ATOM      2  P   UNL     1       3.691  -2.206  26.659  0.00  0.00    +0.342 P 
ATOM      3  O   UNL     1       3.852  -2.391  28.165  0.00  0.00    -0.258 OA
BRANCH   2   4
ATOM      4  O   UNL     1       2.469  -1.127  26.472  0.00  0.00    -0.324 OA
ATOM      5  H   UNL     1       1.850  -1.309  27.218  0.00  0.00    +0.220 HD
ENDBRANCH   2   4
BRANCH   2   6
ATOM      6  C   UNL     1       5.021  -0.948  26.645  0.00  0.00    +0.253 C 
BRANCH   6   7
ATOM      7  P   UNL     1       6.564  -1.695  26.005  0.00  0.00    +0.342 P 
ATOM      8  O   UNL     1       7.692  -1.276  26.957  0.00  0.00    -0.258 OA
BRANCH   7   9
ATOM      9  O   UNL     1       6.324  -3.069  27.030  0.00  0.00    -0.324 OA
ATOM     10  H   UNL     1       7.139  -3.124  27.572  0.00  0.00    +0.220 HD
ENDBRANCH   7   9
BRANCH   7  11
ATOM     11  O   UNL     1       6.803  -0.323  24.980  0.00  0.00    -0.305 OA
BRANCH  11  12
ATOM     12  C   UNL     1       8.101   0.272  25.046  0.00  0.00    +0.204 C 
BRANCH  12  13
ATOM     13  C   UNL     1       8.480   1.026  23.772  0.00  0.00    +0.179 C 
ATOM     14  C   UNL     1       7.817   0.474  22.510  0.00  0.00    +0.179 C 
ATOM     15  C   UNL     1       8.893   0.627  21.430  0.00  0.00    +0.201 C 
ATOM     16  C   UNL     1      10.062   1.311  22.152  0.00  0.00    +0.279 C 
ATOM     17  O   UNL     1       9.902   0.952  23.525  0.00  0.00    -0.341 OA
BRANCH  16  18
ATOM     18  O   UNL     1      10.005   2.718  22.031  0.00  0.00    -0.365 OA
ATOM     19  H   UNL     1       9.651   3.041  22.876  0.00  0.00    +0.213 HD
ENDBRANCH  16  18
BRANCH  15  20
ATOM     20  O   UNL     1       9.279  -0.690  20.987  0.00  0.00    -0.384 OA
ATOM     21  H   UNL     1       9.957  -1.009  21.612  0.00  0.00    +0.210 HD
ENDBRANCH  15  20
BRANCH  14  22
ATOM     22  O   UNL     1       6.633   1.205  22.204  0.00  0.00    -0.386 OA
ATOM     23  H   UNL     1       6.589   1.284  21.234  0.00  0.00    +0.210 HD
ENDBRANCH  14  22
ENDBRANCH  12  13
ENDBRANCH  11  12
ENDBRANCH   7  11
ENDBRANCH   6   7
ENDBRANCH   2   6
ENDBRANCH   1   2
BRANCH   1  24
ATOM     24  C   UNL     1       2.405  -4.190  25.491  0.00  0.00    +0.204 C 
BRANCH  24  28
ATOM     25  C   UNL     1       5.028  -5.218  23.142  0.00  0.00    +0.253 C 
ATOM     26  C   UNL     1       5.093  -6.354  24.172  0.00  0.00    +0.195 C 
ATOM     27  C   UNL     1       4.419  -5.787  25.423  0.00  0.00    +0.178 C 
ATOM     28  C   UNL     1       3.814  -4.461  24.963  0.00  0.00    +0.178 C 
ATOM     29  O   UNL     1       3.832  -4.476  23.521  0.00  0.00    -0.346 OA
BRANCH  25  37
ATOM     30  N   UNL     1      10.282  -2.186  23.229  0.00  0.00    -0.341 N 
ATOM     31  H   UNL     1       9.840  -1.430  22.720  0.00  0.00    +0.144 HD
ATOM     32  H   UNL     1      10.995  -1.952  23.907  0.00  0.00    +0.144 HD
ATOM     33  C   UNL     1       9.390  -3.137  23.707  0.00  0.00    +0.147 A 
ATOM     34  C   UNL     1       8.097  -3.313  23.182  0.00  0.00    +0.147 A 
ATOM     35  N   UNL     1       7.409  -2.663  22.183  0.00  0.00    -0.231 NA
ATOM     36  C   UNL     1       6.255  -3.291  22.109  0.00  0.00    +0.203 A 
ATOM     37  N   UNL     1       6.142  -4.291  23.049  0.00  0.00    -0.286 N 
ATOM     38  C   UNL     1       7.329  -4.327  23.733  0.00  0.00    +0.167 A 
ATOM     39  N   UNL     1       7.694  -5.162  24.719  0.00  0.00    -0.216 NA
ATOM     40  C   UNL     1       8.933  -4.878  25.166  0.00  0.00    +0.225 A 
ATOM     41  N   UNL     1       9.786  -3.928  24.728  0.00  0.00    -0.219 NA
ENDBRANCH  25  37
BRANCH  27  42
ATOM     42  O   UNL     1       5.385  -5.539  26.445  0.00  0.00    -0.386 OA
ATOM     43  H   UNL     1       5.008  -4.887  27.062  0.00  0.00    +0.210 HD
ENDBRANCH  27  42
BRANCH  26  44
ATOM     44  O   UNL     1       4.323  -7.478  23.691  0.00  0.00    -0.385 OA
ATOM     45  H   UNL     1       3.392  -7.200  23.609  0.00  0.00    +0.210 HD
ENDBRANCH  26  44
ENDBRANCH  24  28
ENDBRANCH   1  24
TORSDOF 16
ENDMDL
MODEL 4
REMARK VINA RESULT:      -7.2      1.634      2.797
REMARK  Name = 
REMARK  16 active torsions:
REMARK  status: ('A' for Active; 'I' for Inactive)
REMARK    1  A    between atoms: N_10  and  C_11
REMARK    2  A    between atoms: C_14  and  C_16
REMARK    3  A    between atoms: C_16  and  O_17
REMARK    4  A    between atoms: O_17  and  P_18
REMARK    5  A    between atoms: P_18  and  O_19
REMARK    6  A    between atoms: P_18  and  C_21
REMARK    7  A    between atoms: C_21  and  P_22
REMARK    8  A    between atoms: P_22  and  O_23
REMARK    9  A    between atoms: P_22  and  O_25
REMARK   10  A    between atoms: O_25  and  C_26
REMARK   11  A    between atoms: C_26  and  C_27
REMARK   12  A    between atoms: C_30  and  O_32
REMARK   13  A    between atoms: C_33  and  O_35
REMARK   14  A    between atoms: C_36  and  O_38
REMARK   15  A    between atoms: C_39  and  O_41
REMARK   16  A    between atoms: C_42  and  O_44
REMARK                            x       y       z     vdW  Elec       q    Type
REMARK                         _______ _______ _______ _____ _____    ______ ____
ROOT
ATOM      1  O   UNL     1       6.318  -0.685  25.599  0.00  0.00    -0.305 OA
ENDROOT
BRANCH   1   2
ATOM      2  P   UNL     1       6.428  -2.245  26.338  0.00  0.00    +0.342 P 
ATOM      3  O   UNL     1       5.533  -1.749  27.470  0.00  0.00    -0.258 OA
BRANCH   2   4
ATOM      4  O   UNL     1       7.951  -1.785  26.741  0.00  0.00    -0.324 OA
ATOM      5  H   UNL     1       7.987  -0.818  26.546  0.00  0.00    +0.220 HD
ENDBRANCH   2   4
BRANCH   2   6
ATOM      6  C   UNL     1       6.546  -3.896  27.120  0.00  0.00    +0.253 C 
BRANCH   6   7
ATOM      7  P   UNL     1       7.797  -4.902  26.241  0.00  0.00    +0.342 P 
ATOM      8  O   UNL     1       9.173  -4.403  26.700  0.00  0.00    -0.258 OA
BRANCH   7   9
ATOM      9  O   UNL     1       7.847  -6.003  27.576  0.00  0.00    -0.324 OA
ATOM     10  H   UNL     1       6.930  -6.341  27.658  0.00  0.00    +0.220 HD
ENDBRANCH   7   9
BRANCH   7  11
ATOM     11  O   UNL     1       7.746  -3.802  24.908  0.00  0.00    -0.305 OA
BRANCH  11  12
ATOM     12  C   UNL     1       8.257  -4.311  23.674  0.00  0.00    +0.204 C 
BRANCH  12  13
ATOM     13  C   UNL     1       7.161  -4.625  22.657  0.00  0.00    +0.179 C 
ATOM     14  C   UNL     1       5.771  -4.776  23.276  0.00  0.00    +0.179 C 
ATOM     15  C   UNL     1       5.120  -5.894  22.455  0.00  0.00    +0.201 C 
ATOM     16  C   UNL     1       6.172  -6.249  21.395  0.00  0.00    +0.279 C 
ATOM     17  O   UNL     1       7.420  -5.876  21.980  0.00  0.00    -0.341 OA
BRANCH  16  18
ATOM     18  O   UNL     1       5.983  -5.518  20.201  0.00  0.00    -0.365 OA
ATOM     19  H   UNL     1       6.719  -4.885  20.159  0.00  0.00    +0.213 HD
ENDBRANCH  16  18
BRANCH  15  20
ATOM     20  O   UNL     1       4.889  -7.019  23.328  0.00  0.00    -0.384 OA
ATOM     21  H   UNL     1       4.186  -7.555  22.916  0.00  0.00    +0.210 HD
ENDBRANCH  15  20
BRANCH  14  22
ATOM     22  O   UNL     1       5.049  -3.551  23.191  0.00  0.00    -0.386 OA
ATOM     23  H   UNL     1       5.671  -2.836  23.418  0.00  0.00    +0.210 HD
ENDBRANCH  14  22
ENDBRANCH  12  13
ENDBRANCH  11  12
ENDBRANCH   7  11
ENDBRANCH   6   7
ENDBRANCH   2   6
ENDBRANCH   1   2
BRANCH   1  24
ATOM     24  C   UNL     1       6.524  -0.718  24.191  0.00  0.00    +0.204 C 
BRANCH  24  28
ATOM     25  C   UNL     1       8.788   1.171  22.009  0.00  0.00    +0.253 C 
ATOM     26  C   UNL     1       9.623  -0.087  22.282  0.00  0.00    +0.195 C 
ATOM     27  C   UNL     1       9.012  -0.694  23.546  0.00  0.00    +0.178 C 
ATOM     28  C   UNL     1       7.738   0.116  23.783  0.00  0.00    +0.178 C 
ATOM     29  O   UNL     1       7.481   0.846  22.566  0.00  0.00    -0.346 OA
BRANCH  25  37
ATOM     30  N   UNL     1       9.521   6.699  24.399  0.00  0.00    -0.341 N 
ATOM     31  H   UNL     1      10.519   6.532  24.445  0.00  0.00    +0.144 HD
ATOM     32  H   UNL     1       9.201   7.639  24.211  0.00  0.00    +0.144 HD
ATOM     33  C   UNL     1       8.828   5.747  23.663  0.00  0.00    +0.147 A 
ATOM     34  C   UNL     1       9.334   4.462  23.393  0.00  0.00    +0.147 A 
ATOM     35  N   UNL     1      10.525   3.852  23.715  0.00  0.00    -0.231 NA
ATOM     36  C   UNL     1      10.417   2.634  23.229  0.00  0.00    +0.203 A 
ATOM     37  N   UNL     1       9.229   2.439  22.561  0.00  0.00    -0.286 N 
ATOM     38  C   UNL     1       8.515   3.603  22.676  0.00  0.00    +0.167 A 
ATOM     39  N   UNL     1       7.283   3.871  22.213  0.00  0.00    -0.216 NA
ATOM     40  C   UNL     1       6.919   5.137  22.499  0.00  0.00    +0.225 A 
ATOM     41  N   UNL     1       7.609   6.075  23.181  0.00  0.00    -0.219 NA
ENDBRANCH  25  37
BRANCH  27  42
ATOM     42  O   UNL     1       9.893  -0.530  24.658  0.00  0.00    -0.386 OA
ATOM     43  H   UNL     1      10.605   0.077  24.390  0.00  0.00    +0.210 HD
ENDBRANCH  27  42
BRANCH  26  44
ATOM     44  O   UNL     1       9.460  -1.015  21.186  0.00  0.00    -0.385 OA
ATOM     45  H   UNL     1       8.531  -1.311  21.171  0.00  0.00    +0.210 HD
ENDBRANCH  26  44
ENDBRANCH  24  28
ENDBRANCH   1  24
TORSDOF 16
ENDMDL
MODEL 5
REMARK VINA RESULT:      -7.2      2.445      4.637
REMARK  Name = 
REMARK  16 active torsions:
REMARK  status: ('A' for Active; 'I' for Inactive)
REMARK    1  A    between atoms: N_10  and  C_11
REMARK    2  A    between atoms: C_14  and  C_16
REMARK    3  A    between atoms: C_16  and  O_17
REMARK    4  A    between atoms: O_17  and  P_18
REMARK    5  A    between atoms: P_18  and  O_19
REMARK    6  A    between atoms: P_18  and  C_21
REMARK    7  A    between atoms: C_21  and  P_22
REMARK    8  A    between atoms: P_22  and  O_23
REMARK    9  A    between atoms: P_22  and  O_25
REMARK   10  A    between atoms: O_25  and  C_26
REMARK   11  A    between atoms: C_26  and  C_27
REMARK   12  A    between atoms: C_30  and  O_32
REMARK   13  A    between atoms: C_33  and  O_35
REMARK   14  A    between atoms: C_36  and  O_38
REMARK   15  A    between atoms: C_39  and  O_41
REMARK   16  A    between atoms: C_42  and  O_44
REMARK                            x       y       z     vdW  Elec       q    Type
REMARK                         _______ _______ _______ _____ _____    ______ ____
ROOT
ATOM      1  O   UNL     1       3.573  -2.242  25.612  0.00  0.00    -0.305 OA
ENDROOT
BRANCH   1   2
ATOM      2  P   UNL     1       3.179  -3.828  25.044  0.00  0.00    +0.342 P 
ATOM      3  O   UNL     1       1.699  -3.481  25.169  0.00  0.00    -0.258 OA
BRANCH   2   4
ATOM      4  O   UNL     1       3.649  -4.320  26.537  0.00  0.00    -0.324 OA
ATOM      5  H   UNL     1       2.811  -4.432  27.046  0.00  0.00    +0.220 HD
ENDBRANCH   2   4
BRANCH   2   6
ATOM      6  C   UNL     1       2.764  -5.505  24.442  0.00  0.00    +0.253 C 
BRANCH   6   7
ATOM      7  P   UNL     1       4.302  -6.467  24.196  0.00  0.00    +0.342 P 
ATOM      8  O   UNL     1       4.747  -6.958  25.580  0.00  0.00    -0.258 OA
BRANCH   7   9
ATOM      9  O   UNL     1       3.372  -7.921  24.074  0.00  0.00    -0.324 OA
ATOM     10  H   UNL     1       3.211  -8.196  25.001  0.00  0.00    +0.220 HD
ENDBRANCH   7   9
BRANCH   7  11
ATOM     11  O   UNL     1       5.230  -5.013  24.318  0.00  0.00    -0.305 OA
BRANCH  11  12
ATOM     12  C   UNL     1       6.478  -5.023  23.621  0.00  0.00    +0.204 C 
BRANCH  12  13
ATOM     13  C   UNL     1       7.679  -5.216  24.546  0.00  0.00    +0.179 C 
ATOM     14  C   UNL     1       7.429  -4.760  25.983  0.00  0.00    +0.179 C 
ATOM     15  C   UNL     1       8.770  -4.162  26.420  0.00  0.00    +0.201 C 
ATOM     16  C   UNL     1       9.694  -4.380  25.214  0.00  0.00    +0.279 C 
ATOM     17  O   UNL     1       8.817  -4.450  24.089  0.00  0.00    -0.341 OA
BRANCH  16  18
ATOM     18  O   UNL     1      10.414  -5.592  25.316  0.00  0.00    -0.365 OA
ATOM     19  H   UNL     1      10.046  -6.054  26.087  0.00  0.00    +0.213 HD
ENDBRANCH  16  18
BRANCH  15  20
ATOM     20  O   UNL     1       8.580  -2.751  26.656  0.00  0.00    -0.384 OA
ATOM     21  H   UNL     1       8.201  -2.378  25.837  0.00  0.00    +0.210 HD
ENDBRANCH  15  20
BRANCH  14  22
ATOM     22  O   UNL     1       7.035  -5.860  26.797  0.00  0.00    -0.386 OA
ATOM     23  H   UNL     1       6.061  -5.873  26.810  0.00  0.00    +0.210 HD
ENDBRANCH  14  22
ENDBRANCH  12  13
ENDBRANCH  11  12
ENDBRANCH   7  11
ENDBRANCH   6   7
ENDBRANCH   2   6
ENDBRANCH   1   2
BRANCH   1  24
ATOM     24  C   UNL     1       4.861  -2.168  26.215  0.00  0.00    +0.204 C 
BRANCH  24  28
ATOM     25  C   UNL     1       7.066   0.685  26.888  0.00  0.00    +0.253 C 
ATOM     26  C   UNL     1       5.719   1.230  27.382  0.00  0.00    +0.195 C 
ATOM     27  C   UNL     1       4.669   0.349  26.705  0.00  0.00    +0.178 C 
ATOM     28  C   UNL     1       5.474  -0.776  26.057  0.00  0.00    +0.178 C 
ATOM     29  O   UNL     1       6.795  -0.723  26.633  0.00  0.00    -0.346 OA
BRANCH  25  37
ATOM     30  N   UNL     1       9.882   2.056  21.693  0.00  0.00    -0.341 N 
ATOM     31  H   UNL     1       9.563   3.013  21.788  0.00  0.00    +0.144 HD
ATOM     32  H   UNL     1      10.787   1.894  21.272  0.00  0.00    +0.144 HD
ATOM     33  C   UNL     1       9.681   1.284  22.829  0.00  0.00    +0.147 A 
ATOM     34  C   UNL     1       8.748   1.612  23.830  0.00  0.00    +0.147 A 
ATOM     35  N   UNL     1       7.884   2.674  23.974  0.00  0.00    -0.231 NA
ATOM     36  C   UNL     1       7.230   2.423  25.088  0.00  0.00    +0.203 A 
ATOM     37  N   UNL     1       7.666   1.269  25.702  0.00  0.00    -0.286 N 
ATOM     38  C   UNL     1       8.630   0.729  24.891  0.00  0.00    +0.167 A 
ATOM     39  N   UNL     1       9.314  -0.413  25.063  0.00  0.00    -0.216 NA
ATOM     40  C   UNL     1      10.200  -0.606  24.065  0.00  0.00    +0.225 A 
ATOM     41  N   UNL     1      10.423   0.165  22.980  0.00  0.00    -0.219 NA
ENDBRANCH  25  37
BRANCH  27  42
ATOM     42  O   UNL     1       3.975   1.080  25.694  0.00  0.00    -0.386 OA
ATOM     43  H   UNL     1       3.484   1.800  26.128  0.00  0.00    +0.210 HD
ENDBRANCH  27  42
BRANCH  26  44
ATOM     44  O   UNL     1       5.630   1.056  28.814  0.00  0.00    -0.385 OA
ATOM     45  H   UNL     1       6.443   0.613  29.120  0.00  0.00    +0.210 HD
ENDBRANCH  26  44
ENDBRANCH  24  28
ENDBRANCH   1  24
TORSDOF 16
ENDMDL
MODEL 6
REMARK VINA RESULT:      -7.2      4.236      7.343
REMARK  Name = 
REMARK  16 active torsions:
REMARK  status: ('A' for Active; 'I' for Inactive)
REMARK    1  A    between atoms: N_10  and  C_11
REMARK    2  A    between atoms: C_14  and  C_16
REMARK    3  A    between atoms: C_16  and  O_17
REMARK    4  A    between atoms: O_17  and  P_18
REMARK    5  A    between atoms: P_18  and  O_19
REMARK    6  A    between atoms: P_18  and  C_21
REMARK    7  A    between atoms: C_21  and  P_22
REMARK    8  A    between atoms: P_22  and  O_23
REMARK    9  A    between atoms: P_22  and  O_25
REMARK   10  A    between atoms: O_25  and  C_26
REMARK   11  A    between atoms: C_26  and  C_27
REMARK   12  A    between atoms: C_30  and  O_32
REMARK   13  A    between atoms: C_33  and  O_35
REMARK   14  A    between atoms: C_36  and  O_38
REMARK   15  A    between atoms: C_39  and  O_41
REMARK   16  A    between atoms: C_42  and  O_44
REMARK                            x       y       z     vdW  Elec       q    Type
REMARK                         _______ _______ _______ _____ _____    ______ ____
ROOT
ATOM      1  O   UNL     1       9.571  -2.130  24.278  0.00  0.00    -0.305 OA
ENDROOT
BRANCH   1   2
ATOM      2  P   UNL     1       8.405  -1.472  25.373  0.00  0.00    +0.342 P 
ATOM      3  O   UNL     1       9.450  -0.466  25.847  0.00  0.00    -0.258 OA
BRANCH   2   4
ATOM      4  O   UNL     1       8.672  -2.835  26.246  0.00  0.00    -0.324 OA
ATOM      5  H   UNL     1       8.362  -3.574  25.670  0.00  0.00    +0.220 HD
ENDBRANCH   2   4
BRANCH   2   6
ATOM      6  C   UNL     1       7.171  -0.777  26.532  0.00  0.00    +0.253 C 
BRANCH   6   7
ATOM      7  P   UNL     1       5.756  -0.102  25.588  0.00  0.00    +0.342 P 
ATOM      8  O   UNL     1       4.979  -1.302  25.029  0.00  0.00    -0.258 OA
BRANCH   7   9
ATOM      9  O   UNL     1       4.759  -0.222  26.998  0.00  0.00    -0.324 OA
ATOM     10  H   UNL     1       4.737   0.685  27.369  0.00  0.00    +0.220 HD
ENDBRANCH   7   9
BRANCH   7  11
ATOM     11  O   UNL     1       6.752   0.018  24.179  0.00  0.00    -0.305 OA
BRANCH  11  12
ATOM     12  C   UNL     1       6.533   1.176  23.371  0.00  0.00    +0.204 C 
BRANCH  12  13
ATOM     13  C   UNL     1       7.823   1.923  23.034  0.00  0.00    +0.179 C 
ATOM     14  C   UNL     1       8.836   1.082  22.257  0.00  0.00    +0.179 C 
ATOM     15  C   UNL     1      10.192   1.532  22.810  0.00  0.00    +0.201 C 
ATOM     16  C   UNL     1       9.844   2.639  23.816  0.00  0.00    +0.279 C 
ATOM     17  O   UNL     1       8.510   2.345  24.234  0.00  0.00    -0.341 OA
BRANCH  16  18
ATOM     18  O   UNL     1       9.872   3.919  23.220  0.00  0.00    -0.365 OA
ATOM     19  H   UNL     1       9.034   4.003  22.734  0.00  0.00    +0.213 HD
ENDBRANCH  16  18
BRANCH  15  20
ATOM     20  O   UNL     1      10.799   0.412  23.487  0.00  0.00    -0.384 OA
ATOM     21  H   UNL     1      10.473  -0.394  23.044  0.00  0.00    +0.210 HD
ENDBRANCH  15  20
BRANCH  14  22
ATOM     22  O   UNL     1       8.716   1.317  20.857  0.00  0.00    -0.386 OA
ATOM     23  H   UNL     1       9.368   2.003  20.626  0.00  0.00    +0.210 HD
ENDBRANCH  14  22
ENDBRANCH  12  13
ENDBRANCH  11  12
ENDBRANCH   7  11
ENDBRANCH   6   7
ENDBRANCH   2   6
ENDBRANCH   1   2
BRANCH   1  24
ATOM     24  C   UNL     1       8.992  -2.629  23.077  0.00  0.00    +0.204 C 
BRANCH  24  28
ATOM     25  C   UNL     1       6.505  -5.299  23.448  0.00  0.00    +0.253 C 
ATOM     26  C   UNL     1       6.048  -4.651  22.134  0.00  0.00    +0.195 C 
ATOM     27  C   UNL     1       6.680  -3.258  22.145  0.00  0.00    +0.178 C 
ATOM     28  C   UNL     1       7.634  -3.281  23.338  0.00  0.00    +0.178 C 
ATOM     29  O   UNL     1       7.787  -4.663  23.718  0.00  0.00    -0.346 OA
BRANCH  25  37
ATOM     30  N   UNL     1       3.965  -4.615  28.915  0.00  0.00    -0.341 N 
ATOM     31  H   UNL     1       3.051  -4.646  28.480  0.00  0.00    +0.144 HD
ATOM     32  H   UNL     1       4.069  -5.013  29.838  0.00  0.00    +0.144 HD
ATOM     33  C   UNL     1       5.003  -4.974  28.064  0.00  0.00    +0.147 A 
ATOM     34  C   UNL     1       4.896  -4.942  26.662  0.00  0.00    +0.147 A 
ATOM     35  N   UNL     1       3.858  -4.611  25.822  0.00  0.00    -0.231 NA
ATOM     36  C   UNL     1       4.358  -4.729  24.610  0.00  0.00    +0.203 A 
ATOM     37  N   UNL     1       5.663  -5.171  24.624  0.00  0.00    -0.286 N 
ATOM     38  C   UNL     1       6.025  -5.294  25.939  0.00  0.00    +0.167 A 
ATOM     39  N   UNL     1       7.215  -5.662  26.441  0.00  0.00    -0.216 NA
ATOM     40  C   UNL     1       7.189  -5.690  27.788  0.00  0.00    +0.225 A 
ATOM     41  N   UNL     1       6.168  -5.378  28.615  0.00  0.00    -0.219 NA
ENDBRANCH  25  37
BRANCH  27  42
ATOM     42  O   UNL     1       5.684  -2.256  22.352  0.00  0.00    -0.386 OA
ATOM     43  H   UNL     1       5.284  -2.048  21.490  0.00  0.00    +0.210 HD
ENDBRANCH  27  42
BRANCH  26  44
ATOM     44  O   UNL     1       6.580  -5.402  21.021  0.00  0.00    -0.385 OA
ATOM     45  H   UNL     1       6.002  -5.259  20.249  0.00  0.00    +0.210 HD
ENDBRANCH  26  44
ENDBRANCH  24  28
ENDBRANCH   1  24
TORSDOF 16
ENDMDL
MODEL 7
REMARK VINA RESULT:      -7.2      3.523      7.091
REMARK  Name = 
REMARK  16 active torsions:
REMARK  status: ('A' for Active; 'I' for Inactive)
REMARK    1  A    between atoms: N_10  and  C_11
REMARK    2  A    between atoms: C_14  and  C_16
REMARK    3  A    between atoms: C_16  and  O_17
REMARK    4  A    between atoms: O_17  and  P_18
REMARK    5  A    between atoms: P_18  and  O_19
REMARK    6  A    between atoms: P_18  and  C_21
REMARK    7  A    between atoms: C_21  and  P_22
REMARK    8  A    between atoms: P_22  and  O_23
REMARK    9  A    between atoms: P_22  and  O_25
REMARK   10  A    between atoms: O_25  and  C_26
REMARK   11  A    between atoms: C_26  and  C_27
REMARK   12  A    between atoms: C_30  and  O_32
REMARK   13  A    between atoms: C_33  and  O_35
REMARK   14  A    between atoms: C_36  and  O_38
REMARK   15  A    between atoms: C_39  and  O_41
REMARK   16  A    between atoms: C_42  and  O_44
REMARK                            x       y       z     vdW  Elec       q    Type
REMARK                         _______ _______ _______ _____ _____    ______ ____
ROOT
ATOM      1  O   UNL     1       3.010  -2.140  26.097  0.00  0.00    -0.305 OA
ENDROOT
BRANCH   1   2
ATOM      2  P   UNL     1       4.312  -1.201  26.739  0.00  0.00    +0.342 P 
ATOM      3  O   UNL     1       3.397   0.020  26.751  0.00  0.00    -0.258 OA
BRANCH   2   4
ATOM      4  O   UNL     1       4.927  -1.282  25.220  0.00  0.00    -0.324 OA
ATOM      5  H   UNL     1       5.476  -0.468  25.121  0.00  0.00    +0.220 HD
ENDBRANCH   2   4
BRANCH   2   6
ATOM      6  C   UNL     1       5.691  -0.208  27.419  0.00  0.00    +0.253 C 
BRANCH   6   7
ATOM      7  P   UNL     1       7.216  -0.540  26.464  0.00  0.00    +0.342 P 
ATOM      8  O   UNL     1       8.391  -0.426  27.444  0.00  0.00    -0.258 OA
BRANCH   7   9
ATOM      9  O   UNL     1       7.124  -2.212  26.901  0.00  0.00    -0.324 OA
ATOM     10  H   UNL     1       7.898  -2.363  27.484  0.00  0.00    +0.220 HD
ENDBRANCH   7   9
BRANCH   7  11
ATOM     11  O   UNL     1       7.306   1.131  26.026  0.00  0.00    -0.305 OA
BRANCH  11  12
ATOM     12  C   UNL     1       7.147   1.409  24.633  0.00  0.00    +0.204 C 
BRANCH  12  13
ATOM     13  C   UNL     1       8.371   1.021  23.803  0.00  0.00    +0.179 C 
ATOM     14  C   UNL     1       9.682   1.601  24.331  0.00  0.00    +0.179 C 
ATOM     15  C   UNL     1      10.479   1.929  23.063  0.00  0.00    +0.201 C 
ATOM     16  C   UNL     1       9.578   1.452  21.915  0.00  0.00    +0.279 C 
ATOM     17  O   UNL     1       8.253   1.504  22.445  0.00  0.00    -0.341 OA
BRANCH  16  18
ATOM     18  O   UNL     1       9.872   0.125  21.532  0.00  0.00    -0.365 OA
ATOM     19  H   UNL     1       9.090  -0.190  21.050  0.00  0.00    +0.213 HD
ENDBRANCH  16  18
BRANCH  15  20
ATOM     20  O   UNL     1      10.657   3.359  23.000  0.00  0.00    -0.384 OA
ATOM     21  H   UNL     1      10.485   3.623  22.076  0.00  0.00    +0.210 HD
ENDBRANCH  15  20
BRANCH  14  22
ATOM     22  O   UNL     1      10.350   0.656  25.162  0.00  0.00    -0.386 OA
ATOM     23  H   UNL     1      11.282   0.934  25.218  0.00  0.00    +0.210 HD
ENDBRANCH  14  22
ENDBRANCH  12  13
ENDBRANCH  11  12
ENDBRANCH   7  11
ENDBRANCH   6   7
ENDBRANCH   2   6
ENDBRANCH   1   2
BRANCH   1  24
ATOM     24  C   UNL     1       3.019  -3.491  26.547  0.00  0.00    +0.204 C 
BRANCH  24  28
ATOM     25  C   UNL     1       5.620  -5.738  25.266  0.00  0.00    +0.253 C 
ATOM     26  C   UNL     1       5.413  -6.301  26.678  0.00  0.00    +0.195 C 
ATOM     27  C   UNL     1       4.742  -5.168  27.456  0.00  0.00    +0.178 C 
ATOM     28  C   UNL     1       4.402  -4.124  26.394  0.00  0.00    +0.178 C 
ATOM     29  O   UNL     1       4.535  -4.776  25.115  0.00  0.00    -0.346 OA
BRANCH  25  37
ATOM     30  N   UNL     1      10.203  -2.178  23.498  0.00  0.00    -0.341 N 
ATOM     31  H   UNL     1      10.851  -2.806  23.958  0.00  0.00    +0.144 HD
ATOM     32  H   UNL     1      10.504  -1.719  22.649  0.00  0.00    +0.144 HD
ATOM     33  C   UNL     1       8.912  -2.679  23.400  0.00  0.00    +0.147 A 
ATOM     34  C   UNL     1       8.420  -3.710  24.221  0.00  0.00    +0.147 A 
ATOM     35  N   UNL     1       9.005  -4.450  25.224  0.00  0.00    -0.231 NA
ATOM     36  C   UNL     1       8.045  -5.239  25.659  0.00  0.00    +0.203 A 
ATOM     37  N   UNL     1       6.875  -5.079  24.950  0.00  0.00    -0.286 N 
ATOM     38  C   UNL     1       7.099  -4.085  24.035  0.00  0.00    +0.167 A 
ATOM     39  N   UNL     1       6.236  -3.562  23.148  0.00  0.00    -0.216 NA
ATOM     40  C   UNL     1       6.825  -2.612  22.395  0.00  0.00    +0.225 A 
ATOM     41  N   UNL     1       8.092  -2.152  22.464  0.00  0.00    -0.219 NA
ENDBRANCH  25  37
BRANCH  27  42
ATOM     42  O   UNL     1       5.649  -4.604  28.404  0.00  0.00    -0.386 OA
ATOM     43  H   UNL     1       5.264  -3.771  28.729  0.00  0.00    +0.210 HD
ENDBRANCH  27  42
BRANCH  26  44
ATOM     44  O   UNL     1       4.511  -7.428  26.615  0.00  0.00    -0.385 OA
ATOM     45  H   UNL     1       5.006  -8.199  26.281  0.00  0.00    +0.210 HD
ENDBRANCH  26  44
ENDBRANCH  24  28
ENDBRANCH   1  24
TORSDOF 16
ENDMDL
MODEL 8
REMARK VINA RESULT:      -7.2      4.417      7.560
REMARK  Name = 
REMARK  16 active torsions:
REMARK  status: ('A' for Active; 'I' for Inactive)
REMARK    1  A    between atoms: N_10  and  C_11
REMARK    2  A    between atoms: C_14  and  C_16
REMARK    3  A    between atoms: C_16  and  O_17
REMARK    4  A    between atoms: O_17  and  P_18
REMARK    5  A    between atoms: P_18  and  O_19
REMARK    6  A    between atoms: P_18  and  C_21
REMARK    7  A    between atoms: C_21  and  P_22
REMARK    8  A    between atoms: P_22  and  O_23
REMARK    9  A    between atoms: P_22  and  O_25
REMARK   10  A    between atoms: O_25  and  C_26
REMARK   11  A    between atoms: C_26  and  C_27
REMARK   12  A    between atoms: C_30  and  O_32
REMARK   13  A    between atoms: C_33  and  O_35
REMARK   14  A    between atoms: C_36  and  O_38
REMARK   15  A    between atoms: C_39  and  O_41
REMARK   16  A    between atoms: C_42  and  O_44
REMARK                            x       y       z     vdW  Elec       q    Type
REMARK                         _______ _______ _______ _____ _____    ______ ____
ROOT
ATOM      1  O   UNL     1       8.479  -2.326  22.248  0.00  0.00    -0.305 OA
ENDROOT
BRANCH   1   2
ATOM      2  P   UNL     1       9.496  -1.013  22.729  0.00  0.00    +0.342 P 
ATOM      3  O   UNL     1       8.538  -0.046  22.039  0.00  0.00    -0.258 OA
BRANCH   2   4
ATOM      4  O   UNL     1      10.504  -1.555  21.552  0.00  0.00    -0.324 OA
ATOM      5  H   UNL     1      11.399  -1.569  21.967  0.00  0.00    +0.220 HD
ENDBRANCH   2   4
BRANCH   2   6
ATOM      6  C   UNL     1      10.573   0.376  23.238  0.00  0.00    +0.253 C 
BRANCH   6   7
ATOM      7  P   UNL     1       9.612   1.933  23.228  0.00  0.00    +0.342 P 
ATOM      8  O   UNL     1      10.591   3.065  23.568  0.00  0.00    -0.258 OA
BRANCH   7   9
ATOM      9  O   UNL     1      10.033   2.182  21.568  0.00  0.00    -0.324 OA
ATOM     10  H   UNL     1       9.467   2.927  21.274  0.00  0.00    +0.220 HD
ENDBRANCH   7   9
BRANCH   7  11
ATOM     11  O   UNL     1       9.191   1.684  24.887  0.00  0.00    -0.305 OA
BRANCH  11  12
ATOM     12  C   UNL     1       7.791   1.595  25.157  0.00  0.00    +0.204 C 
BRANCH  12  13
ATOM     13  C   UNL     1       7.306   0.156  25.338  0.00  0.00    +0.179 C 
ATOM     14  C   UNL     1       5.937  -0.115  24.716  0.00  0.00    +0.179 C 
ATOM     15  C   UNL     1       5.273  -1.089  25.695  0.00  0.00    +0.201 C 
ATOM     16  C   UNL     1       6.343  -1.340  26.767  0.00  0.00    +0.279 C 
ATOM     17  O   UNL     1       7.167  -0.174  26.739  0.00  0.00    -0.341 OA
BRANCH  16  18
ATOM     18  O   UNL     1       7.132  -2.473  26.467  0.00  0.00    -0.365 OA
ATOM     19  H   UNL     1       6.537  -3.098  26.021  0.00  0.00    +0.213 HD
ENDBRANCH  16  18
BRANCH  15  20
ATOM     20  O   UNL     1       4.126  -0.433  26.276  0.00  0.00    -0.384 OA
ATOM     21  H   UNL     1       3.343  -0.757  25.792  0.00  0.00    +0.210 HD
ENDBRANCH  15  20
BRANCH  14  22
ATOM     22  O   UNL     1       6.080  -0.671  23.412  0.00  0.00    -0.386 OA
ATOM     23  H   UNL     1       6.086  -1.640  23.514  0.00  0.00    +0.210 HD
ENDBRANCH  14  22
ENDBRANCH  12  13
ENDBRANCH  11  12
ENDBRANCH   7  11
ENDBRANCH   6   7
ENDBRANCH   2   6
ENDBRANCH   1   2
BRANCH   1  24
ATOM     24  C   UNL     1       8.388  -3.352  23.231  0.00  0.00    +0.204 C 
BRANCH  24  28
ATOM     25  C   UNL     1       5.599  -5.588  24.055  0.00  0.00    +0.253 C 
ATOM     26  C   UNL     1       5.454  -5.485  22.531  0.00  0.00    +0.195 C 
ATOM     27  C   UNL     1       6.221  -4.218  22.150  0.00  0.00    +0.178 C 
ATOM     28  C   UNL     1       6.942  -3.808  23.433  0.00  0.00    +0.178 C 
ATOM     29  O   UNL     1       6.875  -4.939  24.325  0.00  0.00    -0.346 OA
BRANCH  25  37
ATOM     30  N   UNL     1       2.206  -2.902  28.307  0.00  0.00    -0.341 N 
ATOM     31  H   UNL     1       1.412  -2.937  27.677  0.00  0.00    +0.144 HD
ATOM     32  H   UNL     1       2.034  -3.007  29.297  0.00  0.00    +0.144 HD
ATOM     33  C   UNL     1       3.295  -3.648  27.877  0.00  0.00    +0.147 A 
ATOM     34  C   UNL     1       3.484  -4.035  26.537  0.00  0.00    +0.147 A 
ATOM     35  N   UNL     1       2.730  -3.837  25.403  0.00  0.00    -0.231 NA
ATOM     36  C   UNL     1       3.429  -4.392  24.436  0.00  0.00    +0.203 A 
ATOM     37  N   UNL     1       4.582  -4.987  24.899  0.00  0.00    -0.286 N 
ATOM     38  C   UNL     1       4.637  -4.748  26.247  0.00  0.00    +0.167 A 
ATOM     39  N   UNL     1       5.597  -5.106  27.115  0.00  0.00    -0.216 NA
ATOM     40  C   UNL     1       5.293  -4.714  28.368  0.00  0.00    +0.225 A 
ATOM     41  N   UNL     1       4.214  -4.022  28.793  0.00  0.00    -0.219 NA
ENDBRANCH  25  37
BRANCH  27  42
ATOM     42  O   UNL     1       5.320  -3.182  21.760  0.00  0.00    -0.386 OA
ATOM     43  H   UNL     1       5.511  -2.951  20.834  0.00  0.00    +0.210 HD
ENDBRANCH  27  42
BRANCH  26  44
ATOM     44  O   UNL     1       6.089  -6.626  21.913  0.00  0.00    -0.385 OA
ATOM     45  H   UNL     1       5.623  -6.822  21.079  0.00  0.00    +0.210 HD
ENDBRANCH  26  44
ENDBRANCH  24  28
ENDBRANCH   1  24
TORSDOF 16
ENDMDL
MODEL 9
REMARK VINA RESULT:      -7.1      1.593      2.591
REMARK  Name = 
REMARK  16 active torsions:
REMARK  status: ('A' for Active; 'I' for Inactive)
REMARK    1  A    between atoms: N_10  and  C_11
REMARK    2  A    between atoms: C_14  and  C_16
REMARK    3  A    between atoms: C_16  and  O_17
REMARK    4  A    between atoms: O_17  and  P_18
REMARK    5  A    between atoms: P_18  and  O_19
REMARK    6  A    between atoms: P_18  and  C_21
REMARK    7  A    between atoms: C_21  and  P_22
REMARK    8  A    between atoms: P_22  and  O_23
REMARK    9  A    between atoms: P_22  and  O_25
REMARK   10  A    between atoms: O_25  and  C_26
REMARK   11  A    between atoms: C_26  and  C_27
REMARK   12  A    between atoms: C_30  and  O_32
REMARK   13  A    between atoms: C_33  and  O_35
REMARK   14  A    between atoms: C_36  and  O_38
REMARK   15  A    between atoms: C_39  and  O_41
REMARK   16  A    between atoms: C_42  and  O_44
REMARK                            x       y       z     vdW  Elec       q    Type
REMARK                         _______ _______ _______ _____ _____    ______ ____
ROOT
ATOM      1  O   UNL     1       9.002  -2.613  25.907  0.00  0.00    -0.305 OA
ENDROOT
BRANCH   1   2
ATOM      2  P   UNL     1       8.316  -4.092  26.484  0.00  0.00    +0.342 P 
ATOM      3  O   UNL     1       9.056  -4.842  25.380  0.00  0.00    -0.258 OA
BRANCH   2   4
ATOM      4  O   UNL     1       6.929  -3.546  25.799  0.00  0.00    -0.324 OA
ATOM      5  H   UNL     1       6.206  -4.047  26.247  0.00  0.00    +0.220 HD
ENDBRANCH   2   4
BRANCH   2   6
ATOM      6  C   UNL     1       7.590  -5.656  27.097  0.00  0.00    +0.253 C 
BRANCH   6   7
ATOM      7  P   UNL     1       5.780  -5.641  26.822  0.00  0.00    +0.342 P 
ATOM      8  O   UNL     1       5.241  -6.987  27.324  0.00  0.00    -0.258 OA
BRANCH   7   9
ATOM      9  O   UNL     1       5.542  -5.043  28.428  0.00  0.00    -0.324 OA
ATOM     10  H   UNL     1       5.230  -5.817  28.942  0.00  0.00    +0.220 HD
ENDBRANCH   7   9
BRANCH   7  11
ATOM     11  O   UNL     1       6.019  -6.238  25.217  0.00  0.00    -0.305 OA
BRANCH  11  12
ATOM     12  C   UNL     1       4.958  -5.968  24.298  0.00  0.00    +0.204 C 
BRANCH  12  13
ATOM     13  C   UNL     1       5.419  -5.202  23.059  0.00  0.00    +0.179 C 
ATOM     14  C   UNL     1       6.908  -5.365  22.753  0.00  0.00    +0.179 C 
ATOM     15  C   UNL     1       7.331  -3.989  22.228  0.00  0.00    +0.201 C 
ATOM     16  C   UNL     1       6.033  -3.170  22.222  0.00  0.00    +0.279 C 
ATOM     17  O   UNL     1       5.211  -3.780  23.218  0.00  0.00    -0.341 OA
BRANCH  16  18
ATOM     18  O   UNL     1       5.375  -3.235  20.974  0.00  0.00    -0.365 OA
ATOM     19  H   UNL     1       6.059  -3.475  20.327  0.00  0.00    +0.213 HD
ENDBRANCH  16  18
BRANCH  15  20
ATOM     20  O   UNL     1       8.277  -3.423  23.159  0.00  0.00    -0.384 OA
ATOM     21  H   UNL     1       7.768  -2.848  23.761  0.00  0.00    +0.210 HD
ENDBRANCH  15  20
BRANCH  14  22
ATOM     22  O   UNL     1       7.112  -6.398  21.792  0.00  0.00    -0.386 OA
ATOM     23  H   UNL     1       6.352  -6.374  21.182  0.00  0.00    +0.210 HD
ENDBRANCH  14  22
ENDBRANCH  12  13
ENDBRANCH  11  12
ENDBRANCH   7  11
ENDBRANCH   6   7
ENDBRANCH   2   6
ENDBRANCH   1   2
BRANCH   1  24
ATOM     24  C   UNL     1       8.127  -1.499  26.044  0.00  0.00    +0.204 C 
BRANCH  24  28
ATOM     25  C   UNL     1       8.454   0.210  22.815  0.00  0.00    +0.253 C 
ATOM     26  C   UNL     1       9.923  -0.088  23.141  0.00  0.00    +0.195 C 
ATOM     27  C   UNL     1       9.947  -0.334  24.650  0.00  0.00    +0.178 C 
ATOM     28  C   UNL     1       8.473  -0.389  25.051  0.00  0.00    +0.178 C 
ATOM     29  O   UNL     1       7.718  -0.531  23.831  0.00  0.00    -0.346 OA
BRANCH  25  37
ATOM     30  N   UNL     1       7.660   6.224  22.777  0.00  0.00    -0.341 N 
ATOM     31  H   UNL     1       6.658   6.079  22.738  0.00  0.00    +0.144 HD
ATOM     32  H   UNL     1       8.007   7.024  23.290  0.00  0.00    +0.144 HD
ATOM     33  C   UNL     1       8.383   5.070  23.045  0.00  0.00    +0.147 A 
ATOM     34  C   UNL     1       7.874   3.775  22.836  0.00  0.00    +0.147 A 
ATOM     35  N   UNL     1       6.655   3.324  22.384  0.00  0.00    -0.231 NA
ATOM     36  C   UNL     1       6.773   2.013  22.358  0.00  0.00    +0.203 A 
ATOM     37  N   UNL     1       7.999   1.589  22.821  0.00  0.00    -0.286 N 
ATOM     38  C   UNL     1       8.723   2.715  23.113  0.00  0.00    +0.167 A 
ATOM     39  N   UNL     1       9.986   2.796  23.561  0.00  0.00    -0.216 NA
ATOM     40  C   UNL     1      10.353   4.078  23.757  0.00  0.00    +0.225 A 
ATOM     41  N   UNL     1       9.636   5.200  23.534  0.00  0.00    -0.219 NA
ENDBRANCH  25  37
BRANCH  27  42
ATOM     42  O   UNL     1      10.583   0.750  25.327  0.00  0.00    -0.386 OA
ATOM     43  H   UNL     1       9.955   1.493  25.360  0.00  0.00    +0.210 HD
ENDBRANCH  27  42
BRANCH  26  44
ATOM     44  O   UNL     1      10.328  -1.296  22.459  0.00  0.00    -0.385 OA
ATOM     45  H   UNL     1       9.964  -2.059  22.945  0.00  0.00    +0.210 HD
ENDBRANCH  26  44
ENDBRANCH  24  28
ENDBRANCH   1  24
TORSDOF 16
ENDMDL
