MODEL 1
REMARK VINA RESULT:      -6.9      0.000      0.000
REMARK  Name = 
REMARK  8 active torsions:
REMARK  status: ('A' for Active; 'I' for Inactive)
REMARK    1  A    between atoms: C_1  and  N_2
REMARK    2  A    between atoms: C_4  and  C_5
REMARK    3  A    between atoms: C_16  and  C_20
REMARK    4  A    between atoms: N_22  and  C_23
REMARK    5  A    between atoms: C_23  and  C_24
REMARK    6  A    between atoms: C_23  and  C_25
REMARK    7  A    between atoms: C_23  and  C_26
REMARK    8  A    between atoms: C_26  and  O_27
REMARK                            x       y       z     vdW  Elec       q    Type
REMARK                         _______ _______ _______ _____ _____    ______ ____
ROOT
ATOM      1  C   UNL     1       6.058  -5.914  20.763  0.00  0.00    +0.149 C 
ATOM      2  N   UNL     1       6.441  -5.080  21.879  0.00  0.00    -0.349 N 
ATOM      3  C   UNL     1       6.140  -5.335  23.201  0.00  0.00    +0.049 A 
ATOM      4  C   UNL     1       6.687  -4.287  23.949  0.00  0.00    +0.010 A 
ATOM      5  C   UNL     1       6.499  -4.314  25.346  0.00  0.00    +0.023 A 
ATOM      6  C   UNL     1       5.801  -5.364  25.970  0.00  0.00    +0.037 A 
ATOM      7  C   UNL     1       5.280  -6.399  25.194  0.00  0.00    +0.015 A 
ATOM      8  C   UNL     1       7.344  -3.406  23.037  0.00  0.00    +0.024 A 
ATOM      9  C   UNL     1       5.436  -6.395  23.798  0.00  0.00    +0.027 A 
ATOM     10  C   UNL     1       7.163  -3.922  21.772  0.00  0.00    +0.096 A 
ENDROOT
BRANCH   8  11
ATOM     11  C   UNL     1       8.082  -2.139  23.312  0.00  0.00    +0.051 A 
ATOM     12  N   UNL     1       8.029  -0.992  22.558  0.00  0.00    -0.339 N 
ATOM     13  H   UNL     1       7.473  -0.829  21.736  0.00  0.00    +0.167 HD
ATOM     14  C   UNL     1       8.927  -0.075  23.026  0.00  0.00    +0.139 A 
ATOM     15  C   UNL     1       9.525  -0.605  24.161  0.00  0.00    +0.019 A 
ATOM     16  C   UNL     1      10.498   0.177  24.803  0.00  0.00    +0.013 A 
ATOM     17  C   UNL     1      10.808   1.414  24.233  0.00  0.00    +0.020 A 
ATOM     18  C   UNL     1      10.133   1.819  23.087  0.00  0.00    +0.113 A 
ATOM     19  N   UNL     1       9.171   1.116  22.449  0.00  0.00    -0.237 NA
ATOM     20  C   UNL     1       8.961  -1.896  24.354  0.00  0.00    +0.037 A 
ENDBRANCH   8  11
BRANCH   6  21
ATOM     21  C   UNL     1       5.685  -5.272  27.453  0.00  0.00    +0.245 C 
ATOM     22  N   UNL     1       4.723  -6.017  28.103  0.00  0.00    -0.304 N 
ATOM     23  H   UNL     1       4.097  -6.605  27.576  0.00  0.00    +0.150 HD
ATOM     24  O   UNL     1       6.447  -4.523  28.064  0.00  0.00    -0.270 OA
BRANCH  22  25
ATOM     25  C   UNL     1       4.566  -6.015  29.579  0.00  0.00    +0.052 C 
ATOM     26  C   UNL     1       3.448  -6.978  30.015  0.00  0.00    +0.033 C 
ATOM     27  C   UNL     1       4.162  -4.593  30.013  0.00  0.00    +0.033 C 
BRANCH  25  28
ATOM     28  C   UNL     1       5.894  -6.399  30.280  0.00  0.00    +0.181 C 
BRANCH  28  29
ATOM     29  O   UNL     1       6.635  -7.333  29.487  0.00  0.00    -0.393 OA
ATOM     30  H   UNL     1       6.981  -6.812  28.739  0.00  0.00    +0.209 HD
ENDBRANCH  28  29
ENDBRANCH  25  28
ENDBRANCH  22  25
ENDBRANCH   6  21
TORSDOF 5
ENDMDL
MODEL 2
REMARK VINA RESULT:      -6.9      3.965      7.083
REMARK  Name = 
REMARK  8 active torsions:
REMARK  status: ('A' for Active; 'I' for Inactive)
REMARK    1  A    between atoms: C_1  and  N_2
REMARK    2  A    between atoms: C_4  and  C_5
REMARK    3  A    between atoms: C_16  and  C_20
REMARK    4  A    between atoms: N_22  and  C_23
REMARK    5  A    between atoms: C_23  and  C_24
REMARK    6  A    between atoms: C_23  and  C_25
REMARK    7  A    between atoms: C_23  and  C_26
REMARK    8  A    between atoms: C_26  and  O_27
REMARK                            x       y       z     vdW  Elec       q    Type
REMARK                         _______ _______ _______ _____ _____    ______ ____
ROOT
ATOM      1  C   UNL     1      11.288   3.878  23.401  0.00  0.00    +0.149 C 
ATOM      2  N   UNL     1      10.039   3.174  23.580  0.00  0.00    -0.349 N 
ATOM      3  C   UNL     1       9.918   1.867  24.005  0.00  0.00    +0.049 A 
ATOM      4  C   UNL     1       8.549   1.579  24.038  0.00  0.00    +0.010 A 
ATOM      5  C   UNL     1       8.165   0.281  24.432  0.00  0.00    +0.023 A 
ATOM      6  C   UNL     1       9.120  -0.686  24.797  0.00  0.00    +0.037 A 
ATOM      7  C   UNL     1      10.476  -0.358  24.764  0.00  0.00    +0.015 A 
ATOM      8  C   UNL     1       7.852   2.760  23.640  0.00  0.00    +0.024 A 
ATOM      9  C   UNL     1      10.894   0.920  24.361  0.00  0.00    +0.027 A 
ATOM     10  C   UNL     1       8.803   3.717  23.357  0.00  0.00    +0.096 A 
ENDROOT
BRANCH   8  11
ATOM     11  C   UNL     1       6.385   2.990  23.504  0.00  0.00    +0.051 A 
ATOM     12  N   UNL     1       5.447   2.847  24.497  0.00  0.00    -0.339 N 
ATOM     13  H   UNL     1       5.611   2.594  25.457  0.00  0.00    +0.167 HD
ATOM     14  C   UNL     1       4.189   3.012  23.990  0.00  0.00    +0.139 A 
ATOM     15  C   UNL     1       4.312   3.350  22.649  0.00  0.00    +0.019 A 
ATOM     16  C   UNL     1       3.127   3.558  21.926  0.00  0.00    +0.013 A 
ATOM     17  C   UNL     1       1.920   3.380  22.604  0.00  0.00    +0.020 A 
ATOM     18  C   UNL     1       1.943   3.035  23.950  0.00  0.00    +0.113 A 
ATOM     19  N   UNL     1       3.055   2.850  24.696  0.00  0.00    -0.237 NA
ATOM     20  C   UNL     1       5.704   3.367  22.359  0.00  0.00    +0.037 A 
ENDBRANCH   8  11
BRANCH   6  21
ATOM     21  C   UNL     1       8.575  -2.012  25.203  0.00  0.00    +0.245 C 
ATOM     22  N   UNL     1       8.440  -3.006  24.256  0.00  0.00    -0.304 N 
ATOM     23  H   UNL     1       8.695  -2.829  23.298  0.00  0.00    +0.150 HD
ATOM     24  O   UNL     1       8.248  -2.186  26.377  0.00  0.00    -0.270 OA
BRANCH  22  25
ATOM     25  C   UNL     1       7.944  -4.366  24.584  0.00  0.00    +0.052 C 
ATOM     26  C   UNL     1       7.762  -5.207  23.308  0.00  0.00    +0.033 C 
ATOM     27  C   UNL     1       6.566  -4.222  25.257  0.00  0.00    +0.033 C 
BRANCH  25  28
ATOM     28  C   UNL     1       8.909  -5.090  25.558  0.00  0.00    +0.181 C 
BRANCH  28  29
ATOM     29  O   UNL     1      10.216  -5.203  24.985  0.00  0.00    -0.393 OA
ATOM     30  H   UNL     1      10.529  -4.285  24.881  0.00  0.00    +0.209 HD
ENDBRANCH  28  29
ENDBRANCH  25  28
ENDBRANCH  22  25
ENDBRANCH   6  21
TORSDOF 5
ENDMDL
MODEL 3
REMARK VINA RESULT:      -6.7      0.886      1.232
REMARK  Name = 
REMARK  8 active torsions:
REMARK  status: ('A' for Active; 'I' for Inactive)
REMARK    1  A    between atoms: C_1  and  N_2
REMARK    2  A    between atoms: C_4  and  C_5
REMARK    3  A    between atoms: C_16  and  C_20
REMARK    4  A    between atoms: N_22  and  C_23
REMARK    5  A    between atoms: C_23  and  C_24
REMARK    6  A    between atoms: C_23  and  C_25
REMARK    7  A    between atoms: C_23  and  C_26
REMARK    8  A    between atoms: C_26  and  O_27
REMARK                            x       y       z     vdW  Elec       q    Type
REMARK                         _______ _______ _______ _____ _____    ______ ____
ROOT
ATOM      1  C   UNL     1       6.066  -5.816  20.938  0.00  0.00    +0.149 C 
ATOM      2  N   UNL     1       6.438  -5.001  22.072  0.00  0.00    -0.349 N 
ATOM      3  C   UNL     1       6.136  -5.286  23.387  0.00  0.00    +0.049 A 
ATOM      4  C   UNL     1       6.671  -4.248  24.158  0.00  0.00    +0.010 A 
ATOM      5  C   UNL     1       6.479  -4.306  25.553  0.00  0.00    +0.023 A 
ATOM      6  C   UNL     1       5.791  -5.376  26.154  0.00  0.00    +0.037 A 
ATOM      7  C   UNL     1       5.283  -6.400  25.355  0.00  0.00    +0.015 A 
ATOM      8  C   UNL     1       7.321  -3.342  23.266  0.00  0.00    +0.024 A 
ATOM      9  C   UNL     1       5.442  -6.366  23.960  0.00  0.00    +0.027 A 
ATOM     10  C   UNL     1       7.147  -3.833  21.990  0.00  0.00    +0.096 A 
ENDROOT
BRANCH   8  11
ATOM     11  C   UNL     1       8.044  -2.073  23.569  0.00  0.00    +0.051 A 
ATOM     12  N   UNL     1       7.491  -0.816  23.614  0.00  0.00    -0.339 N 
ATOM     13  H   UNL     1       6.525  -0.572  23.476  0.00  0.00    +0.167 HD
ATOM     14  C   UNL     1       8.465   0.125  23.791  0.00  0.00    +0.139 A 
ATOM     15  C   UNL     1       9.674  -0.538  23.947  0.00  0.00    +0.019 A 
ATOM     16  C   UNL     1      10.821   0.249  24.135  0.00  0.00    +0.013 A 
ATOM     17  C   UNL     1      10.659   1.636  24.122  0.00  0.00    +0.020 A 
ATOM     18  C   UNL     1       9.386   2.167  23.951  0.00  0.00    +0.113 A 
ATOM     19  N   UNL     1       8.249   1.453  23.793  0.00  0.00    -0.237 NA
ATOM     20  C   UNL     1       9.394  -1.928  23.838  0.00  0.00    +0.037 A 
ENDBRANCH   8  11
BRANCH   6  21
ATOM     21  C   UNL     1       5.670  -5.316  27.638  0.00  0.00    +0.245 C 
ATOM     22  N   UNL     1       4.524  -5.789  28.243  0.00  0.00    -0.304 N 
ATOM     23  H   UNL     1       3.772  -6.158  27.683  0.00  0.00    +0.150 HD
ATOM     24  O   UNL     1       6.596  -4.834  28.291  0.00  0.00    -0.270 OA
BRANCH  22  25
ATOM     25  C   UNL     1       4.340  -5.804  29.715  0.00  0.00    +0.052 C 
ATOM     26  C   UNL     1       4.091  -4.383  30.252  0.00  0.00    +0.033 C 
ATOM     27  C   UNL     1       5.640  -6.329  30.353  0.00  0.00    +0.033 C 
BRANCH  25  28
ATOM     28  C   UNL     1       3.167  -6.732  30.121  0.00  0.00    +0.181 C 
BRANCH  28  29
ATOM     29  O   UNL     1       3.178  -7.933  29.342  0.00  0.00    -0.393 OA
ATOM     30  H   UNL     1       2.804  -8.619  29.926  0.00  0.00    +0.209 HD
ENDBRANCH  28  29
ENDBRANCH  25  28
ENDBRANCH  22  25
ENDBRANCH   6  21
TORSDOF 5
ENDMDL
MODEL 4
REMARK VINA RESULT:      -6.7      2.699      7.834
REMARK  Name = 
REMARK  8 active torsions:
REMARK  status: ('A' for Active; 'I' for Inactive)
REMARK    1  A    between atoms: C_1  and  N_2
REMARK    2  A    between atoms: C_4  and  C_5
REMARK    3  A    between atoms: C_16  and  C_20
REMARK    4  A    between atoms: N_22  and  C_23
REMARK    5  A    between atoms: C_23  and  C_24
REMARK    6  A    between atoms: C_23  and  C_25
REMARK    7  A    between atoms: C_23  and  C_26
REMARK    8  A    between atoms: C_26  and  O_27
REMARK                            x       y       z     vdW  Elec       q    Type
REMARK                         _______ _______ _______ _____ _____    ______ ____
ROOT
ATOM      1  C   UNL     1       6.818  -5.931  21.383  0.00  0.00    +0.149 C 
ATOM      2  N   UNL     1       6.890  -5.176  22.613  0.00  0.00    -0.349 N 
ATOM      3  C   UNL     1       7.388  -3.895  22.731  0.00  0.00    +0.049 A 
ATOM      4  C   UNL     1       7.280  -3.542  24.080  0.00  0.00    +0.010 A 
ATOM      5  C   UNL     1       7.742  -2.266  24.460  0.00  0.00    +0.023 A 
ATOM      6  C   UNL     1       8.277  -1.370  23.517  0.00  0.00    +0.037 A 
ATOM      7  C   UNL     1       8.358  -1.751  22.177  0.00  0.00    +0.015 A 
ATOM      8  C   UNL     1       6.683  -4.643  24.766  0.00  0.00    +0.024 A 
ATOM      9  C   UNL     1       7.921  -3.021  21.767  0.00  0.00    +0.027 A 
ATOM     10  C   UNL     1       6.466  -5.634  23.831  0.00  0.00    +0.096 A 
ENDROOT
BRANCH   8  11
ATOM     11  C   UNL     1       6.349  -4.788  26.212  0.00  0.00    +0.051 A 
ATOM     12  N   UNL     1       6.875  -5.720  27.074  0.00  0.00    -0.339 N 
ATOM     13  H   UNL     1       7.571  -6.415  26.868  0.00  0.00    +0.167 HD
ATOM     14  C   UNL     1       6.251  -5.648  28.288  0.00  0.00    +0.139 A 
ATOM     15  C   UNL     1       5.352  -4.592  28.243  0.00  0.00    +0.019 A 
ATOM     16  C   UNL     1       4.590  -4.344  29.395  0.00  0.00    +0.013 A 
ATOM     17  C   UNL     1       4.776  -5.197  30.485  0.00  0.00    +0.020 A 
ATOM     18  C   UNL     1       5.710  -6.222  30.391  0.00  0.00    +0.113 A 
ATOM     19  N   UNL     1       6.486  -6.484  29.316  0.00  0.00    -0.237 NA
ATOM     20  C   UNL     1       5.445  -4.033  26.938  0.00  0.00    +0.037 A 
ENDBRANCH   8  11
BRANCH   6  21
ATOM     21  C   UNL     1       8.717  -0.051  24.053  0.00  0.00    +0.245 C 
ATOM     22  N   UNL     1       8.478   1.092  23.319  0.00  0.00    -0.304 N 
ATOM     23  H   UNL     1       8.022   1.030  22.422  0.00  0.00    +0.150 HD
ATOM     24  O   UNL     1       9.296  -0.015  25.139  0.00  0.00    -0.270 OA
BRANCH  22  25
ATOM     25  C   UNL     1       8.847   2.447  23.798  0.00  0.00    +0.052 C 
ATOM     26  C   UNL     1       8.272   2.709  25.201  0.00  0.00    +0.033 C 
ATOM     27  C   UNL     1       8.230   3.478  22.834  0.00  0.00    +0.033 C 
BRANCH  25  28
ATOM     28  C   UNL     1      10.386   2.631  23.818  0.00  0.00    +0.181 C 
BRANCH  28  29
ATOM     29  O   UNL     1      10.787   3.648  22.894  0.00  0.00    -0.393 OA
ATOM     30  H   UNL     1      10.245   3.496  22.098  0.00  0.00    +0.209 HD
ENDBRANCH  28  29
ENDBRANCH  25  28
ENDBRANCH  22  25
ENDBRANCH   6  21
TORSDOF 5
ENDMDL
MODEL 5
REMARK VINA RESULT:      -6.7      4.674      8.855
REMARK  Name = 
REMARK  8 active torsions:
REMARK  status: ('A' for Active; 'I' for Inactive)
REMARK    1  A    between atoms: C_1  and  N_2
REMARK    2  A    between atoms: C_4  and  C_5
REMARK    3  A    between atoms: C_16  and  C_20
REMARK    4  A    between atoms: N_22  and  C_23
REMARK    5  A    between atoms: C_23  and  C_24
REMARK    6  A    between atoms: C_23  and  C_25
REMARK    7  A    between atoms: C_23  and  C_26
REMARK    8  A    between atoms: C_26  and  O_27
REMARK                            x       y       z     vdW  Elec       q    Type
REMARK                         _______ _______ _______ _____ _____    ______ ____
ROOT
ATOM      1  C   UNL     1      11.426   3.980  23.388  0.00  0.00    +0.149 C 
ATOM      2  N   UNL     1      10.350   3.015  23.368  0.00  0.00    -0.349 N 
ATOM      3  C   UNL     1       9.010   3.322  23.264  0.00  0.00    +0.049 A 
ATOM      4  C   UNL     1       8.314   2.108  23.287  0.00  0.00    +0.010 A 
ATOM      5  C   UNL     1       6.908   2.160  23.207  0.00  0.00    +0.023 A 
ATOM      6  C   UNL     1       6.226   3.385  23.089  0.00  0.00    +0.037 A 
ATOM      7  C   UNL     1       6.953   4.575  23.055  0.00  0.00    +0.015 A 
ATOM      8  C   UNL     1       9.280   1.062  23.389  0.00  0.00    +0.024 A 
ATOM      9  C   UNL     1       8.354   4.561  23.149  0.00  0.00    +0.027 A 
ATOM     10  C   UNL     1      10.521   1.659  23.446  0.00  0.00    +0.096 A 
ENDROOT
BRANCH   8  11
ATOM     11  C   UNL     1       9.072  -0.414  23.455  0.00  0.00    +0.051 A 
ATOM     12  N   UNL     1       8.277  -1.157  22.617  0.00  0.00    -0.339 N 
ATOM     13  H   UNL     1       7.745  -0.826  21.831  0.00  0.00    +0.167 HD
ATOM     14  C   UNL     1       8.218  -2.453  23.045  0.00  0.00    +0.139 A 
ATOM     15  C   UNL     1       9.058  -2.578  24.142  0.00  0.00    +0.019 A 
ATOM     16  C   UNL     1       9.142  -3.840  24.751  0.00  0.00    +0.013 A 
ATOM     17  C   UNL     1       8.352  -4.862  24.222  0.00  0.00    +0.020 A 
ATOM     18  C   UNL     1       7.548  -4.596  23.119  0.00  0.00    +0.113 A 
ATOM     19  N   UNL     1       7.454  -3.407  22.482  0.00  0.00    -0.237 NA
ATOM     20  C   UNL     1       9.620  -1.292  24.374  0.00  0.00    +0.037 A 
ENDBRANCH   8  11
BRANCH   6  21
ATOM     21  C   UNL     1       4.741   3.293  23.002  0.00  0.00    +0.245 C 
ATOM     22  N   UNL     1       4.059   4.144  22.157  0.00  0.00    -0.304 N 
ATOM     23  H   UNL     1       4.562   4.829  21.615  0.00  0.00    +0.150 HD
ATOM     24  O   UNL     1       4.155   2.465  23.698  0.00  0.00    -0.270 OA
BRANCH  22  25
ATOM     25  C   UNL     1       2.586   4.092  21.981  0.00  0.00    +0.052 C 
ATOM     26  C   UNL     1       2.181   2.908  21.086  0.00  0.00    +0.033 C 
ATOM     27  C   UNL     1       2.144   5.389  21.278  0.00  0.00    +0.033 C 
BRANCH  25  28
ATOM     28  C   UNL     1       1.866   3.987  23.349  0.00  0.00    +0.181 C 
BRANCH  28  29
ATOM     29  O   UNL     1       1.275   2.693  23.513  0.00  0.00    -0.393 OA
ATOM     30  H   UNL     1       0.322   2.863  23.639  0.00  0.00    +0.209 HD
ENDBRANCH  28  29
ENDBRANCH  25  28
ENDBRANCH  22  25
ENDBRANCH   6  21
TORSDOF 5
ENDMDL
MODEL 6
REMARK VINA RESULT:      -6.6      5.009      8.978
REMARK  Name = 
REMARK  8 active torsions:
REMARK  status: ('A' for Active; 'I' for Inactive)
REMARK    1  A    between atoms: C_1  and  N_2
REMARK    2  A    between atoms: C_4  and  C_5
REMARK    3  A    between atoms: C_16  and  C_20
REMARK    4  A    between atoms: N_22  and  C_23
REMARK    5  A    between atoms: C_23  and  C_24
REMARK    6  A    between atoms: C_23  and  C_25
REMARK    7  A    between atoms: C_23  and  C_26
REMARK    8  A    between atoms: C_26  and  O_27
REMARK                            x       y       z     vdW  Elec       q    Type
REMARK                         _______ _______ _______ _____ _____    ______ ____
ROOT
ATOM      1  C   UNL     1      10.647   2.554  23.336  0.00  0.00    +0.149 C 
ATOM      2  N   UNL     1       9.413   1.823  23.161  0.00  0.00    -0.349 N 
ATOM      3  C   UNL     1       8.160   2.393  23.061  0.00  0.00    +0.049 A 
ATOM      4  C   UNL     1       7.250   1.342  22.906  0.00  0.00    +0.010 A 
ATOM      5  C   UNL     1       5.884   1.672  22.795  0.00  0.00    +0.023 A 
ATOM      6  C   UNL     1       5.450   3.010  22.821  0.00  0.00    +0.037 A 
ATOM      7  C   UNL     1       6.388   4.033  22.965  0.00  0.00    +0.015 A 
ATOM      8  C   UNL     1       7.997   0.125  22.895  0.00  0.00    +0.024 A 
ATOM      9  C   UNL     1       7.755   3.739  23.094  0.00  0.00    +0.027 A 
ATOM     10  C   UNL     1       9.324   0.461  23.064  0.00  0.00    +0.096 A 
ENDROOT
BRANCH   8  11
ATOM     11  C   UNL     1       7.514  -1.280  22.760  0.00  0.00    +0.051 A 
ATOM     12  N   UNL     1       6.209  -1.674  22.593  0.00  0.00    -0.339 N 
ATOM     13  H   UNL     1       5.400  -1.082  22.512  0.00  0.00    +0.167 HD
ATOM     14  C   UNL     1       6.116  -3.036  22.637  0.00  0.00    +0.139 A 
ATOM     15  C   UNL     1       7.401  -3.548  22.755  0.00  0.00    +0.019 A 
ATOM     16  C   UNL     1       7.535  -4.942  22.828  0.00  0.00    +0.013 A 
ATOM     17  C   UNL     1       6.365  -5.704  22.803  0.00  0.00    +0.020 A 
ATOM     18  C   UNL     1       5.140  -5.059  22.686  0.00  0.00    +0.113 A 
ATOM     19  N   UNL     1       4.960  -3.723  22.586  0.00  0.00    -0.237 NA
ATOM     20  C   UNL     1       8.281  -2.431  22.800  0.00  0.00    +0.037 A 
ENDBRANCH   8  11
BRANCH   6  21
ATOM     21  C   UNL     1       3.981   3.216  22.684  0.00  0.00    +0.245 C 
ATOM     22  N   UNL     1       3.481   3.768  21.522  0.00  0.00    -0.304 N 
ATOM     23  H   UNL     1       4.108   4.040  20.781  0.00  0.00    +0.150 HD
ATOM     24  O   UNL     1       3.246   2.899  23.618  0.00  0.00    -0.270 OA
BRANCH  22  25
ATOM     25  C   UNL     1       2.030   3.970  21.287  0.00  0.00    +0.052 C 
ATOM     26  C   UNL     1       1.769   4.478  19.858  0.00  0.00    +0.033 C 
ATOM     27  C   UNL     1       1.533   5.046  22.270  0.00  0.00    +0.033 C 
BRANCH  25  28
ATOM     28  C   UNL     1       1.239   2.659  21.530  0.00  0.00    +0.181 C 
BRANCH  28  29
ATOM     29  O   UNL     1       1.251   1.835  20.360  0.00  0.00    -0.393 OA
ATOM     30  H   UNL     1       0.428   2.056  19.885  0.00  0.00    +0.209 HD
ENDBRANCH  28  29
ENDBRANCH  25  28
ENDBRANCH  22  25
ENDBRANCH   6  21
TORSDOF 5
ENDMDL
MODEL 7
REMARK VINA RESULT:      -6.6      5.657      9.960
REMARK  Name = 
REMARK  8 active torsions:
REMARK  status: ('A' for Active; 'I' for Inactive)
REMARK    1  A    between atoms: C_1  and  N_2
REMARK    2  A    between atoms: C_4  and  C_5
REMARK    3  A    between atoms: C_16  and  C_20
REMARK    4  A    between atoms: N_22  and  C_23
REMARK    5  A    between atoms: C_23  and  C_24
REMARK    6  A    between atoms: C_23  and  C_25
REMARK    7  A    between atoms: C_23  and  C_26
REMARK    8  A    between atoms: C_26  and  O_27
REMARK                            x       y       z     vdW  Elec       q    Type
REMARK                         _______ _______ _______ _____ _____    ______ ____
ROOT
ATOM      1  C   UNL     1      12.497   5.629  23.661  0.00  0.00    +0.149 C 
ATOM      2  N   UNL     1      11.330   4.780  23.586  0.00  0.00    -0.349 N 
ATOM      3  C   UNL     1      10.024   5.226  23.572  0.00  0.00    +0.049 A 
ATOM      4  C   UNL     1       9.211   4.090  23.497  0.00  0.00    +0.010 A 
ATOM      5  C   UNL     1       7.815   4.286  23.483  0.00  0.00    +0.023 A 
ATOM      6  C   UNL     1       7.257   5.576  23.525  0.00  0.00    +0.037 A 
ATOM      7  C   UNL     1       8.099   6.687  23.587  0.00  0.00    +0.015 A 
ATOM      8  C   UNL     1      10.070   2.950  23.445  0.00  0.00    +0.024 A 
ATOM      9  C   UNL     1       9.494   6.527  23.618  0.00  0.00    +0.027 A 
ATOM     10  C   UNL     1      11.366   3.414  23.512  0.00  0.00    +0.096 A 
ENDROOT
BRANCH   8  11
ATOM     11  C   UNL     1       9.716   1.503  23.363  0.00  0.00    +0.051 A 
ATOM     12  N   UNL     1       8.559   0.981  22.839  0.00  0.00    -0.339 N 
ATOM     13  H   UNL     1       7.800   1.488  22.416  0.00  0.00    +0.167 HD
ATOM     14  C   UNL     1       8.512  -0.369  23.045  0.00  0.00    +0.139 A 
ATOM     15  C   UNL     1       9.703  -0.750  23.646  0.00  0.00    +0.019 A 
ATOM     16  C   UNL     1       9.862  -2.109  23.957  0.00  0.00    +0.013 A 
ATOM     17  C   UNL     1       8.799  -2.965  23.663  0.00  0.00    +0.020 A 
ATOM     18  C   UNL     1       7.657  -2.446  23.062  0.00  0.00    +0.113 A 
ATOM     19  N   UNL     1       7.467  -1.153  22.719  0.00  0.00    -0.237 NA
ATOM     20  C   UNL     1      10.472   0.434  23.814  0.00  0.00    +0.037 A 
ENDBRANCH   8  11
BRANCH   6  21
ATOM     21  C   UNL     1       5.768   5.638  23.494  0.00  0.00    +0.245 C 
ATOM     22  N   UNL     1       5.072   4.768  22.680  0.00  0.00    -0.304 N 
ATOM     23  H   UNL     1       5.569   4.108  22.104  0.00  0.00    +0.150 HD
ATOM     24  O   UNL     1       5.194   6.475  24.189  0.00  0.00    -0.270 OA
BRANCH  22  25
ATOM     25  C   UNL     1       3.590   4.736  22.620  0.00  0.00    +0.052 C 
ATOM     26  C   UNL     1       2.986   4.580  24.027  0.00  0.00    +0.033 C 
ATOM     27  C   UNL     1       3.173   3.509  21.787  0.00  0.00    +0.033 C 
BRANCH  25  28
ATOM     28  C   UNL     1       3.032   6.017  21.948  0.00  0.00    +0.181 C 
BRANCH  28  29
ATOM     29  O   UNL     1       2.500   6.913  22.929  0.00  0.00    -0.393 OA
ATOM     30  H   UNL     1       2.149   6.339  23.635  0.00  0.00    +0.209 HD
ENDBRANCH  28  29
ENDBRANCH  25  28
ENDBRANCH  22  25
ENDBRANCH   6  21
TORSDOF 5
ENDMDL
MODEL 8
REMARK VINA RESULT:      -6.4      5.503      9.468
REMARK  Name = 
REMARK  8 active torsions:
REMARK  status: ('A' for Active; 'I' for Inactive)
REMARK    1  A    between atoms: C_1  and  N_2
REMARK    2  A    between atoms: C_4  and  C_5
REMARK    3  A    between atoms: C_16  and  C_20
REMARK    4  A    between atoms: N_22  and  C_23
REMARK    5  A    between atoms: C_23  and  C_24
REMARK    6  A    between atoms: C_23  and  C_25
REMARK    7  A    between atoms: C_23  and  C_26
REMARK    8  A    between atoms: C_26  and  O_27
REMARK                            x       y       z     vdW  Elec       q    Type
REMARK                         _______ _______ _______ _____ _____    ______ ____
ROOT
ATOM      1  C   UNL     1      10.316   4.552  23.800  0.00  0.00    +0.149 C 
ATOM      2  N   UNL     1       9.286   3.543  23.704  0.00  0.00    -0.349 N 
ATOM      3  C   UNL     1       7.978   3.776  23.332  0.00  0.00    +0.049 A 
ATOM      4  C   UNL     1       7.320   2.542  23.373  0.00  0.00    +0.010 A 
ATOM      5  C   UNL     1       5.950   2.521  23.043  0.00  0.00    +0.023 A 
ATOM      6  C   UNL     1       5.270   3.694  22.667  0.00  0.00    +0.037 A 
ATOM      7  C   UNL     1       5.961   4.905  22.625  0.00  0.00    +0.015 A 
ATOM      8  C   UNL     1       8.279   1.558  23.762  0.00  0.00    +0.024 A 
ATOM      9  C   UNL     1       7.323   4.964  22.963  0.00  0.00    +0.027 A 
ATOM     10  C   UNL     1       9.474   2.213  23.966  0.00  0.00    +0.096 A 
ENDROOT
BRANCH   8  11
ATOM     11  C   UNL     1       8.099   0.090  23.960  0.00  0.00    +0.051 A 
ATOM     12  N   UNL     1       9.100  -0.825  24.182  0.00  0.00    -0.339 N 
ATOM     13  H   UNL     1      10.085  -0.641  24.267  0.00  0.00    +0.167 HD
ATOM     14  C   UNL     1       8.590  -2.093  24.188  0.00  0.00    +0.139 A 
ATOM     15  C   UNL     1       7.213  -1.999  24.047  0.00  0.00    +0.019 A 
ATOM     16  C   UNL     1       6.485  -3.198  24.019  0.00  0.00    +0.013 A 
ATOM     17  C   UNL     1       7.205  -4.391  24.106  0.00  0.00    +0.020 A 
ATOM     18  C   UNL     1       8.588  -4.338  24.239  0.00  0.00    +0.113 A 
ATOM     19  N   UNL     1       9.331  -3.211  24.298  0.00  0.00    -0.237 NA
ATOM     20  C   UNL     1       6.908  -0.614  23.937  0.00  0.00    +0.037 A 
ENDBRANCH   8  11
BRANCH   6  21
ATOM     21  C   UNL     1       3.827   3.527  22.334  0.00  0.00    +0.245 C 
ATOM     22  N   UNL     1       3.335   4.073  21.166  0.00  0.00    -0.304 N 
ATOM     23  H   UNL     1       3.945   4.591  20.554  0.00  0.00    +0.150 HD
ATOM     24  O   UNL     1       3.104   2.911  23.117  0.00  0.00    -0.270 OA
BRANCH  22  25
ATOM     25  C   UNL     1       1.922   3.918  20.740  0.00  0.00    +0.052 C 
ATOM     26  C   UNL     1       0.963   4.513  21.787  0.00  0.00    +0.033 C 
ATOM     27  C   UNL     1       1.621   2.412  20.624  0.00  0.00    +0.033 C 
BRANCH  25  28
ATOM     28  C   UNL     1       1.679   4.590  19.364  0.00  0.00    +0.181 C 
BRANCH  28  29
ATOM     29  O   UNL     1       2.462   3.958  18.346  0.00  0.00    -0.393 OA
ATOM     30  H   UNL     1       1.848   3.351  17.892  0.00  0.00    +0.209 HD
ENDBRANCH  28  29
ENDBRANCH  25  28
ENDBRANCH  22  25
ENDBRANCH   6  21
TORSDOF 5
ENDMDL
MODEL 9
REMARK VINA RESULT:      -6.2      4.699      8.566
REMARK  Name = 
REMARK  8 active torsions:
REMARK  status: ('A' for Active; 'I' for Inactive)
REMARK    1  A    between atoms: C_1  and  N_2
REMARK    2  A    between atoms: C_4  and  C_5
REMARK    3  A    between atoms: C_16  and  C_20
REMARK    4  A    between atoms: N_22  and  C_23
REMARK    5  A    between atoms: C_23  and  C_24
REMARK    6  A    between atoms: C_23  and  C_25
REMARK    7  A    between atoms: C_23  and  C_26
REMARK    8  A    between atoms: C_26  and  O_27
REMARK                            x       y       z     vdW  Elec       q    Type
REMARK                         _______ _______ _______ _____ _____    ______ ____
ROOT
ATOM      1  C   UNL     1      10.747  -1.774  22.624  0.00  0.00    +0.149 C 
ATOM      2  N   UNL     1       9.331  -1.568  22.824  0.00  0.00    -0.349 N 
ATOM      3  C   UNL     1       8.681  -0.357  22.710  0.00  0.00    +0.049 A 
ATOM      4  C   UNL     1       7.330  -0.595  22.987  0.00  0.00    +0.010 A 
ATOM      5  C   UNL     1       6.451   0.506  22.947  0.00  0.00    +0.023 A 
ATOM      6  C   UNL     1       6.909   1.796  22.623  0.00  0.00    +0.037 A 
ATOM      7  C   UNL     1       8.260   1.995  22.340  0.00  0.00    +0.015 A 
ATOM      8  C   UNL     1       7.186  -1.991  23.251  0.00  0.00    +0.024 A 
ATOM      9  C   UNL     1       9.166   0.923  22.386  0.00  0.00    +0.027 A 
ATOM     10  C   UNL     1       8.441  -2.555  23.151  0.00  0.00    +0.096 A 
ENDROOT
BRANCH   8  11
ATOM     11  C   UNL     1       5.960  -2.765  23.601  0.00  0.00    +0.051 A 
ATOM     12  N   UNL     1       5.431  -3.811  22.884  0.00  0.00    -0.339 N 
ATOM     13  H   UNL     1       5.800  -4.221  22.043  0.00  0.00    +0.167 HD
ATOM     14  C   UNL     1       4.237  -4.199  23.423  0.00  0.00    +0.139 A 
ATOM     15  C   UNL     1       4.019  -3.442  24.566  0.00  0.00    +0.019 A 
ATOM     16  C   UNL     1       2.832  -3.674  25.277  0.00  0.00    +0.013 A 
ATOM     17  C   UNL     1       1.951  -4.628  24.763  0.00  0.00    +0.020 A 
ATOM     18  C   UNL     1       2.294  -5.311  23.603  0.00  0.00    +0.113 A 
ATOM     19  N   UNL     1       3.435  -5.143  22.898  0.00  0.00    -0.237 NA
ATOM     20  C   UNL     1       5.130  -2.561  24.689  0.00  0.00    +0.037 A 
ENDBRANCH   8  11
BRANCH   6  21
ATOM     21  C   UNL     1       5.871   2.866  22.607  0.00  0.00    +0.245 C 
ATOM     22  N   UNL     1       4.648   2.630  23.199  0.00  0.00    -0.304 N 
ATOM     23  H   UNL     1       4.456   1.737  23.625  0.00  0.00    +0.150 HD
ATOM     24  O   UNL     1       6.128   3.934  22.054  0.00  0.00    -0.270 OA
BRANCH  22  25
ATOM     25  C   UNL     1       3.575   3.653  23.263  0.00  0.00    +0.052 C 
ATOM     26  C   UNL     1       4.117   4.985  23.812  0.00  0.00    +0.033 C 
ATOM     27  C   UNL     1       2.491   3.148  24.234  0.00  0.00    +0.033 C 
BRANCH  25  28
ATOM     28  C   UNL     1       2.938   3.880  21.868  0.00  0.00    +0.181 C 
BRANCH  28  29
ATOM     29  O   UNL     1       3.358   5.133  21.317  0.00  0.00    -0.393 OA
ATOM     30  H   UNL     1       2.881   5.211  20.470  0.00  0.00    +0.209 HD
ENDBRANCH  28  29
ENDBRANCH  25  28
ENDBRANCH  22  25
ENDBRANCH   6  21
TORSDOF 5
ENDMDL
