MODEL 1
REMARK VINA RESULT:      -7.4      0.000      0.000
REMARK  Name = 
REMARK  5 active torsions:
REMARK  status: ('A' for Active; 'I' for Inactive)
REMARK    1  A    between atoms: C_1  and  C_2
REMARK    2  A    between atoms: C_2  and  N_4
REMARK    3  A    between atoms: C_2  and  C_17
REMARK    4  A    between atoms: C_17  and  C_18
REMARK    5  A    between atoms: C_17  and  C_24
REMARK                            x       y       z     vdW  Elec       q    Type
REMARK                         _______ _______ _______ _____ _____    ______ ____
ROOT
ATOM      1  C   UNL     1       5.562   0.527  24.870  0.00  0.00    +0.029 C 
ATOM      2  C   UNL     1       6.512  -0.571  24.377  0.00  0.00    +0.080 C 
ENDROOT
BRANCH   2   3
ATOM      3  N   UNL     1       5.964  -1.886  24.770  0.00  0.00    -0.325 N 
ATOM      4  H   UNL     1       6.504  -2.285  25.533  0.00  0.00    +0.148 HD
ATOM      5  C   UNL     1       5.746  -2.885  23.818  0.00  0.00    +0.130 A 
ATOM      6  C   UNL     1       5.255  -4.133  24.254  0.00  0.00    +0.043 A 
ATOM      7  C   UNL     1       4.979  -4.463  25.607  0.00  0.00    +0.054 A 
ATOM      8  C   UNL     1       4.503  -5.722  25.935  0.00  0.00    +0.159 A 
ATOM      9  C   UNL     1       4.279  -6.655  24.938  0.00  0.00    +0.160 A 
ATOM     10  C   UNL     1       4.544  -6.338  23.608  0.00  0.00    +0.069 A 
ATOM     11  F   UNL     1       3.806  -7.871  25.244  0.00  0.00    -0.202 F 
ATOM     12  F   UNL     1       4.260  -6.024  27.217  0.00  0.00    -0.202 F 
ATOM     13  C   UNL     1       5.036  -5.089  23.250  0.00  0.00    +0.079 A 
ATOM     14  N   UNL     1       5.285  -4.842  21.962  0.00  0.00    -0.235 NA
ATOM     15  C   UNL     1       5.746  -3.621  21.662  0.00  0.00    +0.223 A 
ATOM     16  N   UNL     1       5.989  -2.627  22.523  0.00  0.00    -0.220 NA
ENDBRANCH   2   3
BRANCH   2  17
ATOM     17  C   UNL     1       7.992  -0.415  24.939  0.00  0.00    +0.069 C 
BRANCH  17  18
ATOM     18  C   UNL     1       8.897   0.482  24.059  0.00  0.00    -0.038 A 
ATOM     19  C   UNL     1       8.608   0.640  22.691  0.00  0.00    +0.004 A 
ATOM     20  C   UNL     1       9.376   1.488  21.885  0.00  0.00    +0.000 A 
ATOM     21  C   UNL     1      10.458   2.181  22.421  0.00  0.00    +0.000 A 
ATOM     22  C   UNL     1      10.791   2.006  23.757  0.00  0.00    +0.000 A 
ATOM     23  C   UNL     1      10.026   1.156  24.561  0.00  0.00    +0.004 A 
ENDBRANCH  17  18
BRANCH  17  24
ATOM     24  C   UNL     1       8.592  -1.809  25.232  0.00  0.00    -0.038 A 
ATOM     25  C   UNL     1       8.311  -2.447  26.452  0.00  0.00    +0.004 A 
ATOM     26  C   UNL     1       8.625  -3.797  26.642  0.00  0.00    +0.000 A 
ATOM     27  C   UNL     1       9.252  -4.518  25.629  0.00  0.00    +0.000 A 
ATOM     28  C   UNL     1       9.611  -3.880  24.446  0.00  0.00    +0.000 A 
ATOM     29  C   UNL     1       9.295  -2.534  24.253  0.00  0.00    +0.004 A 
ENDBRANCH  17  24
ENDBRANCH   2  17
TORSDOF 4
ENDMDL
MODEL 2
REMARK VINA RESULT:      -7.3      3.611      7.337
REMARK  Name = 
REMARK  5 active torsions:
REMARK  status: ('A' for Active; 'I' for Inactive)
REMARK    1  A    between atoms: C_1  and  C_2
REMARK    2  A    between atoms: C_2  and  N_4
REMARK    3  A    between atoms: C_2  and  C_17
REMARK    4  A    between atoms: C_17  and  C_18
REMARK    5  A    between atoms: C_17  and  C_24
REMARK                            x       y       z     vdW  Elec       q    Type
REMARK                         _______ _______ _______ _____ _____    ______ ____
ROOT
ATOM      1  C   UNL     1       8.693  -3.726  26.734  0.00  0.00    +0.029 C 
ATOM      2  C   UNL     1       8.156  -3.283  25.367  0.00  0.00    +0.080 C 
ENDROOT
BRANCH   2   3
ATOM      3  N   UNL     1       8.342  -1.823  25.233  0.00  0.00    -0.325 N 
ATOM      4  H   UNL     1       7.463  -1.336  25.382  0.00  0.00    +0.148 HD
ATOM      5  C   UNL     1       8.959  -1.280  24.104  0.00  0.00    +0.130 A 
ATOM      6  C   UNL     1       9.078   0.122  24.012  0.00  0.00    +0.043 A 
ATOM      7  C   UNL     1       8.595   1.038  24.983  0.00  0.00    +0.054 A 
ATOM      8  C   UNL     1       8.757   2.402  24.798  0.00  0.00    +0.159 A 
ATOM      9  C   UNL     1       9.406   2.871  23.671  0.00  0.00    +0.160 A 
ATOM     10  C   UNL     1       9.885   1.979  22.714  0.00  0.00    +0.069 A 
ATOM     11  F   UNL     1       9.578   4.187  23.489  0.00  0.00    -0.202 F 
ATOM     12  F   UNL     1       8.284   3.254  25.717  0.00  0.00    -0.202 F 
ATOM     13  C   UNL     1       9.725   0.607  22.865  0.00  0.00    +0.079 A 
ATOM     14  N   UNL     1      10.193  -0.202  21.912  0.00  0.00    -0.235 NA
ATOM     15  C   UNL     1      10.028  -1.517  22.106  0.00  0.00    +0.223 A 
ATOM     16  N   UNL     1       9.436  -2.100  23.154  0.00  0.00    -0.220 NA
ENDBRANCH   2   3
BRANCH   2  17
ATOM     17  C   UNL     1       6.625  -3.653  25.148  0.00  0.00    +0.069 C 
BRANCH  17  18
ATOM     18  C   UNL     1       5.969  -4.328  26.378  0.00  0.00    -0.038 A 
ATOM     19  C   UNL     1       5.318  -3.540  27.345  0.00  0.00    +0.004 A 
ATOM     20  C   UNL     1       4.670  -4.128  28.437  0.00  0.00    +0.000 A 
ATOM     21  C   UNL     1       4.672  -5.511  28.597  0.00  0.00    +0.000 A 
ATOM     22  C   UNL     1       5.347  -6.306  27.681  0.00  0.00    +0.000 A 
ATOM     23  C   UNL     1       5.997  -5.719  26.593  0.00  0.00    +0.004 A 
ENDBRANCH  17  18
BRANCH  17  24
ATOM     24  C   UNL     1       6.461  -4.453  23.836  0.00  0.00    -0.038 A 
ATOM     25  C   UNL     1       7.575  -5.088  23.261  0.00  0.00    +0.004 A 
ATOM     26  C   UNL     1       7.415  -6.017  22.229  0.00  0.00    +0.000 A 
ATOM     27  C   UNL     1       6.144  -6.300  21.733  0.00  0.00    +0.000 A 
ATOM     28  C   UNL     1       5.040  -5.620  22.235  0.00  0.00    +0.000 A 
ATOM     29  C   UNL     1       5.197  -4.695  23.269  0.00  0.00    +0.004 A 
ENDBRANCH  17  24
ENDBRANCH   2  17
TORSDOF 4
ENDMDL
MODEL 3
REMARK VINA RESULT:      -7.2      3.552      6.167
REMARK  Name = 
REMARK  5 active torsions:
REMARK  status: ('A' for Active; 'I' for Inactive)
REMARK    1  A    between atoms: C_1  and  C_2
REMARK    2  A    between atoms: C_2  and  N_4
REMARK    3  A    between atoms: C_2  and  C_17
REMARK    4  A    between atoms: C_17  and  C_18
REMARK    5  A    between atoms: C_17  and  C_24
REMARK                            x       y       z     vdW  Elec       q    Type
REMARK                         _______ _______ _______ _____ _____    ______ ____
ROOT
ATOM      1  C   UNL     1       7.574   2.447  21.638  0.00  0.00    +0.029 C 
ATOM      2  C   UNL     1       8.556   2.444  22.816  0.00  0.00    +0.080 C 
ENDROOT
BRANCH   2   3
ATOM      3  N   UNL     1       8.306   1.244  23.641  0.00  0.00    -0.325 N 
ATOM      4  H   UNL     1       8.378   1.467  24.629  0.00  0.00    +0.148 HD
ATOM      5  C   UNL     1       9.004   0.056  23.408  0.00  0.00    +0.130 A 
ATOM      6  C   UNL     1       8.752  -1.048  24.248  0.00  0.00    +0.043 A 
ATOM      7  C   UNL     1       7.844  -1.040  25.339  0.00  0.00    +0.054 A 
ATOM      8  C   UNL     1       7.670  -2.179  26.110  0.00  0.00    +0.159 A 
ATOM      9  C   UNL     1       8.370  -3.331  25.804  0.00  0.00    +0.160 A 
ATOM     10  C   UNL     1       9.261  -3.348  24.733  0.00  0.00    +0.069 A 
ATOM     11  F   UNL     1       8.199  -4.440  26.535  0.00  0.00    -0.202 F 
ATOM     12  F   UNL     1       6.820  -2.152  27.145  0.00  0.00    -0.202 F 
ATOM     13  C   UNL     1       9.468  -2.218  23.951  0.00  0.00    +0.079 A 
ATOM     14  N   UNL     1      10.342  -2.286  22.944  0.00  0.00    -0.235 NA
ATOM     15  C   UNL     1      10.499  -1.177  22.210  0.00  0.00    +0.223 A 
ATOM     16  N   UNL     1       9.874  -0.007  22.388  0.00  0.00    -0.220 NA
ENDBRANCH   2   3
BRANCH   2  17
ATOM     17  C   UNL     1       8.449   3.749  23.720  0.00  0.00    +0.069 C 
BRANCH  17  18
ATOM     18  C   UNL     1       7.365   4.746  23.242  0.00  0.00    -0.038 A 
ATOM     19  C   UNL     1       6.071   4.690  23.792  0.00  0.00    +0.004 A 
ATOM     20  C   UNL     1       5.088   5.614  23.419  0.00  0.00    +0.000 A 
ATOM     21  C   UNL     1       5.370   6.600  22.478  0.00  0.00    +0.000 A 
ATOM     22  C   UNL     1       6.625   6.648  21.888  0.00  0.00    +0.000 A 
ATOM     23  C   UNL     1       7.605   5.723  22.258  0.00  0.00    +0.004 A 
ENDBRANCH  17  18
BRANCH  17  24
ATOM     24  C   UNL     1       9.848   4.383  23.893  0.00  0.00    -0.038 A 
ATOM     25  C   UNL     1      10.971   3.766  23.315  0.00  0.00    +0.004 A 
ATOM     26  C   UNL     1      12.194   4.438  23.237  0.00  0.00    +0.000 A 
ATOM     27  C   UNL     1      12.323   5.721  23.765  0.00  0.00    +0.000 A 
ATOM     28  C   UNL     1      11.244   6.313  24.412  0.00  0.00    +0.000 A 
ATOM     29  C   UNL     1      10.020   5.646  24.488  0.00  0.00    +0.004 A 
ENDBRANCH  17  24
ENDBRANCH   2  17
TORSDOF 4
ENDMDL
MODEL 4
REMARK VINA RESULT:      -7.2      2.702      4.232
REMARK  Name = 
REMARK  5 active torsions:
REMARK  status: ('A' for Active; 'I' for Inactive)
REMARK    1  A    between atoms: C_1  and  C_2
REMARK    2  A    between atoms: C_2  and  N_4
REMARK    3  A    between atoms: C_2  and  C_17
REMARK    4  A    between atoms: C_17  and  C_18
REMARK    5  A    between atoms: C_17  and  C_24
REMARK                            x       y       z     vdW  Elec       q    Type
REMARK                         _______ _______ _______ _____ _____    ______ ____
ROOT
ATOM      1  C   UNL     1       8.595   1.426  21.203  0.00  0.00    +0.029 C 
ATOM      2  C   UNL     1       8.186   1.154  22.656  0.00  0.00    +0.080 C 
ENDROOT
BRANCH   2   3
ATOM      3  N   UNL     1       7.514  -0.161  22.724  0.00  0.00    -0.325 N 
ATOM      4  H   UNL     1       6.645  -0.092  23.245  0.00  0.00    +0.148 HD
ATOM      5  C   UNL     1       8.201  -1.295  23.163  0.00  0.00    +0.130 A 
ATOM      6  C   UNL     1       7.501  -2.517  23.242  0.00  0.00    +0.043 A 
ATOM      7  C   UNL     1       6.128  -2.681  22.921  0.00  0.00    +0.054 A 
ATOM      8  C   UNL     1       5.529  -3.925  23.036  0.00  0.00    +0.159 A 
ATOM      9  C   UNL     1       6.276  -5.014  23.448  0.00  0.00    +0.160 A 
ATOM     10  C   UNL     1       7.625  -4.861  23.762  0.00  0.00    +0.069 A 
ATOM     11  F   UNL     1       5.709  -6.223  23.550  0.00  0.00    -0.202 F 
ATOM     12  F   UNL     1       4.229  -4.062  22.743  0.00  0.00    -0.202 F 
ATOM     13  C   UNL     1       8.249  -3.624  23.670  0.00  0.00    +0.079 A 
ATOM     14  N   UNL     1       9.541  -3.531  23.994  0.00  0.00    -0.235 NA
ATOM     15  C   UNL     1      10.104  -2.322  23.879  0.00  0.00    +0.223 A 
ATOM     16  N   UNL     1       9.502  -1.197  23.478  0.00  0.00    -0.220 NA
ENDBRANCH   2   3
BRANCH   2  17
ATOM     17  C   UNL     1       7.232   2.276  23.257  0.00  0.00    +0.069 C 
BRANCH  17  18
ATOM     18  C   UNL     1       7.842   3.699  23.203  0.00  0.00    -0.038 A 
ATOM     19  C   UNL     1       7.212   4.702  22.443  0.00  0.00    +0.004 A 
ATOM     20  C   UNL     1       7.710   6.010  22.421  0.00  0.00    +0.000 A 
ATOM     21  C   UNL     1       8.854   6.341  23.142  0.00  0.00    +0.000 A 
ATOM     22  C   UNL     1       9.518   5.358  23.863  0.00  0.00    +0.000 A 
ATOM     23  C   UNL     1       9.024   4.051  23.882  0.00  0.00    +0.004 A 
ENDBRANCH  17  18
BRANCH  17  24
ATOM     24  C   UNL     1       6.749   1.857  24.664  0.00  0.00    -0.038 A 
ATOM     25  C   UNL     1       5.374   1.730  24.920  0.00  0.00    +0.004 A 
ATOM     26  C   UNL     1       4.919   1.115  26.091  0.00  0.00    +0.000 A 
ATOM     27  C   UNL     1       5.831   0.650  27.036  0.00  0.00    +0.000 A 
ATOM     28  C   UNL     1       7.193   0.842  26.836  0.00  0.00    +0.000 A 
ATOM     29  C   UNL     1       7.649   1.452  25.666  0.00  0.00    +0.004 A 
ENDBRANCH  17  24
ENDBRANCH   2  17
TORSDOF 4
ENDMDL
MODEL 5
REMARK VINA RESULT:      -7.1      1.733      3.422
REMARK  Name = 
REMARK  5 active torsions:
REMARK  status: ('A' for Active; 'I' for Inactive)
REMARK    1  A    between atoms: C_1  and  C_2
REMARK    2  A    between atoms: C_2  and  N_4
REMARK    3  A    between atoms: C_2  and  C_17
REMARK    4  A    between atoms: C_17  and  C_18
REMARK    5  A    between atoms: C_17  and  C_24
REMARK                            x       y       z     vdW  Elec       q    Type
REMARK                         _______ _______ _______ _____ _____    ______ ____
ROOT
ATOM      1  C   UNL     1       9.426  -2.501  23.437  0.00  0.00    +0.029 C 
ATOM      2  C   UNL     1       8.213  -2.142  24.305  0.00  0.00    +0.080 C 
ENDROOT
BRANCH   2   3
ATOM      3  N   UNL     1       7.177  -3.181  24.130  0.00  0.00    -0.325 N 
ATOM      4  H   UNL     1       6.291  -2.762  23.863  0.00  0.00    +0.148 HD
ATOM      5  C   UNL     1       6.932  -4.124  25.131  0.00  0.00    +0.130 A 
ATOM      6  C   UNL     1       5.908  -5.071  24.926  0.00  0.00    +0.043 A 
ATOM      7  C   UNL     1       5.083  -5.130  23.773  0.00  0.00    +0.054 A 
ATOM      8  C   UNL     1       4.097  -6.098  23.667  0.00  0.00    +0.159 A 
ATOM      9  C   UNL     1       3.928  -7.022  24.683  0.00  0.00    +0.160 A 
ATOM     10  C   UNL     1       4.736  -6.973  25.817  0.00  0.00    +0.069 A 
ATOM     11  F   UNL     1       2.987  -7.970  24.585  0.00  0.00    -0.202 F 
ATOM     12  F   UNL     1       3.317  -6.132  22.579  0.00  0.00    -0.202 F 
ATOM     13  C   UNL     1       5.723  -6.005  25.957  0.00  0.00    +0.079 A 
ATOM     14  N   UNL     1       6.460  -5.997  27.070  0.00  0.00    -0.235 NA
ATOM     15  C   UNL     1       7.407  -5.054  27.156  0.00  0.00    +0.223 A 
ATOM     16  N   UNL     1       7.684  -4.116  26.243  0.00  0.00    -0.220 NA
ENDBRANCH   2   3
BRANCH   2  17
ATOM     17  C   UNL     1       7.604  -0.713  23.965  0.00  0.00    +0.069 C 
BRANCH  17  18
ATOM     18  C   UNL     1       8.668   0.329  23.541  0.00  0.00    -0.038 A 
ATOM     19  C   UNL     1       8.755   0.735  22.197  0.00  0.00    +0.004 A 
ATOM     20  C   UNL     1       9.670   1.715  21.796  0.00  0.00    +0.000 A 
ATOM     21  C   UNL     1      10.529   2.298  22.724  0.00  0.00    +0.000 A 
ATOM     22  C   UNL     1      10.494   1.881  24.047  0.00  0.00    +0.000 A 
ATOM     23  C   UNL     1       9.583   0.900  24.447  0.00  0.00    +0.004 A 
ENDBRANCH  17  18
BRANCH  17  24
ATOM     24  C   UNL     1       6.695  -0.240  25.123  0.00  0.00    -0.038 A 
ATOM     25  C   UNL     1       7.023  -0.573  26.448  0.00  0.00    +0.004 A 
ATOM     26  C   UNL     1       6.372   0.043  27.521  0.00  0.00    +0.000 A 
ATOM     27  C   UNL     1       5.364   0.974  27.286  0.00  0.00    +0.000 A 
ATOM     28  C   UNL     1       4.971   1.254  25.982  0.00  0.00    +0.000 A 
ATOM     29  C   UNL     1       5.622   0.643  24.909  0.00  0.00    +0.004 A 
ENDBRANCH  17  24
ENDBRANCH   2  17
TORSDOF 4
ENDMDL
MODEL 6
REMARK VINA RESULT:      -7.1      1.912      3.672
REMARK  Name = 
REMARK  5 active torsions:
REMARK  status: ('A' for Active; 'I' for Inactive)
REMARK    1  A    between atoms: C_1  and  C_2
REMARK    2  A    between atoms: C_2  and  N_4
REMARK    3  A    between atoms: C_2  and  C_17
REMARK    4  A    between atoms: C_17  and  C_18
REMARK    5  A    between atoms: C_17  and  C_24
REMARK                            x       y       z     vdW  Elec       q    Type
REMARK                         _______ _______ _______ _____ _____    ______ ____
ROOT
ATOM      1  C   UNL     1       9.025  -4.861  26.595  0.00  0.00    +0.029 C 
ATOM      2  C   UNL     1       8.166  -3.993  25.667  0.00  0.00    +0.080 C 
ENDROOT
BRANCH   2   3
ATOM      3  N   UNL     1       6.873  -4.671  25.441  0.00  0.00    -0.325 N 
ATOM      4  H   UNL     1       6.885  -5.179  24.561  0.00  0.00    +0.148 HD
ATOM      5  C   UNL     1       5.669  -3.968  25.527  0.00  0.00    +0.130 A 
ATOM      6  C   UNL     1       4.467  -4.658  25.267  0.00  0.00    +0.043 A 
ATOM      7  C   UNL     1       4.386  -6.027  24.902  0.00  0.00    +0.054 A 
ATOM      8  C   UNL     1       3.154  -6.614  24.662  0.00  0.00    +0.159 A 
ATOM      9  C   UNL     1       1.998  -5.866  24.796  0.00  0.00    +0.160 A 
ATOM     10  C   UNL     1       2.069  -4.523  25.157  0.00  0.00    +0.069 A 
ATOM     11  F   UNL     1       0.801  -6.427  24.579  0.00  0.00    -0.202 F 
ATOM     12  F   UNL     1       3.094  -7.903  24.305  0.00  0.00    -0.202 F 
ATOM     13  C   UNL     1       3.291  -3.903  25.390  0.00  0.00    +0.079 A 
ATOM     14  N   UNL     1       3.302  -2.610  25.721  0.00  0.00    -0.235 NA
ATOM     15  C   UNL     1       4.501  -2.059  25.949  0.00  0.00    +0.223 A 
ATOM     16  N   UNL     1       5.688  -2.670  25.870  0.00  0.00    -0.220 NA
ENDBRANCH   2   3
BRANCH   2  17
ATOM     17  C   UNL     1       8.866  -3.690  24.271  0.00  0.00    +0.069 C 
BRANCH  17  18
ATOM     18  C   UNL     1       9.349  -2.226  24.125  0.00  0.00    -0.038 A 
ATOM     19  C   UNL     1       9.033  -1.282  25.119  0.00  0.00    +0.004 A 
ATOM     20  C   UNL     1       9.503   0.033  25.040  0.00  0.00    +0.000 A 
ATOM     21  C   UNL     1      10.282   0.440  23.959  0.00  0.00    +0.000 A 
ATOM     22  C   UNL     1      10.569  -0.461  22.944  0.00  0.00    +0.000 A 
ATOM     23  C   UNL     1      10.097  -1.774  23.021  0.00  0.00    +0.004 A 
ENDBRANCH  17  18
BRANCH  17  24
ATOM     24  C   UNL     1       7.957  -4.166  23.115  0.00  0.00    -0.038 A 
ATOM     25  C   UNL     1       7.874  -5.535  22.809  0.00  0.00    +0.004 A 
ATOM     26  C   UNL     1       6.883  -6.017  21.950  0.00  0.00    +0.000 A 
ATOM     27  C   UNL     1       5.982  -5.135  21.357  0.00  0.00    +0.000 A 
ATOM     28  C   UNL     1       6.102  -3.768  21.583  0.00  0.00    +0.000 A 
ATOM     29  C   UNL     1       7.089  -3.285  22.445  0.00  0.00    +0.004 A 
ENDBRANCH  17  24
ENDBRANCH   2  17
TORSDOF 4
ENDMDL
MODEL 7
REMARK VINA RESULT:      -6.8      3.449      6.619
REMARK  Name = 
REMARK  5 active torsions:
REMARK  status: ('A' for Active; 'I' for Inactive)
REMARK    1  A    between atoms: C_1  and  C_2
REMARK    2  A    between atoms: C_2  and  N_4
REMARK    3  A    between atoms: C_2  and  C_17
REMARK    4  A    between atoms: C_17  and  C_18
REMARK    5  A    between atoms: C_17  and  C_24
REMARK                            x       y       z     vdW  Elec       q    Type
REMARK                         _______ _______ _______ _____ _____    ______ ____
ROOT
ATOM      1  C   UNL     1       8.841  -3.111  26.731  0.00  0.00    +0.029 C 
ATOM      2  C   UNL     1       8.207  -3.348  25.354  0.00  0.00    +0.080 C 
ENDROOT
BRANCH   2   3
ATOM      3  N   UNL     1       7.774  -2.048  24.800  0.00  0.00    -0.325 N 
ATOM      4  H   UNL     1       6.787  -2.072  24.562  0.00  0.00    +0.148 HD
ATOM      5  C   UNL     1       8.466  -1.454  23.742  0.00  0.00    +0.130 A 
ATOM      6  C   UNL     1       7.988  -0.230  23.229  0.00  0.00    +0.043 A 
ATOM      7  C   UNL     1       6.831   0.444  23.699  0.00  0.00    +0.054 A 
ATOM      8  C   UNL     1       6.439   1.643  23.124  0.00  0.00    +0.159 A 
ATOM      9  C   UNL     1       7.189   2.192  22.100  0.00  0.00    +0.160 A 
ATOM     10  C   UNL     1       8.327   1.538  21.634  0.00  0.00    +0.069 A 
ATOM     11  F   UNL     1       6.826   3.356  21.546  0.00  0.00    -0.202 F 
ATOM     12  F   UNL     1       5.337   2.261  23.569  0.00  0.00    -0.202 F 
ATOM     13  C   UNL     1       8.736   0.328  22.181  0.00  0.00    +0.079 A 
ATOM     14  N   UNL     1       9.828  -0.262  21.689  0.00  0.00    -0.235 NA
ATOM     15  C   UNL     1      10.192  -1.420  22.256  0.00  0.00    +0.223 A 
ATOM     16  N   UNL     1       9.569  -2.048  23.259  0.00  0.00    -0.220 NA
ENDBRANCH   2   3
BRANCH   2  17
ATOM     17  C   UNL     1       6.974  -4.351  25.398  0.00  0.00    +0.069 C 
BRANCH  17  18
ATOM     18  C   UNL     1       6.613  -4.950  24.017  0.00  0.00    -0.038 A 
ATOM     19  C   UNL     1       5.313  -5.435  23.782  0.00  0.00    +0.004 A 
ATOM     20  C   UNL     1       4.944  -5.930  22.526  0.00  0.00    +0.000 A 
ATOM     21  C   UNL     1       5.867  -5.969  21.484  0.00  0.00    +0.000 A 
ATOM     22  C   UNL     1       7.168  -5.538  21.705  0.00  0.00    +0.000 A 
ATOM     23  C   UNL     1       7.538  -5.047  22.960  0.00  0.00    +0.004 A 
ENDBRANCH  17  18
BRANCH  17  24
ATOM     24  C   UNL     1       5.781  -3.684  26.120  0.00  0.00    -0.038 A 
ATOM     25  C   UNL     1       5.405  -4.125  27.401  0.00  0.00    +0.004 A 
ATOM     26  C   UNL     1       4.506  -3.385  28.175  0.00  0.00    +0.000 A 
ATOM     27  C   UNL     1       3.945  -2.215  27.670  0.00  0.00    +0.000 A 
ATOM     28  C   UNL     1       4.243  -1.809  26.374  0.00  0.00    +0.000 A 
ATOM     29  C   UNL     1       5.143  -2.544  25.600  0.00  0.00    +0.004 A 
ENDBRANCH  17  24
ENDBRANCH   2  17
TORSDOF 4
ENDMDL
MODEL 8
REMARK VINA RESULT:      -6.8      1.244      2.692
REMARK  Name = 
REMARK  5 active torsions:
REMARK  status: ('A' for Active; 'I' for Inactive)
REMARK    1  A    between atoms: C_1  and  C_2
REMARK    2  A    between atoms: C_2  and  N_4
REMARK    3  A    between atoms: C_2  and  C_17
REMARK    4  A    between atoms: C_17  and  C_18
REMARK    5  A    between atoms: C_17  and  C_24
REMARK                            x       y       z     vdW  Elec       q    Type
REMARK                         _______ _______ _______ _____ _____    ______ ____
ROOT
ATOM      1  C   UNL     1       9.800  -2.614  23.892  0.00  0.00    +0.029 C 
ATOM      2  C   UNL     1       8.735  -2.141  24.889  0.00  0.00    +0.080 C 
ENDROOT
BRANCH   2   3
ATOM      3  N   UNL     1       7.782  -3.245  25.126  0.00  0.00    -0.325 N 
ATOM      4  H   UNL     1       8.260  -4.053  25.515  0.00  0.00    +0.148 HD
ATOM      5  C   UNL     1       6.929  -3.687  24.111  0.00  0.00    +0.130 A 
ATOM      6  C   UNL     1       6.065  -4.768  24.382  0.00  0.00    +0.043 A 
ATOM      7  C   UNL     1       6.007  -5.463  25.618  0.00  0.00    +0.054 A 
ATOM      8  C   UNL     1       5.124  -6.519  25.784  0.00  0.00    +0.159 A 
ATOM      9  C   UNL     1       4.285  -6.884  24.747  0.00  0.00    +0.160 A 
ATOM     10  C   UNL     1       4.334  -6.205  23.532  0.00  0.00    +0.069 A 
ATOM     11  F   UNL     1       3.420  -7.895  24.902  0.00  0.00    -0.202 F 
ATOM     12  F   UNL     1       5.090  -7.174  26.952  0.00  0.00    -0.202 F 
ATOM     13  C   UNL     1       5.219  -5.153  23.330  0.00  0.00    +0.079 A 
ATOM     14  N   UNL     1       5.233  -4.544  22.143  0.00  0.00    -0.235 NA
ATOM     15  C   UNL     1       6.092  -3.527  21.999  0.00  0.00    +0.223 A 
ATOM     16  N   UNL     1       6.942  -3.064  22.922  0.00  0.00    -0.220 NA
ENDBRANCH   2   3
BRANCH   2  17
ATOM     17  C   UNL     1       7.949  -0.849  24.396  0.00  0.00    +0.069 C 
BRANCH  17  18
ATOM     18  C   UNL     1       8.858   0.212  23.728  0.00  0.00    -0.038 A 
ATOM     19  C   UNL     1       8.763   0.443  22.344  0.00  0.00    +0.004 A 
ATOM     20  C   UNL     1       9.534   1.434  21.724  0.00  0.00    +0.000 A 
ATOM     21  C   UNL     1      10.427   2.201  22.468  0.00  0.00    +0.000 A 
ATOM     22  C   UNL     1      10.571   1.960  23.827  0.00  0.00    +0.000 A 
ATOM     23  C   UNL     1       9.804   0.969  24.445  0.00  0.00    +0.004 A 
ENDBRANCH  17  18
BRANCH  17  24
ATOM     24  C   UNL     1       7.082  -0.291  25.548  0.00  0.00    -0.038 A 
ATOM     25  C   UNL     1       7.620  -0.192  26.842  0.00  0.00    +0.004 A 
ATOM     26  C   UNL     1       6.959   0.534  27.837  0.00  0.00    +0.000 A 
ATOM     27  C   UNL     1       5.735   1.141  27.564  0.00  0.00    +0.000 A 
ATOM     28  C   UNL     1       5.149   0.983  26.313  0.00  0.00    +0.000 A 
ATOM     29  C   UNL     1       5.810   0.263  25.317  0.00  0.00    +0.004 A 
ENDBRANCH  17  24
ENDBRANCH   2  17
TORSDOF 4
ENDMDL
MODEL 9
REMARK VINA RESULT:      -6.7      2.787      5.156
REMARK  Name = 
REMARK  5 active torsions:
REMARK  status: ('A' for Active; 'I' for Inactive)
REMARK    1  A    between atoms: C_1  and  C_2
REMARK    2  A    between atoms: C_2  and  N_4
REMARK    3  A    between atoms: C_2  and  C_17
REMARK    4  A    between atoms: C_17  and  C_18
REMARK    5  A    between atoms: C_17  and  C_24
REMARK                            x       y       z     vdW  Elec       q    Type
REMARK                         _______ _______ _______ _____ _____    ______ ____
ROOT
ATOM      1  C   UNL     1      10.943   0.958  24.400  0.00  0.00    +0.029 C 
ATOM      2  C   UNL     1       9.444   1.271  24.311  0.00  0.00    +0.080 C 
ENDROOT
BRANCH   2   3
ATOM      3  N   UNL     1       8.736   0.074  23.812  0.00  0.00    -0.325 N 
ATOM      4  H   UNL     1       7.905   0.341  23.292  0.00  0.00    +0.148 HD
ATOM      5  C   UNL     1       8.397  -0.970  24.676  0.00  0.00    +0.130 A 
ATOM      6  C   UNL     1       7.690  -2.073  24.153  0.00  0.00    +0.043 A 
ATOM      7  C   UNL     1       7.275  -2.197  22.801  0.00  0.00    +0.054 A 
ATOM      8  C   UNL     1       6.580  -3.321  22.385  0.00  0.00    +0.159 A 
ATOM      9  C   UNL     1       6.304  -4.333  23.286  0.00  0.00    +0.160 A 
ATOM     10  C   UNL     1       6.710  -4.220  24.614  0.00  0.00    +0.069 A 
ATOM     11  F   UNL     1       5.643  -5.429  22.891  0.00  0.00    -0.202 F 
ATOM     12  F   UNL     1       6.183  -3.417  21.109  0.00  0.00    -0.202 F 
ATOM     13  C   UNL     1       7.396  -3.099  25.064  0.00  0.00    +0.079 A 
ATOM     14  N   UNL     1       7.752  -3.037  26.349  0.00  0.00    -0.235 NA
ATOM     15  C   UNL     1       8.423  -1.944  26.735  0.00  0.00    +0.223 A 
ATOM     16  N   UNL     1       8.766  -0.906  25.965  0.00  0.00    -0.220 NA
ENDBRANCH   2   3
BRANCH   2  17
ATOM     17  C   UNL     1       9.120   2.516  23.375  0.00  0.00    +0.069 C 
BRANCH  17  18
ATOM     18  C   UNL     1      10.032   3.740  23.637  0.00  0.00    -0.038 A 
ATOM     19  C   UNL     1      11.365   3.729  23.186  0.00  0.00    +0.004 A 
ATOM     20  C   UNL     1      12.195   4.843  23.360  0.00  0.00    +0.000 A 
ATOM     21  C   UNL     1      11.718   5.983  24.002  0.00  0.00    +0.000 A 
ATOM     22  C   UNL     1      10.421   6.001  24.495  0.00  0.00    +0.000 A 
ATOM     23  C   UNL     1       9.594   4.887  24.325  0.00  0.00    +0.004 A 
ENDBRANCH  17  18
BRANCH  17  24
ATOM     24  C   UNL     1       7.610   2.839  23.435  0.00  0.00    -0.038 A 
ATOM     25  C   UNL     1       6.941   3.262  22.274  0.00  0.00    +0.004 A 
ATOM     26  C   UNL     1       5.544   3.317  22.235  0.00  0.00    +0.000 A 
ATOM     27  C   UNL     1       4.799   2.983  23.363  0.00  0.00    +0.000 A 
ATOM     28  C   UNL     1       5.448   2.642  24.545  0.00  0.00    +0.000 A 
ATOM     29  C   UNL     1       6.843   2.583  24.585  0.00  0.00    +0.004 A 
ENDBRANCH  17  24
ENDBRANCH   2  17
TORSDOF 4
ENDMDL
