MODEL 1
REMARK VINA RESULT:      -4.5      0.000      0.000
REMARK  Name = 
REMARK  4 active torsions:
REMARK  status: ('A' for Active; 'I' for Inactive)
REMARK    1  A    between atoms: C_1  and  C_2
REMARK    2  A    between atoms: C_2  and  C_3
REMARK    3  A    between atoms: C_2  and  N_4
REMARK    4  A    between atoms: N_7  and  O_8
REMARK                            x       y       z     vdW  Elec       q    Type
REMARK                         _______ _______ _______ _____ _____    ______ ____
ROOT
ATOM      1  N   UNL     1      10.847   5.562  23.530  0.00  0.00    -0.272 N 
ATOM      2  H   UNL     1      10.546   4.626  23.279  0.00  0.00    +0.258 HD
ATOM      3  C   UNL     1      12.171   5.673  23.800  0.00  0.00    +0.406 C 
ATOM      4  N   UNL     1      12.929   4.879  22.977  0.00  0.00    -0.142 N 
ATOM      5  H   UNL     1      12.621   4.910  22.009  0.00  0.00    +0.299 HD
ATOM      6  N   UNL     1      12.721   6.423  24.692  0.00  0.00    -0.128 NA
ATOM      7  H   UNL     1      11.992   6.919  25.205  0.00  0.00    +0.306 HD
ENDROOT
BRANCH   1   9
ATOM      8  C   UNL     1       8.644   6.344  22.927  0.00  0.00    +0.047 C 
ATOM      9  C   UNL     1       9.793   6.476  23.926  0.00  0.00    +0.139 C 
ATOM     10  C   UNL     1       9.302   6.179  25.338  0.00  0.00    +0.047 C 
ENDBRANCH   1   9
BRANCH   4  11
ATOM     11  O   UNL     1      14.302   5.153  23.100  0.00  0.00    -0.233 OA
ATOM     12  H   UNL     1      14.686   4.623  22.361  0.00  0.00    +0.262 HD
ENDBRANCH   4  11
TORSDOF 2
ENDMDL
MODEL 2
REMARK VINA RESULT:      -4.1     11.823     12.132
REMARK  Name = 
REMARK  4 active torsions:
REMARK  status: ('A' for Active; 'I' for Inactive)
REMARK    1  A    between atoms: C_1  and  C_2
REMARK    2  A    between atoms: C_2  and  C_3
REMARK    3  A    between atoms: C_2  and  N_4
REMARK    4  A    between atoms: N_7  and  O_8
REMARK                            x       y       z     vdW  Elec       q    Type
REMARK                         _______ _______ _______ _____ _____    ______ ____
ROOT
ATOM      1  N   UNL     1       7.890  -5.831  27.106  0.00  0.00    -0.272 N 
ATOM      2  H   UNL     1       8.367  -6.560  27.626  0.00  0.00    +0.258 HD
ATOM      3  C   UNL     1       8.706  -5.053  26.353  0.00  0.00    +0.406 C 
ATOM      4  N   UNL     1       9.728  -5.776  25.791  0.00  0.00    -0.142 N 
ATOM      5  H   UNL     1       9.416  -6.667  25.416  0.00  0.00    +0.299 HD
ATOM      6  N   UNL     1       8.588  -3.788  26.136  0.00  0.00    -0.128 NA
ATOM      7  H   UNL     1       7.781  -3.436  26.651  0.00  0.00    +0.306 HD
ENDROOT
BRANCH   1   9
ATOM      8  C   UNL     1       5.570  -5.909  26.444  0.00  0.00    +0.047 C 
ATOM      9  C   UNL     1       6.547  -5.517  27.552  0.00  0.00    +0.139 C 
ATOM     10  C   UNL     1       6.204  -6.252  28.843  0.00  0.00    +0.047 C 
ENDBRANCH   1   9
BRANCH   4  11
ATOM     11  O   UNL     1      10.441  -5.026  24.840  0.00  0.00    -0.233 OA
ATOM     12  H   UNL     1      11.314  -4.906  25.283  0.00  0.00    +0.262 HD
ENDBRANCH   4  11
TORSDOF 2
ENDMDL
MODEL 3
REMARK VINA RESULT:      -3.9     11.137     11.372
REMARK  Name = 
REMARK  4 active torsions:
REMARK  status: ('A' for Active; 'I' for Inactive)
REMARK    1  A    between atoms: C_1  and  C_2
REMARK    2  A    between atoms: C_2  and  C_3
REMARK    3  A    between atoms: C_2  and  N_4
REMARK    4  A    between atoms: N_7  and  O_8
REMARK                            x       y       z     vdW  Elec       q    Type
REMARK                         _______ _______ _______ _____ _____    ______ ____
ROOT
ATOM      1  N   UNL     1       7.740  -5.233  23.782  0.00  0.00    -0.272 N 
ATOM      2  H   UNL     1       7.086  -5.773  24.340  0.00  0.00    +0.258 HD
ATOM      3  C   UNL     1       8.859  -4.848  24.444  0.00  0.00    +0.406 C 
ATOM      4  N   UNL     1       9.295  -5.812  25.317  0.00  0.00    -0.142 N 
ATOM      5  H   UNL     1       9.258  -6.746  24.919  0.00  0.00    +0.299 HD
ATOM      6  N   UNL     1       9.495  -3.736  24.309  0.00  0.00    -0.128 NA
ATOM      7  H   UNL     1       9.006  -3.152  23.630  0.00  0.00    +0.306 HD
ENDROOT
BRANCH   1   9
ATOM      8  C   UNL     1       6.969  -5.794  21.565  0.00  0.00    +0.047 C 
ATOM      9  C   UNL     1       7.203  -4.661  22.563  0.00  0.00    +0.139 C 
ATOM     10  C   UNL     1       5.902  -3.912  22.827  0.00  0.00    +0.047 C 
ENDBRANCH   1   9
BRANCH   4  11
ATOM     11  O   UNL     1      10.566  -5.514  25.838  0.00  0.00    -0.233 OA
ATOM     12  H   UNL     1      10.341  -5.064  26.687  0.00  0.00    +0.262 HD
ENDBRANCH   4  11
TORSDOF 2
ENDMDL
MODEL 4
REMARK VINA RESULT:      -3.9     10.044     10.330
REMARK  Name = 
REMARK  4 active torsions:
REMARK  status: ('A' for Active; 'I' for Inactive)
REMARK    1  A    between atoms: C_1  and  C_2
REMARK    2  A    between atoms: C_2  and  C_3
REMARK    3  A    between atoms: C_2  and  N_4
REMARK    4  A    between atoms: N_7  and  O_8
REMARK                            x       y       z     vdW  Elec       q    Type
REMARK                         _______ _______ _______ _____ _____    ______ ____
ROOT
ATOM      1  N   UNL     1       9.103  -3.078  25.044  0.00  0.00    -0.272 N 
ATOM      2  H   UNL     1       9.005  -2.389  25.783  0.00  0.00    +0.258 HD
ATOM      3  C   UNL     1       9.194  -4.360  25.478  0.00  0.00    +0.406 C 
ATOM      4  N   UNL     1       8.388  -4.590  26.564  0.00  0.00    -0.142 N 
ATOM      5  H   UNL     1       7.468  -4.170  26.465  0.00  0.00    +0.299 HD
ATOM      6  N   UNL     1       9.915  -5.300  24.973  0.00  0.00    -0.128 NA
ATOM      7  H   UNL     1      10.450  -4.925  24.189  0.00  0.00    +0.306 HD
ENDROOT
BRANCH   1   9
ATOM      8  C   UNL     1       8.328  -2.686  22.792  0.00  0.00    +0.047 C 
ATOM      9  C   UNL     1       9.510  -2.560  23.752  0.00  0.00    +0.139 C 
ATOM     10  C   UNL     1       9.957  -1.106  23.853  0.00  0.00    +0.047 C 
ENDBRANCH   1   9
BRANCH   4  11
ATOM     11  O   UNL     1       8.309  -5.958  26.880  0.00  0.00    -0.233 OA
ATOM     12  H   UNL     1       8.865  -6.365  26.174  0.00  0.00    +0.262 HD
ENDBRANCH   4  11
TORSDOF 2
ENDMDL
MODEL 5
REMARK VINA RESULT:      -3.8     11.853     12.129
REMARK  Name = 
REMARK  4 active torsions:
REMARK  status: ('A' for Active; 'I' for Inactive)
REMARK    1  A    between atoms: C_1  and  C_2
REMARK    2  A    between atoms: C_2  and  C_3
REMARK    3  A    between atoms: C_2  and  N_4
REMARK    4  A    between atoms: N_7  and  O_8
REMARK                            x       y       z     vdW  Elec       q    Type
REMARK                         _______ _______ _______ _____ _____    ______ ____
ROOT
ATOM      1  N   UNL     1       7.225  -5.029  24.919  0.00  0.00    -0.272 N 
ATOM      2  H   UNL     1       6.299  -4.616  24.966  0.00  0.00    +0.258 HD
ATOM      3  C   UNL     1       7.760  -5.348  26.124  0.00  0.00    +0.406 C 
ATOM      4  N   UNL     1       6.813  -5.822  26.996  0.00  0.00    -0.142 N 
ATOM      5  H   UNL     1       6.169  -6.474  26.556  0.00  0.00    +0.299 HD
ATOM      6  N   UNL     1       8.997  -5.256  26.472  0.00  0.00    -0.128 NA
ATOM      7  H   UNL     1       9.534  -4.869  25.695  0.00  0.00    +0.306 HD
ENDROOT
BRANCH   1   9
ATOM      8  C   UNL     1       7.249  -5.692  22.599  0.00  0.00    +0.047 C 
ATOM      9  C   UNL     1       7.934  -4.842  23.668  0.00  0.00    +0.139 C 
ATOM     10  C   UNL     1       7.946  -3.376  23.251  0.00  0.00    +0.047 C 
ENDBRANCH   1   9
BRANCH   4  11
ATOM     11  O   UNL     1       7.390  -6.358  28.160  0.00  0.00    -0.233 OA
ATOM     12  H   UNL     1       6.601  -6.506  28.733  0.00  0.00    +0.262 HD
ENDBRANCH   4  11
TORSDOF 2
ENDMDL
MODEL 6
REMARK VINA RESULT:      -3.8      4.624      5.396
REMARK  Name = 
REMARK  4 active torsions:
REMARK  status: ('A' for Active; 'I' for Inactive)
REMARK    1  A    between atoms: C_1  and  C_2
REMARK    2  A    between atoms: C_2  and  C_3
REMARK    3  A    between atoms: C_2  and  N_4
REMARK    4  A    between atoms: N_7  and  O_8
REMARK                            x       y       z     vdW  Elec       q    Type
REMARK                         _______ _______ _______ _____ _____    ______ ____
ROOT
ATOM      1  N   UNL     1       8.287   4.288  22.737  0.00  0.00    -0.272 N 
ATOM      2  H   UNL     1       9.062   4.788  23.161  0.00  0.00    +0.258 HD
ATOM      3  C   UNL     1       7.299   5.085  22.259  0.00  0.00    +0.406 C 
ATOM      4  N   UNL     1       7.795   6.236  21.699  0.00  0.00    -0.142 N 
ATOM      5  H   UNL     1       8.614   6.068  21.121  0.00  0.00    +0.299 HD
ATOM      6  N   UNL     1       6.033   4.848  22.280  0.00  0.00    -0.128 NA
ATOM      7  H   UNL     1       5.868   3.957  22.749  0.00  0.00    +0.306 HD
ENDROOT
BRANCH   1   9
ATOM      8  C   UNL     1       8.408   2.075  21.782  0.00  0.00    +0.047 C 
ATOM      9  C   UNL     1       8.193   2.879  23.064  0.00  0.00    +0.139 C 
ATOM     10  C   UNL     1       9.224   2.484  24.115  0.00  0.00    +0.047 C 
ENDBRANCH   1   9
BRANCH   4  11
ATOM     11  O   UNL     1       6.804   6.955  21.010  0.00  0.00    -0.233 OA
ATOM     12  H   UNL     1       7.193   7.861  20.976  0.00  0.00    +0.262 HD
ENDBRANCH   4  11
TORSDOF 2
ENDMDL
MODEL 7
REMARK VINA RESULT:      -3.8      6.548      6.907
REMARK  Name = 
REMARK  4 active torsions:
REMARK  status: ('A' for Active; 'I' for Inactive)
REMARK    1  A    between atoms: C_1  and  C_2
REMARK    2  A    between atoms: C_2  and  C_3
REMARK    3  A    between atoms: C_2  and  N_4
REMARK    4  A    between atoms: N_7  and  O_8
REMARK                            x       y       z     vdW  Elec       q    Type
REMARK                         _______ _______ _______ _____ _____    ______ ____
ROOT
ATOM      1  N   UNL     1      10.133   0.236  23.199  0.00  0.00    -0.272 N 
ATOM      2  H   UNL     1      10.482   0.511  24.112  0.00  0.00    +0.258 HD
ATOM      3  C   UNL     1      10.179  -1.098  22.958  0.00  0.00    +0.406 C 
ATOM      4  N   UNL     1       9.889  -1.831  24.081  0.00  0.00    -0.142 N 
ATOM      5  H   UNL     1       9.104  -1.453  24.603  0.00  0.00    +0.299 HD
ATOM      6  N   UNL     1      10.441  -1.675  21.836  0.00  0.00    -0.128 NA
ATOM      7  H   UNL     1      10.644  -0.962  21.135  0.00  0.00    +0.306 HD
ENDROOT
BRANCH   1   9
ATOM      8  C   UNL     1       8.603   1.313  21.675  0.00  0.00    +0.047 C 
ATOM      9  C   UNL     1      10.031   1.299  22.219  0.00  0.00    +0.139 C 
ATOM     10  C   UNL     1      10.376   2.652  22.830  0.00  0.00    +0.047 C 
ENDBRANCH   1   9
BRANCH   4  11
ATOM     11  O   UNL     1       9.719  -3.195  23.789  0.00  0.00    -0.233 OA
ATOM     12  H   UNL     1      10.649  -3.522  23.775  0.00  0.00    +0.262 HD
ENDBRANCH   4  11
TORSDOF 2
ENDMDL
MODEL 8
REMARK VINA RESULT:      -3.7      5.626      6.260
REMARK  Name = 
REMARK  4 active torsions:
REMARK  status: ('A' for Active; 'I' for Inactive)
REMARK    1  A    between atoms: C_1  and  C_2
REMARK    2  A    between atoms: C_2  and  C_3
REMARK    3  A    between atoms: C_2  and  N_4
REMARK    4  A    between atoms: N_7  and  O_8
REMARK                            x       y       z     vdW  Elec       q    Type
REMARK                         _______ _______ _______ _____ _____    ______ ____
ROOT
ATOM      1  N   UNL     1       9.142   0.599  23.048  0.00  0.00    -0.272 N 
ATOM      2  H   UNL     1       8.264   0.092  23.002  0.00  0.00    +0.258 HD
ATOM      3  C   UNL     1       9.150   1.771  22.365  0.00  0.00    +0.406 C 
ATOM      4  N   UNL     1       7.946   2.422  22.451  0.00  0.00    -0.142 N 
ATOM      5  H   UNL     1       7.558   2.405  23.390  0.00  0.00    +0.299 HD
ATOM      6  N   UNL     1      10.135   2.277  21.706  0.00  0.00    -0.128 NA
ATOM      7  H   UNL     1      10.929   1.637  21.749  0.00  0.00    +0.306 HD
ENDROOT
BRANCH   1   9
ATOM      8  C   UNL     1      10.789   0.408  24.801  0.00  0.00    +0.047 C 
ATOM      9  C   UNL     1      10.292  -0.172  23.478  0.00  0.00    +0.139 C 
ATOM     10  C   UNL     1       9.941  -1.646  23.645  0.00  0.00    +0.047 C 
ENDBRANCH   1   9
BRANCH   4  11
ATOM     11  O   UNL     1       8.016   3.728  21.936  0.00  0.00    -0.233 OA
ATOM     12  H   UNL     1       8.567   3.603  21.128  0.00  0.00    +0.262 HD
ENDBRANCH   4  11
TORSDOF 2
ENDMDL
MODEL 9
REMARK VINA RESULT:      -3.7      5.568      5.972
REMARK  Name = 
REMARK  4 active torsions:
REMARK  status: ('A' for Active; 'I' for Inactive)
REMARK    1  A    between atoms: C_1  and  C_2
REMARK    2  A    between atoms: C_2  and  C_3
REMARK    3  A    between atoms: C_2  and  N_4
REMARK    4  A    between atoms: N_7  and  O_8
REMARK                            x       y       z     vdW  Elec       q    Type
REMARK                         _______ _______ _______ _____ _____    ______ ____
ROOT
ATOM      1  N   UNL     1       9.544   0.628  23.258  0.00  0.00    -0.272 N 
ATOM      2  H   UNL     1       9.239   0.710  24.223  0.00  0.00    +0.258 HD
ATOM      3  C   UNL     1       9.951   1.793  22.695  0.00  0.00    +0.406 C 
ATOM      4  N   UNL     1      10.626   2.584  23.590  0.00  0.00    -0.142 N 
ATOM      5  H   UNL     1      11.282   2.058  24.160  0.00  0.00    +0.299 HD
ATOM      6  N   UNL     1       9.773   2.169  21.476  0.00  0.00    -0.128 NA
ATOM      7  H   UNL     1       9.240   1.453  20.981  0.00  0.00    +0.306 HD
ENDROOT
BRANCH   1   9
ATOM      8  C   UNL     1      10.312  -1.548  22.550  0.00  0.00    +0.047 C 
ATOM      9  C   UNL     1       9.130  -0.580  22.569  0.00  0.00    +0.139 C 
ATOM     10  C   UNL     1       7.929  -1.224  23.252  0.00  0.00    +0.047 C 
ENDBRANCH   1   9
BRANCH   4  11
ATOM     11  O   UNL     1      11.237   3.683  22.963  0.00  0.00    -0.233 OA
ATOM     12  H   UNL     1      11.978   3.889  23.581  0.00  0.00    +0.262 HD
ENDBRANCH   4  11
TORSDOF 2
ENDMDL
