MODEL 1
REMARK VINA RESULT:      -4.6      0.000      0.000
REMARK  Name = 
REMARK  8 active torsions:
REMARK  status: ('A' for Active; 'I' for Inactive)
REMARK    1  A    between atoms: C_1  and  C_2
REMARK    2  A    between atoms: N_4  and  C_5
REMARK    3  A    between atoms: C_5  and  C_6
REMARK    4  A    between atoms: C_6  and  C_7
REMARK    5  A    between atoms: C_7  and  CA_8
REMARK    6  A    between atoms: CA_8  and  N_10
REMARK    7  A    between atoms: CA_8  and  C_11
REMARK    8  A    between atoms: C_11  and  O_12
REMARK                            x       y       z     vdW  Elec       q    Type
REMARK                         _______ _______ _______ _____ _____    ______ ____
ROOT
ATOM      1  C   UNL     1       9.359  -0.831  24.576  0.00  0.00    +0.033 C 
ENDROOT
BRANCH   1   2
ATOM      2  C   UNL     1      10.299   0.245  25.131  0.00  0.00    +0.045 C 
BRANCH   2   3
ATOM      3  C   UNL     1      10.454   1.401  24.141  0.00  0.00    +0.223 C 
BRANCH   3   6
ATOM      4  C   UNL     1       7.469   2.462  21.995  0.00  0.00    +0.144 C 
ATOM      5  C   UNL     1       8.885   2.092  22.367  0.00  0.00    +0.275 C 
ATOM      6  N   UNL     1       9.153   1.853  23.687  0.00  0.00    -0.238 N 
ATOM      7  H   UNL     1       8.371   1.743  24.321  0.00  0.00    +0.291 HD
ATOM      8  N   UNL     1       9.801   2.010  21.456  0.00  0.00    -0.104 NA
ATOM      9  H   UNL     1       9.418   2.223  20.531  0.00  0.00    +0.363 HD
ENDBRANCH   3   6
ENDBRANCH   2   3
ENDBRANCH   1   2
BRANCH   1  10
ATOM     10  CA  UNL     1      10.010  -1.748  23.533  0.00  0.00    +0.161 C 
BRANCH  10  11
ATOM     11  N   UNL     1      10.015  -3.171  23.980  0.00  0.00    -0.318 NA
ATOM     12  H1  UNL     1       9.906  -3.174  25.001  0.00  0.00    +0.119 HD
ATOM     13  H2  UNL     1       9.158  -3.617  23.644  0.00  0.00    +0.119 HD
ENDBRANCH  10  11
BRANCH  10  14
ATOM     14  C   UNL     1       9.202  -1.662  22.227  0.00  0.00    +0.322 C 
ATOM     15  OXT UNL     1       8.072  -2.090  22.070  0.00  0.00    -0.249 OA
BRANCH  14  16
ATOM     16  O   UNL     1       9.929  -1.068  21.241  0.00  0.00    -0.480 OA
ATOM     17  H   UNL     1      10.874  -1.300  21.416  0.00  0.00    +0.295 HD
ENDBRANCH  14  16
ENDBRANCH  10  14
ENDBRANCH   1  10
TORSDOF 7
ENDMDL
MODEL 2
REMARK VINA RESULT:      -4.4      3.405      4.322
REMARK  Name = 
REMARK  8 active torsions:
REMARK  status: ('A' for Active; 'I' for Inactive)
REMARK    1  A    between atoms: C_1  and  C_2
REMARK    2  A    between atoms: N_4  and  C_5
REMARK    3  A    between atoms: C_5  and  C_6
REMARK    4  A    between atoms: C_6  and  C_7
REMARK    5  A    between atoms: C_7  and  CA_8
REMARK    6  A    between atoms: CA_8  and  N_10
REMARK    7  A    between atoms: CA_8  and  C_11
REMARK    8  A    between atoms: C_11  and  O_12
REMARK                            x       y       z     vdW  Elec       q    Type
REMARK                         _______ _______ _______ _____ _____    ______ ____
ROOT
ATOM      1  C   UNL     1       7.518  -3.566  25.928  0.00  0.00    +0.033 C 
ENDROOT
BRANCH   1   2
ATOM      2  C   UNL     1       7.335  -2.205  26.608  0.00  0.00    +0.045 C 
BRANCH   2   3
ATOM      3  C   UNL     1       8.573  -1.326  26.418  0.00  0.00    +0.223 C 
BRANCH   3   6
ATOM      4  C   UNL     1      10.305  -0.555  23.094  0.00  0.00    +0.144 C 
ATOM      5  C   UNL     1       9.917  -0.439  24.550  0.00  0.00    +0.275 C 
ATOM      6  N   UNL     1       8.954  -1.289  25.019  0.00  0.00    -0.238 N 
ATOM      7  H   UNL     1       8.685  -2.074  24.440  0.00  0.00    +0.291 HD
ATOM      8  N   UNL     1      10.485   0.441  25.310  0.00  0.00    -0.104 NA
ATOM      9  H   UNL     1      11.176   0.985  24.787  0.00  0.00    +0.363 HD
ENDBRANCH   3   6
ENDBRANCH   2   3
ENDBRANCH   1   2
BRANCH   1  10
ATOM     10  CA  UNL     1       8.622  -4.429  26.553  0.00  0.00    +0.161 C 
BRANCH  10  11
ATOM     11  N   UNL     1       8.065  -5.657  27.188  0.00  0.00    -0.318 NA
ATOM     12  H1  UNL     1       8.825  -6.345  27.251  0.00  0.00    +0.119 HD
ATOM     13  H2  UNL     1       7.850  -5.445  28.166  0.00  0.00    +0.119 HD
ENDBRANCH  10  11
BRANCH  10  14
ATOM     14  C   UNL     1       9.594  -4.865  25.444  0.00  0.00    +0.322 C 
ATOM     15  OXT UNL     1      10.002  -4.151  24.544  0.00  0.00    -0.249 OA
BRANCH  14  16
ATOM     16  O   UNL     1       9.923  -6.179  25.571  0.00  0.00    -0.480 OA
ATOM     17  H   UNL     1       9.957  -6.547  24.654  0.00  0.00    +0.295 HD
ENDBRANCH  14  16
ENDBRANCH  10  14
ENDBRANCH   1  10
TORSDOF 7
ENDMDL
MODEL 3
REMARK VINA RESULT:      -4.4      3.506      4.115
REMARK  Name = 
REMARK  8 active torsions:
REMARK  status: ('A' for Active; 'I' for Inactive)
REMARK    1  A    between atoms: C_1  and  C_2
REMARK    2  A    between atoms: N_4  and  C_5
REMARK    3  A    between atoms: C_5  and  C_6
REMARK    4  A    between atoms: C_6  and  C_7
REMARK    5  A    between atoms: C_7  and  CA_8
REMARK    6  A    between atoms: CA_8  and  N_10
REMARK    7  A    between atoms: CA_8  and  C_11
REMARK    8  A    between atoms: C_11  and  O_12
REMARK                            x       y       z     vdW  Elec       q    Type
REMARK                         _______ _______ _______ _____ _____    ______ ____
ROOT
ATOM      1  C   UNL     1       8.884  -3.310  25.681  0.00  0.00    +0.033 C 
ENDROOT
BRANCH   1   2
ATOM      2  C   UNL     1       8.638  -2.287  24.567  0.00  0.00    +0.045 C 
BRANCH   2   3
ATOM      3  C   UNL     1       9.905  -2.061  23.740  0.00  0.00    +0.223 C 
BRANCH   3   6
ATOM      4  C   UNL     1       9.925   1.319  21.945  0.00  0.00    +0.144 C 
ATOM      5  C   UNL     1       9.845  -0.176  22.150  0.00  0.00    +0.275 C 
ATOM      6  N   UNL     1      10.050  -0.655  23.415  0.00  0.00    -0.238 N 
ATOM      7  H   UNL     1      10.053   0.005  24.182  0.00  0.00    +0.291 HD
ATOM      8  N   UNL     1       9.592  -0.961  21.153  0.00  0.00    -0.104 NA
ATOM      9  H   UNL     1       9.470  -0.426  20.288  0.00  0.00    +0.363 HD
ENDBRANCH   3   6
ENDBRANCH   2   3
ENDBRANCH   1   2
BRANCH   1  10
ATOM     10  CA  UNL     1       8.721  -4.768  25.233  0.00  0.00    +0.161 C 
BRANCH  10  11
ATOM     11  N   UNL     1       9.990  -5.535  25.390  0.00  0.00    -0.318 NA
ATOM     12  H1  UNL     1      10.506  -5.463  24.506  0.00  0.00    +0.119 HD
ATOM     13  H2  UNL     1      10.585  -5.040  26.058  0.00  0.00    +0.119 HD
ENDBRANCH  10  11
BRANCH  10  14
ATOM     14  C   UNL     1       7.648  -5.437  26.109  0.00  0.00    +0.322 C 
ATOM     15  OXT UNL     1       6.487  -5.619  25.783  0.00  0.00    -0.249 OA
BRANCH  14  16
ATOM     16  O   UNL     1       8.152  -5.776  27.326  0.00  0.00    -0.480 OA
ATOM     17  H   UNL     1       7.510  -6.414  27.725  0.00  0.00    +0.295 HD
ENDBRANCH  14  16
ENDBRANCH  10  14
ENDBRANCH   1  10
TORSDOF 7
ENDMDL
MODEL 4
REMARK VINA RESULT:      -4.4      3.467      4.592
REMARK  Name = 
REMARK  8 active torsions:
REMARK  status: ('A' for Active; 'I' for Inactive)
REMARK    1  A    between atoms: C_1  and  C_2
REMARK    2  A    between atoms: N_4  and  C_5
REMARK    3  A    between atoms: C_5  and  C_6
REMARK    4  A    between atoms: C_6  and  C_7
REMARK    5  A    between atoms: C_7  and  CA_8
REMARK    6  A    between atoms: CA_8  and  N_10
REMARK    7  A    between atoms: CA_8  and  C_11
REMARK    8  A    between atoms: C_11  and  O_12
REMARK                            x       y       z     vdW  Elec       q    Type
REMARK                         _______ _______ _______ _____ _____    ______ ____
ROOT
ATOM      1  C   UNL     1       9.218   2.761  24.139  0.00  0.00    +0.033 C 
ENDROOT
BRANCH   1   2
ATOM      2  C   UNL     1       9.011   4.185  23.612  0.00  0.00    +0.045 C 
BRANCH   2   3
ATOM      3  C   UNL     1      10.155   5.103  24.049  0.00  0.00    +0.223 C 
BRANCH   3   6
ATOM      4  C   UNL     1      13.420   5.600  22.116  0.00  0.00    +0.144 C 
ATOM      5  C   UNL     1      12.423   5.653  23.249  0.00  0.00    +0.275 C 
ATOM      6  N   UNL     1      11.161   5.183  23.007  0.00  0.00    -0.238 N 
ATOM      7  H   UNL     1      11.003   4.651  22.161  0.00  0.00    +0.291 HD
ATOM      8  N   UNL     1      12.767   6.131  24.402  0.00  0.00    -0.104 NA
ATOM      9  H   UNL     1      13.744   6.434  24.395  0.00  0.00    +0.363 HD
ENDBRANCH   3   6
ENDBRANCH   2   3
ENDBRANCH   1   2
BRANCH   1  10
ATOM     10  CA  UNL     1       9.525   1.731  23.044  0.00  0.00    +0.161 C 
BRANCH  10  11
ATOM     11  N   UNL     1      10.206   2.360  21.876  0.00  0.00    -0.318 NA
ATOM     12  H1  UNL     1      10.847   1.662  21.479  0.00  0.00    +0.119 HD
ATOM     13  H2  UNL     1       9.514   2.500  21.136  0.00  0.00    +0.119 HD
ENDBRANCH  10  11
BRANCH  10  14
ATOM     14  C   UNL     1      10.464   0.660  23.623  0.00  0.00    +0.322 C 
ATOM     15  OXT UNL     1      11.341   0.863  24.446  0.00  0.00    -0.249 OA
BRANCH  14  16
ATOM     16  O   UNL     1      10.216  -0.558  23.071  0.00  0.00    -0.480 OA
ATOM     17  H   UNL     1       9.447  -0.434  22.460  0.00  0.00    +0.295 HD
ENDBRANCH  14  16
ENDBRANCH  10  14
ENDBRANCH   1  10
TORSDOF 7
ENDMDL
MODEL 5
REMARK VINA RESULT:      -4.3      2.636      3.793
REMARK  Name = 
REMARK  8 active torsions:
REMARK  status: ('A' for Active; 'I' for Inactive)
REMARK    1  A    between atoms: C_1  and  C_2
REMARK    2  A    between atoms: N_4  and  C_5
REMARK    3  A    between atoms: C_5  and  C_6
REMARK    4  A    between atoms: C_6  and  C_7
REMARK    5  A    between atoms: C_7  and  CA_8
REMARK    6  A    between atoms: CA_8  and  N_10
REMARK    7  A    between atoms: CA_8  and  C_11
REMARK    8  A    between atoms: C_11  and  O_12
REMARK                            x       y       z     vdW  Elec       q    Type
REMARK                         _______ _______ _______ _____ _____    ______ ____
ROOT
ATOM      1  C   UNL     1      10.039  -0.349  23.608  0.00  0.00    +0.033 C 
ENDROOT
BRANCH   1   2
ATOM      2  C   UNL     1       9.736  -1.801  23.991  0.00  0.00    +0.045 C 
BRANCH   2   3
ATOM      3  C   UNL     1       8.368  -1.916  24.666  0.00  0.00    +0.223 C 
BRANCH   3   6
ATOM      4  C   UNL     1       5.744  -3.054  22.123  0.00  0.00    +0.144 C 
ATOM      5  C   UNL     1       6.562  -2.135  23.000  0.00  0.00    +0.275 C 
ATOM      6  N   UNL     1       7.468  -2.708  23.849  0.00  0.00    -0.238 N 
ATOM      7  H   UNL     1       7.691  -3.687  23.721  0.00  0.00    +0.291 HD
ATOM      8  N   UNL     1       6.396  -0.853  22.938  0.00  0.00    -0.104 NA
ATOM      9  H   UNL     1       5.678  -0.609  22.251  0.00  0.00    +0.363 HD
ENDBRANCH   3   6
ENDBRANCH   2   3
ENDBRANCH   1   2
BRANCH   1  10
ATOM     10  CA  UNL     1      10.046  -0.093  22.095  0.00  0.00    +0.161 C 
BRANCH  10  11
ATOM     11  N   UNL     1       9.392  -1.206  21.348  0.00  0.00    -0.318 NA
ATOM     12  H1  UNL     1       9.782  -1.212  20.398  0.00  0.00    +0.119 HD
ATOM     13  H2  UNL     1       9.713  -2.093  21.745  0.00  0.00    +0.119 HD
ENDBRANCH  10  11
BRANCH  10  14
ATOM     14  C   UNL     1       9.260   1.198  21.809  0.00  0.00    +0.322 C 
ATOM     15  OXT UNL     1       8.046   1.301  21.828  0.00  0.00    -0.249 OA
BRANCH  14  16
ATOM     16  O   UNL     1      10.100   2.221  21.493  0.00  0.00    -0.480 OA
ATOM     17  H   UNL     1      10.579   1.943  20.672  0.00  0.00    +0.295 HD
ENDBRANCH  14  16
ENDBRANCH  10  14
ENDBRANCH   1  10
TORSDOF 7
ENDMDL
MODEL 6
REMARK VINA RESULT:      -4.3      3.584      4.649
REMARK  Name = 
REMARK  8 active torsions:
REMARK  status: ('A' for Active; 'I' for Inactive)
REMARK    1  A    between atoms: C_1  and  C_2
REMARK    2  A    between atoms: N_4  and  C_5
REMARK    3  A    between atoms: C_5  and  C_6
REMARK    4  A    between atoms: C_6  and  C_7
REMARK    5  A    between atoms: C_7  and  CA_8
REMARK    6  A    between atoms: CA_8  and  N_10
REMARK    7  A    between atoms: CA_8  and  C_11
REMARK    8  A    between atoms: C_11  and  O_12
REMARK                            x       y       z     vdW  Elec       q    Type
REMARK                         _______ _______ _______ _____ _____    ______ ____
ROOT
ATOM      1  C   UNL     1       8.803  -3.903  24.414  0.00  0.00    +0.033 C 
ENDROOT
BRANCH   1   2
ATOM      2  C   UNL     1       7.615  -3.843  23.448  0.00  0.00    +0.045 C 
BRANCH   2   3
ATOM      3  C   UNL     1       7.785  -2.703  22.441  0.00  0.00    +0.223 C 
BRANCH   3   6
ATOM      4  C   UNL     1      10.092   0.253  23.206  0.00  0.00    +0.144 C 
ATOM      5  C   UNL     1       9.549  -0.980  22.523  0.00  0.00    +0.275 C 
ATOM      6  N   UNL     1       8.442  -1.572  23.067  0.00  0.00    -0.238 N 
ATOM      7  H   UNL     1       7.926  -1.062  23.774  0.00  0.00    +0.291 HD
ATOM      8  N   UNL     1      10.123  -1.448  21.462  0.00  0.00    -0.104 NA
ATOM      9  H   UNL     1      10.933  -0.878  21.204  0.00  0.00    +0.363 HD
ENDBRANCH   3   6
ENDBRANCH   2   3
ENDBRANCH   1   2
BRANCH   1  10
ATOM     10  CA  UNL     1       8.833  -5.166  25.284  0.00  0.00    +0.161 C 
BRANCH  10  11
ATOM     11  N   UNL     1      10.226  -5.651  25.500  0.00  0.00    -0.318 NA
ATOM     12  H1  UNL     1      10.665  -5.751  24.577  0.00  0.00    +0.119 HD
ATOM     13  H2  UNL     1      10.764  -4.901  25.943  0.00  0.00    +0.119 HD
ENDBRANCH  10  11
BRANCH  10  14
ATOM     14  C   UNL     1       8.226  -4.834  26.658  0.00  0.00    +0.322 C 
ATOM     15  OXT UNL     1       7.959  -3.713  27.056  0.00  0.00    -0.249 OA
BRANCH  14  16
ATOM     16  O   UNL     1       8.052  -5.960  27.401  0.00  0.00    -0.480 OA
ATOM     17  H   UNL     1       7.092  -6.190  27.336  0.00  0.00    +0.295 HD
ENDBRANCH  14  16
ENDBRANCH  10  14
ENDBRANCH   1  10
TORSDOF 7
ENDMDL
MODEL 7
REMARK VINA RESULT:      -4.3      5.868      7.631
REMARK  Name = 
REMARK  8 active torsions:
REMARK  status: ('A' for Active; 'I' for Inactive)
REMARK    1  A    between atoms: C_1  and  C_2
REMARK    2  A    between atoms: N_4  and  C_5
REMARK    3  A    between atoms: C_5  and  C_6
REMARK    4  A    between atoms: C_6  and  C_7
REMARK    5  A    between atoms: C_7  and  CA_8
REMARK    6  A    between atoms: CA_8  and  N_10
REMARK    7  A    between atoms: CA_8  and  C_11
REMARK    8  A    between atoms: C_11  and  O_12
REMARK                            x       y       z     vdW  Elec       q    Type
REMARK                         _______ _______ _______ _____ _____    ______ ____
ROOT
ATOM      1  C   UNL     1       8.073  -4.695  24.028  0.00  0.00    +0.033 C 
ENDROOT
BRANCH   1   2
ATOM      2  C   UNL     1       7.432  -5.602  22.972  0.00  0.00    +0.045 C 
BRANCH   2   3
ATOM      3  C   UNL     1       5.909  -5.617  23.113  0.00  0.00    +0.223 C 
BRANCH   3   6
ATOM      4  C   UNL     1       4.462  -6.849  26.434  0.00  0.00    +0.144 C 
ATOM      5  C   UNL     1       4.706  -6.746  24.947  0.00  0.00    +0.275 C 
ATOM      6  N   UNL     1       5.533  -5.749  24.508  0.00  0.00    -0.238 N 
ATOM      7  H   UNL     1       6.091  -5.254  25.192  0.00  0.00    +0.291 HD
ATOM      8  N   UNL     1       4.143  -7.578  24.132  0.00  0.00    -0.104 NA
ATOM      9  H   UNL     1       3.561  -8.250  24.639  0.00  0.00    +0.363 HD
ENDBRANCH   3   6
ENDBRANCH   2   3
ENDBRANCH   1   2
BRANCH   1  10
ATOM     10  CA  UNL     1       8.914  -5.449  25.067  0.00  0.00    +0.161 C 
BRANCH  10  11
ATOM     11  N   UNL     1      10.364  -5.127  24.936  0.00  0.00    -0.318 NA
ATOM     12  H1  UNL     1      10.791  -5.241  25.863  0.00  0.00    +0.119 HD
ATOM     13  H2  UNL     1      10.808  -5.859  24.375  0.00  0.00    +0.119 HD
ENDBRANCH  10  11
BRANCH  10  14
ATOM     14  C   UNL     1       8.457  -5.026  26.473  0.00  0.00    +0.322 C 
ATOM     15  OXT UNL     1       8.719  -3.962  27.007  0.00  0.00    -0.249 OA
BRANCH  14  16
ATOM     16  O   UNL     1       7.741  -6.015  27.072  0.00  0.00    -0.480 OA
ATOM     17  H   UNL     1       7.895  -6.833  26.537  0.00  0.00    +0.295 HD
ENDBRANCH  14  16
ENDBRANCH  10  14
ENDBRANCH   1  10
TORSDOF 7
ENDMDL
MODEL 8
REMARK VINA RESULT:      -4.2      2.031      3.972
REMARK  Name = 
REMARK  8 active torsions:
REMARK  status: ('A' for Active; 'I' for Inactive)
REMARK    1  A    between atoms: C_1  and  C_2
REMARK    2  A    between atoms: N_4  and  C_5
REMARK    3  A    between atoms: C_5  and  C_6
REMARK    4  A    between atoms: C_6  and  C_7
REMARK    5  A    between atoms: C_7  and  CA_8
REMARK    6  A    between atoms: CA_8  and  N_10
REMARK    7  A    between atoms: CA_8  and  C_11
REMARK    8  A    between atoms: C_11  and  O_12
REMARK                            x       y       z     vdW  Elec       q    Type
REMARK                         _______ _______ _______ _____ _____    ______ ____
ROOT
ATOM      1  C   UNL     1      10.147   2.016  24.152  0.00  0.00    +0.033 C 
ENDROOT
BRANCH   1   2
ATOM      2  C   UNL     1       9.708   0.726  24.854  0.00  0.00    +0.045 C 
BRANCH   2   3
ATOM      3  C   UNL     1      10.242  -0.506  24.122  0.00  0.00    +0.223 C 
BRANCH   3   6
ATOM      4  C   UNL     1       7.767  -2.706  22.203  0.00  0.00    +0.144 C 
ATOM      5  C   UNL     1       8.862  -1.697  22.459  0.00  0.00    +0.275 C 
ATOM      6  N   UNL     1       9.150  -1.390  23.761  0.00  0.00    -0.238 N 
ATOM      7  H   UNL     1       8.765  -1.980  24.488  0.00  0.00    +0.291 HD
ATOM      8  N   UNL     1       9.493  -1.151  21.471  0.00  0.00    -0.104 NA
ATOM      9  H   UNL     1       9.142  -1.500  20.575  0.00  0.00    +0.363 HD
ENDBRANCH   3   6
ENDBRANCH   2   3
ENDBRANCH   1   2
BRANCH   1  10
ATOM     10  CA  UNL     1       9.003   2.768  23.461  0.00  0.00    +0.161 C 
BRANCH  10  11
ATOM     11  N   UNL     1       9.373   4.183  23.171  0.00  0.00    -0.318 NA
ATOM     12  H1  UNL     1       9.188   4.730  24.020  0.00  0.00    +0.119 HD
ATOM     13  H2  UNL     1      10.389   4.236  23.067  0.00  0.00    +0.119 HD
ENDBRANCH  10  11
BRANCH  10  14
ATOM     14  C   UNL     1       8.693   2.073  22.124  0.00  0.00    +0.322 C 
ATOM     15  OXT UNL     1       7.614   1.599  21.811  0.00  0.00    -0.249 OA
BRANCH  14  16
ATOM     16  O   UNL     1       9.798   2.021  21.332  0.00  0.00    -0.480 OA
ATOM     17  H   UNL     1       9.511   2.322  20.435  0.00  0.00    +0.295 HD
ENDBRANCH  14  16
ENDBRANCH  10  14
ENDBRANCH   1  10
TORSDOF 7
ENDMDL
MODEL 9
REMARK VINA RESULT:      -4.2      2.337      5.041
REMARK  Name = 
REMARK  8 active torsions:
REMARK  status: ('A' for Active; 'I' for Inactive)
REMARK    1  A    between atoms: C_1  and  C_2
REMARK    2  A    between atoms: N_4  and  C_5
REMARK    3  A    between atoms: C_5  and  C_6
REMARK    4  A    between atoms: C_6  and  C_7
REMARK    5  A    between atoms: C_7  and  CA_8
REMARK    6  A    between atoms: CA_8  and  N_10
REMARK    7  A    between atoms: CA_8  and  C_11
REMARK    8  A    between atoms: C_11  and  O_12
REMARK                            x       y       z     vdW  Elec       q    Type
REMARK                         _______ _______ _______ _____ _____    ______ ____
ROOT
ATOM      1  C   UNL     1       8.828  -0.301  23.855  0.00  0.00    +0.033 C 
ENDROOT
BRANCH   1   2
ATOM      2  C   UNL     1       9.879  -1.269  24.410  0.00  0.00    +0.045 C 
BRANCH   2   3
ATOM      3  C   UNL     1       9.634  -2.692  23.906  0.00  0.00    +0.223 C 
BRANCH   3   6
ATOM      4  C   UNL     1       8.221  -5.214  26.413  0.00  0.00    +0.144 C 
ATOM      5  C   UNL     1       9.149  -4.601  25.391  0.00  0.00    +0.275 C 
ATOM      6  N   UNL     1       8.776  -3.412  24.828  0.00  0.00    -0.238 N 
ATOM      7  H   UNL     1       8.009  -2.903  25.249  0.00  0.00    +0.291 HD
ATOM      8  N   UNL     1      10.253  -5.195  25.070  0.00  0.00    -0.104 NA
ATOM      9  H   UNL     1      10.363  -6.070  25.590  0.00  0.00    +0.363 HD
ENDBRANCH   3   6
ENDBRANCH   2   3
ENDBRANCH   1   2
BRANCH   1  10
ATOM     10  CA  UNL     1       9.392   1.072  23.466  0.00  0.00    +0.161 C 
BRANCH  10  11
ATOM     11  N   UNL     1      10.676   1.357  24.170  0.00  0.00    -0.318 NA
ATOM     12  H1  UNL     1      11.102   0.454  24.411  0.00  0.00    +0.119 HD
ATOM     13  H2  UNL     1      11.331   1.759  23.494  0.00  0.00    +0.119 HD
ENDBRANCH  10  11
BRANCH  10  14
ATOM     14  C   UNL     1       9.665   1.083  21.953  0.00  0.00    +0.322 C 
ATOM     15  OXT UNL     1       9.421   0.166  21.187  0.00  0.00    -0.249 OA
BRANCH  14  16
ATOM     16  O   UNL     1      10.255   2.248  21.571  0.00  0.00    -0.480 OA
ATOM     17  H   UNL     1       9.523   2.848  21.281  0.00  0.00    +0.295 HD
ENDBRANCH  14  16
ENDBRANCH  10  14
ENDBRANCH   1  10
TORSDOF 7
ENDMDL
