MODEL 1
REMARK VINA RESULT:      -5.0      0.000      0.000
REMARK  Name = 
REMARK  25 active torsions:
REMARK  status: ('A' for Active; 'I' for Inactive)
REMARK    1  A    between atoms: C_1  and  C_2
REMARK    2  A    between atoms: C_2  and  C_3
REMARK    3  A    between atoms: C_3  and  C_4
REMARK    4  A    between atoms: C_4  and  C_5
REMARK    5  A    between atoms: C_5  and  C_6
REMARK    6  A    between atoms: C_6  and  O_8
REMARK    7  A    between atoms: O_8  and  C_9
REMARK    8  A    between atoms: C_9  and  C_10
REMARK    9  A    between atoms: C_10  and  C_12
REMARK   10  A    between atoms: C_10  and  O_24
REMARK   11  A    between atoms: C_12  and  C_13
REMARK   12  A    between atoms: C_13  and  P_14
REMARK   13  A    between atoms: P_14  and  O_17
REMARK   14  A    between atoms: O_17  and  C_18
REMARK   15  A    between atoms: C_18  and  C_19
REMARK   16  A    between atoms: C_19  and  N_20
REMARK   17  A    between atoms: N_20  and  C_21
REMARK   18  A    between atoms: N_20  and  C_22
REMARK   19  A    between atoms: N_20  and  C_23
REMARK   20  A    between atoms: O_24  and  C_25
REMARK   21  A    between atoms: C_25  and  C_27
REMARK   22  A    between atoms: C_27  and  C_28
REMARK   23  A    between atoms: C_28  and  C_29
REMARK   24  A    between atoms: C_29  and  C_30
REMARK   25  A    between atoms: C_30  and  C_31
REMARK                            x       y       z     vdW  Elec       q    Type
REMARK                         _______ _______ _______ _____ _____    ______ ____
ROOT
ATOM      1  C   UNL     1       8.471  -1.416  25.421  0.00  0.00    +0.214 C 
ENDROOT
BRANCH   1   2
ATOM      2  C   UNL     1       8.232  -2.688  26.244  0.00  0.00    +0.057 C 
BRANCH   2   3
ATOM      3  C   UNL     1       6.846  -3.281  25.965  0.00  0.00    +0.086 C 
BRANCH   3   4
ATOM      4  P   UNL     1       6.530  -4.824  26.861  0.00  0.00    +0.137 P 
ATOM      5  O   UNL     1       5.735  -4.542  28.108  0.00  0.00    -0.307 OA
ATOM      6  O   UNL     1       7.769  -5.677  26.912  0.00  0.00    -0.781 OA
BRANCH   4   7
ATOM      7  O   UNL     1       5.492  -5.558  25.837  0.00  0.00    -0.332 OA
BRANCH   7   8
ATOM      8  C   UNL     1       5.047  -4.775  24.740  0.00  0.00    +0.217 C 
BRANCH   8   9
ATOM      9  C   UNL     1       5.098  -5.491  23.375  0.00  0.00    +0.161 C 
BRANCH   9  10
ATOM     10  N   UNL     1       6.194  -4.982  22.380  0.00  0.00    +0.239 N 
ATOM     11  C   UNL     1       6.064  -3.511  22.083  0.00  0.00    +0.192 C 
ATOM     12  C   UNL     1       6.135  -5.782  21.076  0.00  0.00    +0.192 C 
ATOM     13  C   UNL     1       7.548  -5.263  23.015  0.00  0.00    +0.192 C 
ENDBRANCH   9  10
ENDBRANCH   8   9
ENDBRANCH   7   8
ENDBRANCH   4   7
ENDBRANCH   3   4
ENDBRANCH   2   3
ENDBRANCH   1   2
BRANCH   1  14
ATOM     14  O   UNL     1       8.379  -1.681  23.992  0.00  0.00    -0.458 OA
BRANCH  14  15
ATOM     15  C   UNL     1       9.495  -2.084  23.325  0.00  0.00    +0.307 C 
ATOM     16  O   UNL     1      10.315  -2.901  23.720  0.00  0.00    -0.251 OA
BRANCH  15  17
ATOM     17  C   UNL     1       9.568  -1.432  21.970  0.00  0.00    +0.120 C 
BRANCH  17  18
ATOM     18  C   UNL     1       8.922  -0.049  21.997  0.00  0.00    +0.011 C 
BRANCH  18  19
ATOM     19  C   UNL     1       9.956   1.082  21.982  0.00  0.00    +0.000 C 
BRANCH  19  20
ATOM     20  C   UNL     1      10.300   1.537  23.400  0.00  0.00    -0.003 C 
ATOM     21  C   UNL     1      10.738   2.992  23.427  0.00  0.00    +0.004 C 
ENDBRANCH  19  20
ENDBRANCH  18  19
ENDBRANCH  17  18
ENDBRANCH  15  17
ENDBRANCH  14  15
ENDBRANCH   1  14
BRANCH   1  22
ATOM     22  C   UNL     1       7.599  -0.206  25.799  0.00  0.00    +0.276 C 
BRANCH  22  23
ATOM     23  O   UNL     1       7.171   0.617  24.708  0.00  0.00    -0.461 OA
BRANCH  23  24
ATOM     24  C   UNL     1       5.834   0.849  24.652  0.00  0.00    +0.307 C 
ATOM     25  O   UNL     1       4.983   0.226  25.271  0.00  0.00    -0.251 OA
BRANCH  24  26
ATOM     26  C   UNL     1       5.557   2.092  23.838  0.00  0.00    +0.120 C 
BRANCH  26  27
ATOM     27  C   UNL     1       6.834   2.924  23.687  0.00  0.00    +0.011 C 
BRANCH  27  28
ATOM     28  C   UNL     1       7.064   3.414  22.249  0.00  0.00    +0.000 C 
BRANCH  28  30
ATOM     29  C   UNL     1       8.084   5.516  23.204  0.00  0.00    +0.004 C 
ATOM     30  C   UNL     1       7.113   4.941  22.183  0.00  0.00    -0.003 C 
ENDBRANCH  28  30
ENDBRANCH  27  28
ENDBRANCH  26  27
ENDBRANCH  24  26
ENDBRANCH  23  24
ENDBRANCH  22  23
ENDBRANCH   1  22
TORSDOF 20
ENDMDL
MODEL 2
REMARK VINA RESULT:      -5.0      2.131      3.943
REMARK  Name = 
REMARK  25 active torsions:
REMARK  status: ('A' for Active; 'I' for Inactive)
REMARK    1  A    between atoms: C_1  and  C_2
REMARK    2  A    between atoms: C_2  and  C_3
REMARK    3  A    between atoms: C_3  and  C_4
REMARK    4  A    between atoms: C_4  and  C_5
REMARK    5  A    between atoms: C_5  and  C_6
REMARK    6  A    between atoms: C_6  and  O_8
REMARK    7  A    between atoms: O_8  and  C_9
REMARK    8  A    between atoms: C_9  and  C_10
REMARK    9  A    between atoms: C_10  and  C_12
REMARK   10  A    between atoms: C_10  and  O_24
REMARK   11  A    between atoms: C_12  and  C_13
REMARK   12  A    between atoms: C_13  and  P_14
REMARK   13  A    between atoms: P_14  and  O_17
REMARK   14  A    between atoms: O_17  and  C_18
REMARK   15  A    between atoms: C_18  and  C_19
REMARK   16  A    between atoms: C_19  and  N_20
REMARK   17  A    between atoms: N_20  and  C_21
REMARK   18  A    between atoms: N_20  and  C_22
REMARK   19  A    between atoms: N_20  and  C_23
REMARK   20  A    between atoms: O_24  and  C_25
REMARK   21  A    between atoms: C_25  and  C_27
REMARK   22  A    between atoms: C_27  and  C_28
REMARK   23  A    between atoms: C_28  and  C_29
REMARK   24  A    between atoms: C_29  and  C_30
REMARK   25  A    between atoms: C_30  and  C_31
REMARK                            x       y       z     vdW  Elec       q    Type
REMARK                         _______ _______ _______ _____ _____    ______ ____
ROOT
ATOM      1  C   UNL     1       7.363  -3.830  24.631  0.00  0.00    +0.214 C 
ENDROOT
BRANCH   1   2
ATOM      2  C   UNL     1       7.930  -3.760  26.055  0.00  0.00    +0.057 C 
BRANCH   2   3
ATOM      3  C   UNL     1       7.977  -5.148  26.704  0.00  0.00    +0.086 C 
BRANCH   3   4
ATOM      4  P   UNL     1       6.459  -5.577  27.595  0.00  0.00    +0.137 P 
ATOM      5  O   UNL     1       5.541  -4.386  27.654  0.00  0.00    -0.307 OA
ATOM      6  O   UNL     1       6.772  -6.372  28.836  0.00  0.00    -0.781 OA
BRANCH   4   7
ATOM      7  O   UNL     1       5.770  -6.609  26.534  0.00  0.00    -0.332 OA
BRANCH   7   8
ATOM      8  C   UNL     1       4.384  -6.418  26.296  0.00  0.00    +0.217 C 
BRANCH   8   9
ATOM      9  C   UNL     1       3.864  -7.040  24.983  0.00  0.00    +0.161 C 
BRANCH   9  10
ATOM     10  N   UNL     1       3.603  -6.036  23.811  0.00  0.00    +0.239 N 
ATOM     11  C   UNL     1       4.807  -5.866  22.922  0.00  0.00    +0.192 C 
ATOM     12  C   UNL     1       3.172  -4.677  24.367  0.00  0.00    +0.192 C 
ATOM     13  C   UNL     1       2.434  -6.578  23.001  0.00  0.00    +0.192 C 
ENDBRANCH   9  10
ENDBRANCH   8   9
ENDBRANCH   7   8
ENDBRANCH   4   7
ENDBRANCH   3   4
ENDBRANCH   2   3
ENDBRANCH   1   2
BRANCH   1  14
ATOM     14  O   UNL     1       6.212  -2.954  24.472  0.00  0.00    -0.458 OA
BRANCH  14  15
ATOM     15  C   UNL     1       6.088  -2.232  23.324  0.00  0.00    +0.307 C 
ATOM     16  O   UNL     1       5.745  -2.667  22.234  0.00  0.00    -0.251 OA
BRANCH  15  17
ATOM     17  C   UNL     1       6.370  -0.776  23.581  0.00  0.00    +0.120 C 
BRANCH  17  18
ATOM     18  C   UNL     1       6.019  -0.399  25.018  0.00  0.00    +0.011 C 
BRANCH  18  19
ATOM     19  C   UNL     1       6.214   1.096  25.296  0.00  0.00    +0.000 C 
BRANCH  19  20
ATOM     20  C   UNL     1       7.227   1.323  26.417  0.00  0.00    -0.003 C 
ATOM     21  C   UNL     1       7.412   0.073  27.261  0.00  0.00    +0.004 C 
ENDBRANCH  19  20
ENDBRANCH  18  19
ENDBRANCH  17  18
ENDBRANCH  15  17
ENDBRANCH  14  15
ENDBRANCH   1  14
BRANCH   1  22
ATOM     22  C   UNL     1       8.379  -3.594  23.499  0.00  0.00    +0.276 C 
BRANCH  22  23
ATOM     23  O   UNL     1       9.693  -3.207  23.914  0.00  0.00    -0.461 OA
BRANCH  23  24
ATOM     24  C   UNL     1      10.101  -1.989  23.472  0.00  0.00    +0.307 C 
ATOM     25  O   UNL     1      10.595  -1.766  22.375  0.00  0.00    -0.251 OA
BRANCH  24  26
ATOM     26  C   UNL     1       9.713  -0.919  24.466  0.00  0.00    +0.120 C 
BRANCH  26  27
ATOM     27  C   UNL     1      10.801   0.156  24.540  0.00  0.00    +0.011 C 
BRANCH  27  28
ATOM     28  C   UNL     1      10.261   1.574  24.297  0.00  0.00    +0.000 C 
BRANCH  28  30
ATOM     29  C   UNL     1       9.810   1.681  21.816  0.00  0.00    +0.004 C 
ATOM     30  C   UNL     1       9.193   1.582  23.203  0.00  0.00    -0.003 C 
ENDBRANCH  28  30
ENDBRANCH  27  28
ENDBRANCH  26  27
ENDBRANCH  24  26
ENDBRANCH  23  24
ENDBRANCH  22  23
ENDBRANCH   1  22
TORSDOF 20
ENDMDL
MODEL 3
REMARK VINA RESULT:      -5.0      2.402      3.832
REMARK  Name = 
REMARK  25 active torsions:
REMARK  status: ('A' for Active; 'I' for Inactive)
REMARK    1  A    between atoms: C_1  and  C_2
REMARK    2  A    between atoms: C_2  and  C_3
REMARK    3  A    between atoms: C_3  and  C_4
REMARK    4  A    between atoms: C_4  and  C_5
REMARK    5  A    between atoms: C_5  and  C_6
REMARK    6  A    between atoms: C_6  and  O_8
REMARK    7  A    between atoms: O_8  and  C_9
REMARK    8  A    between atoms: C_9  and  C_10
REMARK    9  A    between atoms: C_10  and  C_12
REMARK   10  A    between atoms: C_10  and  O_24
REMARK   11  A    between atoms: C_12  and  C_13
REMARK   12  A    between atoms: C_13  and  P_14
REMARK   13  A    between atoms: P_14  and  O_17
REMARK   14  A    between atoms: O_17  and  C_18
REMARK   15  A    between atoms: C_18  and  C_19
REMARK   16  A    between atoms: C_19  and  N_20
REMARK   17  A    between atoms: N_20  and  C_21
REMARK   18  A    between atoms: N_20  and  C_22
REMARK   19  A    between atoms: N_20  and  C_23
REMARK   20  A    between atoms: O_24  and  C_25
REMARK   21  A    between atoms: C_25  and  C_27
REMARK   22  A    between atoms: C_27  and  C_28
REMARK   23  A    between atoms: C_28  and  C_29
REMARK   24  A    between atoms: C_29  and  C_30
REMARK   25  A    between atoms: C_30  and  C_31
REMARK                            x       y       z     vdW  Elec       q    Type
REMARK                         _______ _______ _______ _____ _____    ______ ____
ROOT
ATOM      1  C   UNL     1       8.739  -3.694  24.140  0.00  0.00    +0.214 C 
ENDROOT
BRANCH   1   2
ATOM      2  C   UNL     1       8.788  -5.041  24.873  0.00  0.00    +0.057 C 
BRANCH   2   3
ATOM      3  C   UNL     1       8.742  -4.849  26.393  0.00  0.00    +0.086 C 
BRANCH   3   4
ATOM      4  P   UNL     1       7.089  -5.085  27.098  0.00  0.00    +0.137 P 
ATOM      5  O   UNL     1       6.433  -3.751  27.331  0.00  0.00    -0.307 OA
ATOM      6  O   UNL     1       7.111  -6.134  28.178  0.00  0.00    -0.781 OA
BRANCH   4   7
ATOM      7  O   UNL     1       6.309  -5.738  25.821  0.00  0.00    -0.332 OA
BRANCH   7   8
ATOM      8  C   UNL     1       5.139  -6.482  26.125  0.00  0.00    +0.217 C 
BRANCH   8   9
ATOM      9  C   UNL     1       3.819  -5.701  25.957  0.00  0.00    +0.161 C 
BRANCH   9  10
ATOM     10  N   UNL     1       2.801  -5.824  27.141  0.00  0.00    +0.239 N 
ATOM     11  C   UNL     1       3.472  -5.746  28.487  0.00  0.00    +0.192 C 
ATOM     12  C   UNL     1       2.016  -7.133  27.027  0.00  0.00    +0.192 C 
ATOM     13  C   UNL     1       1.798  -4.688  26.996  0.00  0.00    +0.192 C 
ENDBRANCH   9  10
ENDBRANCH   8   9
ENDBRANCH   7   8
ENDBRANCH   4   7
ENDBRANCH   3   4
ENDBRANCH   2   3
ENDBRANCH   1   2
BRANCH   1  14
ATOM     14  O   UNL     1      10.074  -3.221  23.804  0.00  0.00    -0.458 OA
BRANCH  14  15
ATOM     15  C   UNL     1      10.218  -1.971  23.284  0.00  0.00    +0.307 C 
ATOM     16  O   UNL     1      10.487  -1.701  22.122  0.00  0.00    -0.251 OA
BRANCH  15  17
ATOM     17  C   UNL     1       9.935  -0.927  24.331  0.00  0.00    +0.120 C 
BRANCH  17  18
ATOM     18  C   UNL     1      10.708   0.357  24.041  0.00  0.00    +0.011 C 
BRANCH  18  19
ATOM     19  C   UNL     1       9.788   1.521  23.655  0.00  0.00    +0.000 C 
BRANCH  19  20
ATOM     20  C   UNL     1       9.763   1.727  22.141  0.00  0.00    -0.003 C 
ATOM     21  C   UNL     1       8.343   1.700  21.600  0.00  0.00    +0.004 C 
ENDBRANCH  19  20
ENDBRANCH  18  19
ENDBRANCH  17  18
ENDBRANCH  15  17
ENDBRANCH  14  15
ENDBRANCH   1  14
BRANCH   1  22
ATOM     22  C   UNL     1       7.824  -3.642  22.904  0.00  0.00    +0.276 C 
BRANCH  22  23
ATOM     23  O   UNL     1       6.852  -2.592  22.894  0.00  0.00    -0.461 OA
BRANCH  23  24
ATOM     24  C   UNL     1       5.666  -2.899  23.480  0.00  0.00    +0.307 C 
ATOM     25  O   UNL     1       4.995  -3.893  23.238  0.00  0.00    -0.251 OA
BRANCH  24  26
ATOM     26  C   UNL     1       5.365  -1.919  24.590  0.00  0.00    +0.120 C 
BRANCH  26  27
ATOM     27  C   UNL     1       6.484  -0.878  24.697  0.00  0.00    +0.011 C 
BRANCH  27  28
ATOM     28  C   UNL     1       6.014   0.544  24.353  0.00  0.00    +0.000 C 
BRANCH  28  30
ATOM     29  C   UNL     1       7.332   1.117  26.428  0.00  0.00    +0.004 C 
ATOM     30  C   UNL     1       6.136   1.477  25.560  0.00  0.00    -0.003 C 
ENDBRANCH  28  30
ENDBRANCH  27  28
ENDBRANCH  26  27
ENDBRANCH  24  26
ENDBRANCH  23  24
ENDBRANCH  22  23
ENDBRANCH   1  22
TORSDOF 20
ENDMDL
MODEL 4
REMARK VINA RESULT:      -4.9      2.536      6.733
REMARK  Name = 
REMARK  25 active torsions:
REMARK  status: ('A' for Active; 'I' for Inactive)
REMARK    1  A    between atoms: C_1  and  C_2
REMARK    2  A    between atoms: C_2  and  C_3
REMARK    3  A    between atoms: C_3  and  C_4
REMARK    4  A    between atoms: C_4  and  C_5
REMARK    5  A    between atoms: C_5  and  C_6
REMARK    6  A    between atoms: C_6  and  O_8
REMARK    7  A    between atoms: O_8  and  C_9
REMARK    8  A    between atoms: C_9  and  C_10
REMARK    9  A    between atoms: C_10  and  C_12
REMARK   10  A    between atoms: C_10  and  O_24
REMARK   11  A    between atoms: C_12  and  C_13
REMARK   12  A    between atoms: C_13  and  P_14
REMARK   13  A    between atoms: P_14  and  O_17
REMARK   14  A    between atoms: O_17  and  C_18
REMARK   15  A    between atoms: C_18  and  C_19
REMARK   16  A    between atoms: C_19  and  N_20
REMARK   17  A    between atoms: N_20  and  C_21
REMARK   18  A    between atoms: N_20  and  C_22
REMARK   19  A    between atoms: N_20  and  C_23
REMARK   20  A    between atoms: O_24  and  C_25
REMARK   21  A    between atoms: C_25  and  C_27
REMARK   22  A    between atoms: C_27  and  C_28
REMARK   23  A    between atoms: C_28  and  C_29
REMARK   24  A    between atoms: C_29  and  C_30
REMARK   25  A    between atoms: C_30  and  C_31
REMARK                            x       y       z     vdW  Elec       q    Type
REMARK                         _______ _______ _______ _____ _____    ______ ____
ROOT
ATOM      1  C   UNL     1       7.598  -1.891  24.825  0.00  0.00    +0.214 C 
ENDROOT
BRANCH   1   2
ATOM      2  C   UNL     1       6.419  -1.216  24.112  0.00  0.00    +0.057 C 
BRANCH   2   3
ATOM      3  C   UNL     1       5.542  -0.438  25.100  0.00  0.00    +0.086 C 
BRANCH   3   4
ATOM      4  P   UNL     1       5.760   1.358  24.995  0.00  0.00    +0.137 P 
ATOM      5  O   UNL     1       6.710   1.826  26.065  0.00  0.00    -0.307 OA
ATOM      6  O   UNL     1       4.438   2.046  24.781  0.00  0.00    -0.781 OA
BRANCH   4   7
ATOM      7  O   UNL     1       6.587   1.477  23.593  0.00  0.00    -0.332 OA
BRANCH   7   8
ATOM      8  C   UNL     1       6.065   2.394  22.643  0.00  0.00    +0.217 C 
BRANCH   8   9
ATOM      9  C   UNL     1       7.046   3.506  22.215  0.00  0.00    +0.161 C 
BRANCH   9  10
ATOM     10  N   UNL     1       6.842   4.896  22.905  0.00  0.00    +0.239 N 
ATOM     11  C   UNL     1       7.538   4.983  24.238  0.00  0.00    +0.192 C 
ATOM     12  C   UNL     1       5.349   5.184  23.079  0.00  0.00    +0.192 C 
ATOM     13  C   UNL     1       7.395   5.956  21.963  0.00  0.00    +0.192 C 
ENDBRANCH   9  10
ENDBRANCH   8   9
ENDBRANCH   7   8
ENDBRANCH   4   7
ENDBRANCH   3   4
ENDBRANCH   2   3
ENDBRANCH   1   2
BRANCH   1  14
ATOM     14  O   UNL     1       8.869  -1.300  24.431  0.00  0.00    -0.458 OA
BRANCH  14  15
ATOM     15  C   UNL     1       9.768  -2.064  23.753  0.00  0.00    +0.307 C 
ATOM     16  O   UNL     1      10.029  -3.238  23.976  0.00  0.00    -0.251 OA
BRANCH  15  17
ATOM     17  C   UNL     1      10.375  -1.286  22.616  0.00  0.00    +0.120 C 
BRANCH  17  18
ATOM     18  C   UNL     1       9.351  -0.334  22.001  0.00  0.00    +0.011 C 
BRANCH  18  19
ATOM     19  C   UNL     1       9.861   1.110  21.931  0.00  0.00    +0.000 C 
BRANCH  19  20
ATOM     20  C   UNL     1      10.211   1.641  23.320  0.00  0.00    -0.003 C 
ATOM     21  C   UNL     1      10.676   3.087  23.262  0.00  0.00    +0.004 C 
ENDBRANCH  19  20
ENDBRANCH  18  19
ENDBRANCH  17  18
ENDBRANCH  15  17
ENDBRANCH  14  15
ENDBRANCH   1  14
BRANCH   1  22
ATOM     22  C   UNL     1       7.493  -1.965  26.359  0.00  0.00    +0.276 C 
BRANCH  22  23
ATOM     23  O   UNL     1       7.002  -3.200  26.889  0.00  0.00    -0.461 OA
BRANCH  23  24
ATOM     24  C   UNL     1       7.762  -4.290  26.610  0.00  0.00    +0.307 C 
ATOM     25  O   UNL     1       8.920  -4.455  26.971  0.00  0.00    -0.251 OA
BRANCH  24  26
ATOM     26  C   UNL     1       6.926  -5.345  25.923  0.00  0.00    +0.120 C 
BRANCH  26  27
ATOM     27  C   UNL     1       7.063  -5.225  24.402  0.00  0.00    +0.011 C 
BRANCH  27  28
ATOM     28  C   UNL     1       5.724  -4.961  23.698  0.00  0.00    +0.000 C 
BRANCH  28  30
ATOM     29  C   UNL     1       7.098  -5.841  21.773  0.00  0.00    +0.004 C 
ATOM     30  C   UNL     1       5.695  -5.589  22.304  0.00  0.00    -0.003 C 
ENDBRANCH  28  30
ENDBRANCH  27  28
ENDBRANCH  26  27
ENDBRANCH  24  26
ENDBRANCH  23  24
ENDBRANCH  22  23
ENDBRANCH   1  22
TORSDOF 20
ENDMDL
MODEL 5
REMARK VINA RESULT:      -4.9      2.986      7.644
REMARK  Name = 
REMARK  25 active torsions:
REMARK  status: ('A' for Active; 'I' for Inactive)
REMARK    1  A    between atoms: C_1  and  C_2
REMARK    2  A    between atoms: C_2  and  C_3
REMARK    3  A    between atoms: C_3  and  C_4
REMARK    4  A    between atoms: C_4  and  C_5
REMARK    5  A    between atoms: C_5  and  C_6
REMARK    6  A    between atoms: C_6  and  O_8
REMARK    7  A    between atoms: O_8  and  C_9
REMARK    8  A    between atoms: C_9  and  C_10
REMARK    9  A    between atoms: C_10  and  C_12
REMARK   10  A    between atoms: C_10  and  O_24
REMARK   11  A    between atoms: C_12  and  C_13
REMARK   12  A    between atoms: C_13  and  P_14
REMARK   13  A    between atoms: P_14  and  O_17
REMARK   14  A    between atoms: O_17  and  C_18
REMARK   15  A    between atoms: C_18  and  C_19
REMARK   16  A    between atoms: C_19  and  N_20
REMARK   17  A    between atoms: N_20  and  C_21
REMARK   18  A    between atoms: N_20  and  C_22
REMARK   19  A    between atoms: N_20  and  C_23
REMARK   20  A    between atoms: O_24  and  C_25
REMARK   21  A    between atoms: C_25  and  C_27
REMARK   22  A    between atoms: C_27  and  C_28
REMARK   23  A    between atoms: C_28  and  C_29
REMARK   24  A    between atoms: C_29  and  C_30
REMARK   25  A    between atoms: C_30  and  C_31
REMARK                            x       y       z     vdW  Elec       q    Type
REMARK                         _______ _______ _______ _____ _____    ______ ____
ROOT
ATOM      1  C   UNL     1       8.530  -1.500  25.270  0.00  0.00    +0.214 C 
ENDROOT
BRANCH   1   2
ATOM      2  C   UNL     1       9.058  -0.142  25.750  0.00  0.00    +0.057 C 
BRANCH   2   3
ATOM      3  C   UNL     1       8.593   0.993  24.831  0.00  0.00    +0.086 C 
BRANCH   3   4
ATOM      4  P   UNL     1       9.926   1.694  23.823  0.00  0.00    +0.137 P 
ATOM      5  O   UNL     1       9.552   1.645  22.366  0.00  0.00    -0.307 OA
ATOM      6  O   UNL     1      11.269   1.199  24.292  0.00  0.00    -0.781 OA
BRANCH   4   7
ATOM      7  O   UNL     1       9.828   3.267  24.248  0.00  0.00    -0.332 OA
BRANCH   7   8
ATOM      8  C   UNL     1       8.933   4.059  23.483  0.00  0.00    +0.217 C 
BRANCH   8   9
ATOM      9  C   UNL     1       7.685   4.544  24.251  0.00  0.00    +0.161 C 
BRANCH   9  10
ATOM     10  N   UNL     1       6.329   4.449  23.474  0.00  0.00    +0.239 N 
ATOM     11  C   UNL     1       5.916   5.768  22.876  0.00  0.00    +0.192 C 
ATOM     12  C   UNL     1       5.226   3.931  24.400  0.00  0.00    +0.192 C 
ATOM     13  C   UNL     1       6.509   3.415  22.372  0.00  0.00    +0.192 C 
ENDBRANCH   9  10
ENDBRANCH   8   9
ENDBRANCH   7   8
ENDBRANCH   4   7
ENDBRANCH   3   4
ENDBRANCH   2   3
ENDBRANCH   1   2
BRANCH   1  14
ATOM     14  O   UNL     1       9.531  -2.217  24.494  0.00  0.00    -0.458 OA
BRANCH  14  15
ATOM     15  C   UNL     1       9.563  -2.047  23.144  0.00  0.00    +0.307 C 
ATOM     16  O   UNL     1      10.566  -1.908  22.459  0.00  0.00    -0.251 OA
BRANCH  15  17
ATOM     17  C   UNL     1       8.174  -2.120  22.568  0.00  0.00    +0.120 C 
BRANCH  17  18
ATOM     18  C   UNL     1       7.669  -3.561  22.544  0.00  0.00    +0.011 C 
BRANCH  18  19
ATOM     19  C   UNL     1       6.325  -3.700  21.820  0.00  0.00    +0.000 C 
BRANCH  19  20
ATOM     20  C   UNL     1       6.071  -5.146  21.397  0.00  0.00    -0.003 C 
ATOM     21  C   UNL     1       7.263  -6.035  21.711  0.00  0.00    +0.004 C 
ENDBRANCH  19  20
ENDBRANCH  18  19
ENDBRANCH  17  18
ENDBRANCH  15  17
ENDBRANCH  14  15
ENDBRANCH   1  14
BRANCH   1  22
ATOM     22  C   UNL     1       7.945  -2.410  26.365  0.00  0.00    +0.276 C 
BRANCH  22  23
ATOM     23  O   UNL     1       8.505  -3.725  26.443  0.00  0.00    -0.461 OA
BRANCH  23  24
ATOM     24  C   UNL     1       7.610  -4.720  26.677  0.00  0.00    +0.307 C 
ATOM     25  O   UNL     1       7.760  -5.630  27.482  0.00  0.00    -0.251 OA
BRANCH  24  26
ATOM     26  C   UNL     1       6.330  -4.457  25.918  0.00  0.00    +0.120 C 
BRANCH  26  27
ATOM     27  C   UNL     1       5.943  -5.685  25.089  0.00  0.00    +0.011 C 
BRANCH  27  28
ATOM     28  C   UNL     1       4.515  -6.174  25.372  0.00  0.00    +0.000 C 
BRANCH  28  30
ATOM     29  C   UNL     1       3.147  -5.009  23.599  0.00  0.00    +0.004 C 
ATOM     30  C   UNL     1       3.716  -6.336  24.077  0.00  0.00    -0.003 C 
ENDBRANCH  28  30
ENDBRANCH  27  28
ENDBRANCH  26  27
ENDBRANCH  24  26
ENDBRANCH  23  24
ENDBRANCH  22  23
ENDBRANCH   1  22
TORSDOF 20
ENDMDL
MODEL 6
REMARK VINA RESULT:      -4.9      2.101      4.515
REMARK  Name = 
REMARK  25 active torsions:
REMARK  status: ('A' for Active; 'I' for Inactive)
REMARK    1  A    between atoms: C_1  and  C_2
REMARK    2  A    between atoms: C_2  and  C_3
REMARK    3  A    between atoms: C_3  and  C_4
REMARK    4  A    between atoms: C_4  and  C_5
REMARK    5  A    between atoms: C_5  and  C_6
REMARK    6  A    between atoms: C_6  and  O_8
REMARK    7  A    between atoms: O_8  and  C_9
REMARK    8  A    between atoms: C_9  and  C_10
REMARK    9  A    between atoms: C_10  and  C_12
REMARK   10  A    between atoms: C_10  and  O_24
REMARK   11  A    between atoms: C_12  and  C_13
REMARK   12  A    between atoms: C_13  and  P_14
REMARK   13  A    between atoms: P_14  and  O_17
REMARK   14  A    between atoms: O_17  and  C_18
REMARK   15  A    between atoms: C_18  and  C_19
REMARK   16  A    between atoms: C_19  and  N_20
REMARK   17  A    between atoms: N_20  and  C_21
REMARK   18  A    between atoms: N_20  and  C_22
REMARK   19  A    between atoms: N_20  and  C_23
REMARK   20  A    between atoms: O_24  and  C_25
REMARK   21  A    between atoms: C_25  and  C_27
REMARK   22  A    between atoms: C_27  and  C_28
REMARK   23  A    between atoms: C_28  and  C_29
REMARK   24  A    between atoms: C_29  and  C_30
REMARK   25  A    between atoms: C_30  and  C_31
REMARK                            x       y       z     vdW  Elec       q    Type
REMARK                         _______ _______ _______ _____ _____    ______ ____
ROOT
ATOM      1  C   UNL     1       8.446  -1.589  25.090  0.00  0.00    +0.214 C 
ENDROOT
BRANCH   1   2
ATOM      2  C   UNL     1       8.410  -2.224  26.486  0.00  0.00    +0.057 C 
BRANCH   2   3
ATOM      3  C   UNL     1       7.317  -3.294  26.583  0.00  0.00    +0.086 C 
BRANCH   3   4
ATOM      4  P   UNL     1       7.954  -4.986  26.460  0.00  0.00    +0.137 P 
ATOM      5  O   UNL     1       7.626  -5.753  27.712  0.00  0.00    -0.307 OA
ATOM      6  O   UNL     1       9.349  -4.993  25.893  0.00  0.00    -0.781 OA
BRANCH   4   7
ATOM      7  O   UNL     1       6.972  -5.592  25.305  0.00  0.00    -0.332 OA
BRANCH   7   8
ATOM      8  C   UNL     1       5.591  -5.298  25.450  0.00  0.00    +0.217 C 
BRANCH   8   9
ATOM      9  C   UNL     1       4.739  -6.461  25.998  0.00  0.00    +0.161 C 
BRANCH   9  10
ATOM     10  N   UNL     1       3.947  -6.163  27.316  0.00  0.00    +0.239 N 
ATOM     11  C   UNL     1       3.926  -4.696  27.653  0.00  0.00    +0.192 C 
ATOM     12  C   UNL     1       4.545  -6.956  28.480  0.00  0.00    +0.192 C 
ATOM     13  C   UNL     1       2.525  -6.668  27.115  0.00  0.00    +0.192 C 
ENDBRANCH   9  10
ENDBRANCH   8   9
ENDBRANCH   7   8
ENDBRANCH   4   7
ENDBRANCH   3   4
ENDBRANCH   2   3
ENDBRANCH   1   2
BRANCH   1  14
ATOM     14  O   UNL     1       7.561  -0.436  25.005  0.00  0.00    -0.458 OA
BRANCH  14  15
ATOM     15  C   UNL     1       6.337  -0.587  24.429  0.00  0.00    +0.307 C 
ATOM     16  O   UNL     1       5.264  -0.276  24.925  0.00  0.00    -0.251 OA
BRANCH  15  17
ATOM     17  C   UNL     1       6.472  -1.142  23.036  0.00  0.00    +0.120 C 
BRANCH  17  18
ATOM     18  C   UNL     1       5.886  -2.549  22.951  0.00  0.00    +0.011 C 
BRANCH  18  19
ATOM     19  C   UNL     1       6.867  -3.558  22.344  0.00  0.00    +0.000 C 
BRANCH  19  20
ATOM     20  C   UNL     1       6.134  -4.781  21.793  0.00  0.00    -0.003 C 
ATOM     21  C   UNL     1       7.035  -6.004  21.764  0.00  0.00    +0.004 C 
ENDBRANCH  19  20
ENDBRANCH  18  19
ENDBRANCH  17  18
ENDBRANCH  15  17
ENDBRANCH  14  15
ENDBRANCH   1  14
BRANCH   1  22
ATOM     22  C   UNL     1       9.846  -1.232  24.557  0.00  0.00    +0.276 C 
BRANCH  22  23
ATOM     23  O   UNL     1      10.147  -1.702  23.240  0.00  0.00    -0.461 OA
BRANCH  23  24
ATOM     24  C   UNL     1       9.908  -0.813  22.242  0.00  0.00    +0.307 C 
ATOM     25  O   UNL     1       9.364  -1.076  21.177  0.00  0.00    -0.251 OA
BRANCH  24  26
ATOM     26  C   UNL     1      10.263   0.584  22.693  0.00  0.00    +0.120 C 
BRANCH  26  27
ATOM     27  C   UNL     1       9.521   1.622  21.846  0.00  0.00    +0.011 C 
BRANCH  27  28
ATOM     28  C   UNL     1       8.637   2.559  22.683  0.00  0.00    +0.000 C 
BRANCH  28  30
ATOM     29  C   UNL     1       8.200   3.008  25.128  0.00  0.00    +0.004 C 
ATOM     30  C   UNL     1       9.261   2.837  24.051  0.00  0.00    -0.003 C 
ENDBRANCH  28  30
ENDBRANCH  27  28
ENDBRANCH  26  27
ENDBRANCH  24  26
ENDBRANCH  23  24
ENDBRANCH  22  23
ENDBRANCH   1  22
TORSDOF 20
ENDMDL
MODEL 7
REMARK VINA RESULT:      -4.8      2.443      3.840
REMARK  Name = 
REMARK  25 active torsions:
REMARK  status: ('A' for Active; 'I' for Inactive)
REMARK    1  A    between atoms: C_1  and  C_2
REMARK    2  A    between atoms: C_2  and  C_3
REMARK    3  A    between atoms: C_3  and  C_4
REMARK    4  A    between atoms: C_4  and  C_5
REMARK    5  A    between atoms: C_5  and  C_6
REMARK    6  A    between atoms: C_6  and  O_8
REMARK    7  A    between atoms: O_8  and  C_9
REMARK    8  A    between atoms: C_9  and  C_10
REMARK    9  A    between atoms: C_10  and  C_12
REMARK   10  A    between atoms: C_10  and  O_24
REMARK   11  A    between atoms: C_12  and  C_13
REMARK   12  A    between atoms: C_13  and  P_14
REMARK   13  A    between atoms: P_14  and  O_17
REMARK   14  A    between atoms: O_17  and  C_18
REMARK   15  A    between atoms: C_18  and  C_19
REMARK   16  A    between atoms: C_19  and  N_20
REMARK   17  A    between atoms: N_20  and  C_21
REMARK   18  A    between atoms: N_20  and  C_22
REMARK   19  A    between atoms: N_20  and  C_23
REMARK   20  A    between atoms: O_24  and  C_25
REMARK   21  A    between atoms: C_25  and  C_27
REMARK   22  A    between atoms: C_27  and  C_28
REMARK   23  A    between atoms: C_28  and  C_29
REMARK   24  A    between atoms: C_29  and  C_30
REMARK   25  A    between atoms: C_30  and  C_31
REMARK                            x       y       z     vdW  Elec       q    Type
REMARK                         _______ _______ _______ _____ _____    ______ ____
ROOT
ATOM      1  C   UNL     1       8.880  -3.876  24.340  0.00  0.00    +0.214 C 
ENDROOT
BRANCH   1   2
ATOM      2  C   UNL     1       7.898  -3.657  23.182  0.00  0.00    +0.057 C 
BRANCH   2   3
ATOM      3  C   UNL     1       7.254  -4.976  22.742  0.00  0.00    +0.086 C 
BRANCH   3   4
ATOM      4  P   UNL     1       5.859  -4.751  21.607  0.00  0.00    +0.137 P 
ATOM      5  O   UNL     1       6.035  -5.624  20.393  0.00  0.00    -0.307 OA
ATOM      6  O   UNL     1       5.514  -3.292  21.465  0.00  0.00    -0.781 OA
BRANCH   4   7
ATOM      7  O   UNL     1       4.657  -5.440  22.470  0.00  0.00    -0.332 OA
BRANCH   7   8
ATOM      8  C   UNL     1       4.107  -4.644  23.509  0.00  0.00    +0.217 C 
BRANCH   8   9
ATOM      9  C   UNL     1       3.195  -5.408  24.492  0.00  0.00    +0.161 C 
BRANCH   9  10
ATOM     10  N   UNL     1       3.811  -5.706  25.900  0.00  0.00    +0.239 N 
ATOM     11  C   UNL     1       5.226  -6.214  25.812  0.00  0.00    +0.192 C 
ATOM     12  C   UNL     1       2.942  -6.716  26.652  0.00  0.00    +0.192 C 
ATOM     13  C   UNL     1       3.775  -4.408  26.694  0.00  0.00    +0.192 C 
ENDBRANCH   9  10
ENDBRANCH   8   9
ENDBRANCH   7   8
ENDBRANCH   4   7
ENDBRANCH   3   4
ENDBRANCH   2   3
ENDBRANCH   1   2
BRANCH   1  14
ATOM     14  O   UNL     1      10.142  -3.187  24.108  0.00  0.00    -0.458 OA
BRANCH  14  15
ATOM     15  C   UNL     1      10.131  -2.007  23.429  0.00  0.00    +0.307 C 
ATOM     16  O   UNL     1      10.261  -1.870  22.220  0.00  0.00    -0.251 OA
BRANCH  15  17
ATOM     17  C   UNL     1       9.867  -0.859  24.366  0.00  0.00    +0.120 C 
BRANCH  17  18
ATOM     18  C   UNL     1      10.782   0.322  24.050  0.00  0.00    +0.011 C 
BRANCH  18  19
ATOM     19  C   UNL     1      10.002   1.566  23.607  0.00  0.00    +0.000 C 
BRANCH  19  20
ATOM     20  C   UNL     1      10.029   1.724  22.088  0.00  0.00    -0.003 C 
ATOM     21  C   UNL     1       8.747   1.212  21.452  0.00  0.00    +0.004 C 
ENDBRANCH  19  20
ENDBRANCH  18  19
ENDBRANCH  17  18
ENDBRANCH  15  17
ENDBRANCH  14  15
ENDBRANCH   1  14
BRANCH   1  22
ATOM     22  C   UNL     1       8.339  -3.546  25.743  0.00  0.00    +0.276 C 
BRANCH  22  23
ATOM     23  O   UNL     1       6.972  -3.125  25.798  0.00  0.00    -0.461 OA
BRANCH  23  24
ATOM     24  C   UNL     1       6.779  -1.843  26.202  0.00  0.00    +0.307 C 
ATOM     25  O   UNL     1       7.488  -1.239  26.996  0.00  0.00    -0.251 OA
BRANCH  24  26
ATOM     26  C   UNL     1       5.657  -1.211  25.412  0.00  0.00    +0.120 C 
BRANCH  26  27
ATOM     27  C   UNL     1       6.221  -0.406  24.238  0.00  0.00    +0.011 C 
BRANCH  27  28
ATOM     28  C   UNL     1       6.527   1.054  24.604  0.00  0.00    +0.000 C 
BRANCH  28  30
ATOM     29  C   UNL     1       5.198   3.181  24.319  0.00  0.00    +0.004 C 
ATOM     30  C   UNL     1       5.886   2.023  23.610  0.00  0.00    -0.003 C 
ENDBRANCH  28  30
ENDBRANCH  27  28
ENDBRANCH  26  27
ENDBRANCH  24  26
ENDBRANCH  23  24
ENDBRANCH  22  23
ENDBRANCH   1  22
TORSDOF 20
ENDMDL
MODEL 8
REMARK VINA RESULT:      -4.8      3.026      7.811
REMARK  Name = 
REMARK  25 active torsions:
REMARK  status: ('A' for Active; 'I' for Inactive)
REMARK    1  A    between atoms: C_1  and  C_2
REMARK    2  A    between atoms: C_2  and  C_3
REMARK    3  A    between atoms: C_3  and  C_4
REMARK    4  A    between atoms: C_4  and  C_5
REMARK    5  A    between atoms: C_5  and  C_6
REMARK    6  A    between atoms: C_6  and  O_8
REMARK    7  A    between atoms: O_8  and  C_9
REMARK    8  A    between atoms: C_9  and  C_10
REMARK    9  A    between atoms: C_10  and  C_12
REMARK   10  A    between atoms: C_10  and  O_24
REMARK   11  A    between atoms: C_12  and  C_13
REMARK   12  A    between atoms: C_13  and  P_14
REMARK   13  A    between atoms: P_14  and  O_17
REMARK   14  A    between atoms: O_17  and  C_18
REMARK   15  A    between atoms: C_18  and  C_19
REMARK   16  A    between atoms: C_19  and  N_20
REMARK   17  A    between atoms: N_20  and  C_21
REMARK   18  A    between atoms: N_20  and  C_22
REMARK   19  A    between atoms: N_20  and  C_23
REMARK   20  A    between atoms: O_24  and  C_25
REMARK   21  A    between atoms: C_25  and  C_27
REMARK   22  A    between atoms: C_27  and  C_28
REMARK   23  A    between atoms: C_28  and  C_29
REMARK   24  A    between atoms: C_29  and  C_30
REMARK   25  A    between atoms: C_30  and  C_31
REMARK                            x       y       z     vdW  Elec       q    Type
REMARK                         _______ _______ _______ _____ _____    ______ ____
ROOT
ATOM      1  C   UNL     1       7.492  -3.193  23.727  0.00  0.00    +0.214 C 
ENDROOT
BRANCH   1   2
ATOM      2  C   UNL     1       7.935  -1.781  24.131  0.00  0.00    +0.057 C 
BRANCH   2   3
ATOM      3  C   UNL     1       8.109  -0.880  22.903  0.00  0.00    +0.086 C 
BRANCH   3   4
ATOM      4  P   UNL     1       9.842  -0.506  22.525  0.00  0.00    +0.137 P 
ATOM      5  O   UNL     1       9.926   0.707  21.638  0.00  0.00    -0.307 OA
ATOM      6  O   UNL     1      10.601  -1.763  22.189  0.00  0.00    -0.781 OA
BRANCH   4   7
ATOM      7  O   UNL     1      10.368  -0.014  23.990  0.00  0.00    -0.332 OA
BRANCH   7   8
ATOM      8  C   UNL     1      10.446   1.391  24.180  0.00  0.00    +0.217 C 
BRANCH   8   9
ATOM      9  C   UNL     1       9.171   2.032  24.767  0.00  0.00    +0.161 C 
BRANCH   9  10
ATOM     10  N   UNL     1       8.813   3.456  24.223  0.00  0.00    +0.239 N 
ATOM     11  C   UNL     1       8.172   4.327  25.271  0.00  0.00    +0.192 C 
ATOM     12  C   UNL     1       7.889   3.339  23.008  0.00  0.00    +0.192 C 
ATOM     13  C   UNL     1      10.107   4.095  23.739  0.00  0.00    +0.192 C 
ENDBRANCH   9  10
ENDBRANCH   8   9
ENDBRANCH   7   8
ENDBRANCH   4   7
ENDBRANCH   3   4
ENDBRANCH   2   3
ENDBRANCH   1   2
BRANCH   1  14
ATOM     14  O   UNL     1       7.166  -3.265  22.310  0.00  0.00    -0.458 OA
BRANCH  14  15
ATOM     15  C   UNL     1       6.027  -3.905  21.928  0.00  0.00    +0.307 C 
ATOM     16  O   UNL     1       5.854  -4.499  20.874  0.00  0.00    -0.251 OA
BRANCH  15  17
ATOM     17  C   UNL     1       4.995  -3.847  23.022  0.00  0.00    +0.120 C 
BRANCH  17  18
ATOM     18  C   UNL     1       4.632  -5.250  23.503  0.00  0.00    +0.011 C 
BRANCH  18  19
ATOM     19  C   UNL     1       3.154  -5.585  23.273  0.00  0.00    +0.000 C 
BRANCH  19  20
ATOM     20  C   UNL     1       2.693  -6.714  24.194  0.00  0.00    -0.003 C 
ATOM     21  C   UNL     1       3.857  -7.312  24.967  0.00  0.00    +0.004 C 
ENDBRANCH  19  20
ENDBRANCH  18  19
ENDBRANCH  17  18
ENDBRANCH  15  17
ENDBRANCH  14  15
ENDBRANCH   1  14
BRANCH   1  22
ATOM     22  C   UNL     1       8.455  -4.329  24.115  0.00  0.00    +0.276 C 
BRANCH  22  23
ATOM     23  O   UNL     1       7.913  -5.334  24.978  0.00  0.00    -0.461 OA
BRANCH  23  24
ATOM     24  C   UNL     1       7.832  -4.986  26.288  0.00  0.00    +0.307 C 
ATOM     25  O   UNL     1       8.745  -4.514  26.951  0.00  0.00    -0.251 OA
BRANCH  24  26
ATOM     26  C   UNL     1       6.407  -5.117  26.773  0.00  0.00    +0.120 C 
BRANCH  26  27
ATOM     27  C   UNL     1       5.758  -3.734  26.895  0.00  0.00    +0.011 C 
BRANCH  27  28
ATOM     28  C   UNL     1       4.467  -3.749  27.727  0.00  0.00    +0.000 C 
BRANCH  28  30
ATOM     29  C   UNL     1       2.750  -3.074  26.005  0.00  0.00    +0.004 C 
ATOM     30  C   UNL     1       3.270  -4.198  26.888  0.00  0.00    -0.003 C 
ENDBRANCH  28  30
ENDBRANCH  27  28
ENDBRANCH  26  27
ENDBRANCH  24  26
ENDBRANCH  23  24
ENDBRANCH  22  23
ENDBRANCH   1  22
TORSDOF 20
ENDMDL
MODEL 9
REMARK VINA RESULT:      -4.8      3.078      7.947
REMARK  Name = 
REMARK  25 active torsions:
REMARK  status: ('A' for Active; 'I' for Inactive)
REMARK    1  A    between atoms: C_1  and  C_2
REMARK    2  A    between atoms: C_2  and  C_3
REMARK    3  A    between atoms: C_3  and  C_4
REMARK    4  A    between atoms: C_4  and  C_5
REMARK    5  A    between atoms: C_5  and  C_6
REMARK    6  A    between atoms: C_6  and  O_8
REMARK    7  A    between atoms: O_8  and  C_9
REMARK    8  A    between atoms: C_9  and  C_10
REMARK    9  A    between atoms: C_10  and  C_12
REMARK   10  A    between atoms: C_10  and  O_24
REMARK   11  A    between atoms: C_12  and  C_13
REMARK   12  A    between atoms: C_13  and  P_14
REMARK   13  A    between atoms: P_14  and  O_17
REMARK   14  A    between atoms: O_17  and  C_18
REMARK   15  A    between atoms: C_18  and  C_19
REMARK   16  A    between atoms: C_19  and  N_20
REMARK   17  A    between atoms: N_20  and  C_21
REMARK   18  A    between atoms: N_20  and  C_22
REMARK   19  A    between atoms: N_20  and  C_23
REMARK   20  A    between atoms: O_24  and  C_25
REMARK   21  A    between atoms: C_25  and  C_27
REMARK   22  A    between atoms: C_27  and  C_28
REMARK   23  A    between atoms: C_28  and  C_29
REMARK   24  A    between atoms: C_29  and  C_30
REMARK   25  A    between atoms: C_30  and  C_31
REMARK                            x       y       z     vdW  Elec       q    Type
REMARK                         _______ _______ _______ _____ _____    ______ ____
ROOT
ATOM      1  C   UNL     1       6.430  -2.813  23.169  0.00  0.00    +0.214 C 
ENDROOT
BRANCH   1   2
ATOM      2  C   UNL     1       7.825  -2.454  22.642  0.00  0.00    +0.057 C 
BRANCH   2   3
ATOM      3  C   UNL     1       8.210  -1.019  23.018  0.00  0.00    +0.086 C 
BRANCH   3   4
ATOM      4  P   UNL     1       9.897  -0.574  22.527  0.00  0.00    +0.137 P 
ATOM      5  O   UNL     1       9.863   0.549  21.526  0.00  0.00    -0.307 OA
ATOM      6  O   UNL     1      10.724  -1.808  22.275  0.00  0.00    -0.781 OA
BRANCH   4   7
ATOM      7  O   UNL     1      10.448   0.090  23.913  0.00  0.00    -0.332 OA
BRANCH   7   8
ATOM      8  C   UNL     1      10.441   1.508  23.964  0.00  0.00    +0.217 C 
BRANCH   8   9
ATOM      9  C   UNL     1       9.218   2.121  24.676  0.00  0.00    +0.161 C 
BRANCH   9  10
ATOM     10  N   UNL     1       8.753   3.520  24.149  0.00  0.00    +0.239 N 
ATOM     11  C   UNL     1       9.912   4.429  23.836  0.00  0.00    +0.192 C 
ATOM     12  C   UNL     1       7.830   4.188  25.170  0.00  0.00    +0.192 C 
ATOM     13  C   UNL     1       7.930   3.280  22.892  0.00  0.00    +0.192 C 
ENDBRANCH   9  10
ENDBRANCH   8   9
ENDBRANCH   7   8
ENDBRANCH   4   7
ENDBRANCH   3   4
ENDBRANCH   2   3
ENDBRANCH   1   2
BRANCH   1  14
ATOM     14  O   UNL     1       5.852  -1.719  23.936  0.00  0.00    -0.458 OA
BRANCH  14  15
ATOM     15  C   UNL     1       5.262  -1.993  25.132  0.00  0.00    +0.307 C 
ATOM     16  O   UNL     1       4.466  -1.278  25.723  0.00  0.00    -0.251 OA
BRANCH  15  17
ATOM     17  C   UNL     1       5.671  -3.356  25.624  0.00  0.00    +0.120 C 
BRANCH  17  18
ATOM     18  C   UNL     1       6.732  -3.244  26.716  0.00  0.00    +0.011 C 
BRANCH  18  19
ATOM     19  C   UNL     1       7.528  -4.542  26.896  0.00  0.00    +0.000 C 
BRANCH  19  20
ATOM     20  C   UNL     1       8.897  -4.448  26.224  0.00  0.00    -0.003 C 
ATOM     21  C   UNL     1       8.926  -5.212  24.910  0.00  0.00    +0.004 C 
ENDBRANCH  19  20
ENDBRANCH  18  19
ENDBRANCH  17  18
ENDBRANCH  15  17
ENDBRANCH  14  15
ENDBRANCH   1  14
BRANCH   1  22
ATOM     22  C   UNL     1       5.430  -3.317  22.114  0.00  0.00    +0.276 C 
BRANCH  22  23
ATOM     23  O   UNL     1       5.884  -4.398  21.293  0.00  0.00    -0.461 OA
BRANCH  23  24
ATOM     24  C   UNL     1       5.948  -5.605  21.914  0.00  0.00    +0.307 C 
ATOM     25  O   UNL     1       6.918  -6.351  21.907  0.00  0.00    -0.251 OA
BRANCH  24  26
ATOM     26  C   UNL     1       4.707  -5.827  22.747  0.00  0.00    +0.120 C 
BRANCH  26  27
ATOM     27  C   UNL     1       5.066  -6.544  24.052  0.00  0.00    +0.011 C 
BRANCH  27  28
ATOM     28  C   UNL     1       3.839  -7.110  24.783  0.00  0.00    +0.000 C 
BRANCH  28  30
ATOM     29  C   UNL     1       4.768  -6.840  27.114  0.00  0.00    +0.004 C 
ATOM     30  C   UNL     1       3.655  -6.454  26.152  0.00  0.00    -0.003 C 
ENDBRANCH  28  30
ENDBRANCH  27  28
ENDBRANCH  26  27
ENDBRANCH  24  26
ENDBRANCH  23  24
ENDBRANCH  22  23
ENDBRANCH   1  22
TORSDOF 20
ENDMDL
