MODEL 1
REMARK VINA RESULT:      -7.4      0.000      0.000
REMARK  Name = 
REMARK  3 active torsions:
REMARK  status: ('A' for Active; 'I' for Inactive)
REMARK    1  A    between atoms: C_1  and  N_2
REMARK    2  A    between atoms: C_3  and  C_4
REMARK    3  A    between atoms: C_13  and  O_14
REMARK                            x       y       z     vdW  Elec       q    Type
REMARK                         _______ _______ _______ _____ _____    ______ ____
ROOT
ATOM      1  C   UNL     1       6.899  -3.404  21.745  0.00  0.00    +0.158 C 
ATOM      2  N   UNL     1       6.690  -3.982  23.082  0.00  0.00    -0.197 N 
ATOM      3  S   UNL     1       5.574  -5.246  23.067  0.00  0.00    +0.075 S 
ATOM      4  O   UNL     1       4.304  -4.682  22.636  0.00  0.00    -0.150 OA
ATOM      5  O   UNL     1       6.174  -6.342  22.338  0.00  0.00    -0.150 OA
ATOM      6  C   UNL     1       5.346  -5.786  24.700  0.00  0.00    +0.119 A 
ATOM      7  C   UNL     1       4.309  -6.693  24.960  0.00  0.00    +0.029 A 
ATOM      8  C   UNL     1       4.100  -7.158  26.256  0.00  0.00    +0.002 A 
ATOM      9  C   UNL     1       4.932  -6.711  27.276  0.00  0.00    +0.001 A 
ATOM     10  C   UNL     1       5.957  -5.800  26.999  0.00  0.00    +0.013 A 
ATOM     11  C   UNL     1       6.187  -5.312  25.694  0.00  0.00    +0.045 A 
ATOM     12  C   UNL     1       7.248  -4.320  25.427  0.00  0.00    +0.153 C 
ATOM     13  C   UNL     1       7.491  -3.706  24.241  0.00  0.00    +0.155 C 
ENDROOT
BRANCH  13  14
ATOM     14  C   UNL     1       8.549  -2.618  24.248  0.00  0.00    +0.268 C 
ATOM     15  N   UNL     1       8.110  -1.318  24.260  0.00  0.00    -0.265 N 
ATOM     16  H   UNL     1       7.160  -1.124  23.975  0.00  0.00    +0.157 HD
ATOM     17  C   UNL     1       8.958  -0.207  24.159  0.00  0.00    +0.125 A 
ATOM     18  C   UNL     1      10.227  -0.156  24.732  0.00  0.00    +0.044 A 
ATOM     19  C   UNL     1      11.019   0.972  24.517  0.00  0.00    +0.005 A 
ATOM     20  C   UNL     1      10.534   1.999  23.718  0.00  0.00    +0.020 A 
ATOM     21  C   UNL     1       9.251   1.875  23.215  0.00  0.00    +0.113 A 
ATOM     22  N   UNL     1       8.440   0.816  23.452  0.00  0.00    -0.240 NA
ATOM     23  O   UNL     1       9.732  -2.937  24.094  0.00  0.00    -0.268 OA
ENDBRANCH  13  14
BRANCH  12  24
ATOM     24  O   UNL     1       7.996  -4.047  26.575  0.00  0.00    -0.504 OA
ATOM     25  H   UNL     1       7.942  -3.089  26.784  0.00  0.00    +0.292 HD
ENDBRANCH  12  24
TORSDOF 2
ENDMDL
MODEL 2
REMARK VINA RESULT:      -7.1      2.022      3.132
REMARK  Name = 
REMARK  3 active torsions:
REMARK  status: ('A' for Active; 'I' for Inactive)
REMARK    1  A    between atoms: C_1  and  N_2
REMARK    2  A    between atoms: C_3  and  C_4
REMARK    3  A    between atoms: C_13  and  O_14
REMARK                            x       y       z     vdW  Elec       q    Type
REMARK                         _______ _______ _______ _____ _____    ______ ____
ROOT
ATOM      1  C   UNL     1       7.847  -3.617  26.337  0.00  0.00    +0.158 C 
ATOM      2  N   UNL     1       6.758  -4.142  25.498  0.00  0.00    -0.197 N 
ATOM      3  S   UNL     1       5.742  -5.186  26.348  0.00  0.00    +0.075 S 
ATOM      4  O   UNL     1       6.553  -6.320  26.764  0.00  0.00    -0.150 OA
ATOM      5  O   UNL     1       5.032  -4.393  27.329  0.00  0.00    -0.150 OA
ATOM      6  C   UNL     1       4.557  -5.806  25.243  0.00  0.00    +0.119 A 
ATOM      7  C   UNL     1       3.729  -6.852  25.675  0.00  0.00    +0.029 A 
ATOM      8  C   UNL     1       2.759  -7.371  24.820  0.00  0.00    +0.002 A 
ATOM      9  C   UNL     1       2.627  -6.835  23.544  0.00  0.00    +0.001 A 
ATOM     10  C   UNL     1       3.467  -5.797  23.127  0.00  0.00    +0.013 A 
ATOM     11  C   UNL     1       4.460  -5.256  23.974  0.00  0.00    +0.045 A 
ATOM     12  C   UNL     1       5.365  -4.188  23.504  0.00  0.00    +0.153 C 
ATOM     13  C   UNL     1       6.416  -3.668  24.188  0.00  0.00    +0.155 C 
ENDROOT
BRANCH  13  14
ATOM     14  C   UNL     1       7.284  -2.675  23.438  0.00  0.00    +0.268 C 
ATOM     15  N   UNL     1       7.051  -1.342  23.667  0.00  0.00    -0.265 N 
ATOM     16  H   UNL     1       6.165  -1.067  24.067  0.00  0.00    +0.157 HD
ATOM     17  C   UNL     1       7.692  -0.307  22.973  0.00  0.00    +0.125 A 
ATOM     18  C   UNL     1       9.023  -0.367  22.565  0.00  0.00    +0.044 A 
ATOM     19  C   UNL     1       9.548   0.690  21.822  0.00  0.00    +0.005 A 
ATOM     20  C   UNL     1       8.726   1.758  21.486  0.00  0.00    +0.020 A 
ATOM     21  C   UNL     1       7.427   1.746  21.960  0.00  0.00    +0.113 A 
ATOM     22  N   UNL     1       6.906   0.759  22.729  0.00  0.00    -0.240 NA
ATOM     23  O   UNL     1       8.046  -3.093  22.561  0.00  0.00    -0.268 OA
ENDBRANCH  13  14
BRANCH  12  24
ATOM     24  O   UNL     1       5.029  -3.762  22.216  0.00  0.00    -0.504 OA
ATOM     25  H   UNL     1       4.609  -4.500  21.723  0.00  0.00    +0.292 HD
ENDBRANCH  12  24
TORSDOF 2
ENDMDL
MODEL 3
REMARK VINA RESULT:      -7.0      2.987      4.616
REMARK  Name = 
REMARK  3 active torsions:
REMARK  status: ('A' for Active; 'I' for Inactive)
REMARK    1  A    between atoms: C_1  and  N_2
REMARK    2  A    between atoms: C_3  and  C_4
REMARK    3  A    between atoms: C_13  and  O_14
REMARK                            x       y       z     vdW  Elec       q    Type
REMARK                         _______ _______ _______ _____ _____    ______ ____
ROOT
ATOM      1  C   UNL     1       8.672   0.568  21.478  0.00  0.00    +0.158 C 
ATOM      2  N   UNL     1       8.690  -0.183  22.743  0.00  0.00    -0.197 N 
ATOM      3  S   UNL     1       8.535  -1.845  22.505  0.00  0.00    +0.075 S 
ATOM      4  O   UNL     1       7.235  -2.064  21.890  0.00  0.00    -0.150 OA
ATOM      5  O   UNL     1       9.742  -2.301  21.849  0.00  0.00    -0.150 OA
ATOM      6  C   UNL     1       8.481  -2.612  24.060  0.00  0.00    +0.119 A 
ATOM      7  C   UNL     1       8.149  -3.973  24.117  0.00  0.00    +0.029 A 
ATOM      8  C   UNL     1       8.105  -4.627  25.346  0.00  0.00    +0.002 A 
ATOM      9  C   UNL     1       8.395  -3.913  26.503  0.00  0.00    +0.001 A 
ATOM     10  C   UNL     1       8.716  -2.553  26.427  0.00  0.00    +0.013 A 
ATOM     11  C   UNL     1       8.765  -1.867  25.194  0.00  0.00    +0.045 A 
ATOM     12  C   UNL     1       9.066  -0.422  25.135  0.00  0.00    +0.153 C 
ATOM     13  C   UNL     1       9.038   0.359  24.026  0.00  0.00    +0.155 C 
ENDROOT
BRANCH  13  14
ATOM     14  C   UNL     1       9.250   1.846  24.241  0.00  0.00    +0.268 C 
ATOM     15  N   UNL     1      10.204   2.461  23.471  0.00  0.00    -0.265 N 
ATOM     16  H   UNL     1      10.909   1.890  23.024  0.00  0.00    +0.157 HD
ATOM     17  C   UNL     1      10.591   3.798  23.627  0.00  0.00    +0.125 A 
ATOM     18  C   UNL     1       9.705   4.817  23.970  0.00  0.00    +0.044 A 
ATOM     19  C   UNL     1      10.203   6.106  24.166  0.00  0.00    +0.005 A 
ATOM     20  C   UNL     1      11.568   6.332  24.040  0.00  0.00    +0.020 A 
ATOM     21  C   UNL     1      12.367   5.267  23.667  0.00  0.00    +0.113 A 
ATOM     22  N   UNL     1      11.903   4.018  23.418  0.00  0.00    -0.240 NA
ATOM     23  O   UNL     1       8.675   2.399  25.184  0.00  0.00    -0.268 OA
ENDBRANCH  13  14
BRANCH  12  24
ATOM     24  O   UNL     1       9.376   0.088  26.399  0.00  0.00    -0.504 OA
ATOM     25  H   UNL     1       9.034   1.005  26.478  0.00  0.00    +0.292 HD
ENDBRANCH  12  24
TORSDOF 2
ENDMDL
MODEL 4
REMARK VINA RESULT:      -6.9      2.694      7.288
REMARK  Name = 
REMARK  3 active torsions:
REMARK  status: ('A' for Active; 'I' for Inactive)
REMARK    1  A    between atoms: C_1  and  N_2
REMARK    2  A    between atoms: C_3  and  C_4
REMARK    3  A    between atoms: C_13  and  O_14
REMARK                            x       y       z     vdW  Elec       q    Type
REMARK                         _______ _______ _______ _____ _____    ______ ____
ROOT
ATOM      1  C   UNL     1       9.802  -2.598  23.846  0.00  0.00    +0.158 C 
ATOM      2  N   UNL     1       8.850  -1.482  23.730  0.00  0.00    -0.197 N 
ATOM      3  S   UNL     1       9.415  -0.260  22.714  0.00  0.00    +0.075 S 
ATOM      4  O   UNL     1      10.628   0.267  23.321  0.00  0.00    -0.150 OA
ATOM      5  O   UNL     1       9.441  -0.795  21.370  0.00  0.00    -0.150 OA
ATOM      6  C   UNL     1       8.256   1.031  22.725  0.00  0.00    +0.119 A 
ATOM      7  C   UNL     1       8.608   2.243  22.114  0.00  0.00    +0.029 A 
ATOM      8  C   UNL     1       7.701   3.301  22.093  0.00  0.00    +0.002 A 
ATOM      9  C   UNL     1       6.453   3.132  22.681  0.00  0.00    +0.001 A 
ATOM     10  C   UNL     1       6.123   1.918  23.293  0.00  0.00    +0.013 A 
ATOM     11  C   UNL     1       7.025   0.832  23.330  0.00  0.00    +0.045 A 
ATOM     12  C   UNL     1       6.675  -0.428  24.015  0.00  0.00    +0.153 C 
ATOM     13  C   UNL     1       7.496  -1.493  24.204  0.00  0.00    +0.155 C 
ENDROOT
BRANCH  13  14
ATOM     14  C   UNL     1       6.952  -2.621  25.061  0.00  0.00    +0.268 C 
ATOM     15  N   UNL     1       6.602  -3.782  24.420  0.00  0.00    -0.265 N 
ATOM     16  H   UNL     1       6.439  -3.756  23.423  0.00  0.00    +0.157 HD
ATOM     17  C   UNL     1       5.986  -4.870  25.054  0.00  0.00    +0.125 A 
ATOM     18  C   UNL     1       6.278  -5.262  26.359  0.00  0.00    +0.044 A 
ATOM     19  C   UNL     1       5.561  -6.318  26.921  0.00  0.00    +0.005 A 
ATOM     20  C   UNL     1       4.561  -6.931  26.178  0.00  0.00    +0.020 A 
ATOM     21  C   UNL     1       4.362  -6.495  24.880  0.00  0.00    +0.113 A 
ATOM     22  N   UNL     1       5.079  -5.508  24.291  0.00  0.00    -0.240 NA
ATOM     23  O   UNL     1       6.710  -2.400  26.252  0.00  0.00    -0.268 OA
ENDBRANCH  13  14
BRANCH  12  24
ATOM     24  O   UNL     1       5.362  -0.405  24.492  0.00  0.00    -0.504 OA
ATOM     25  H   UNL     1       5.213  -1.171  25.087  0.00  0.00    +0.292 HD
ENDBRANCH  12  24
TORSDOF 2
ENDMDL
MODEL 5
REMARK VINA RESULT:      -6.9      3.372      7.803
REMARK  Name = 
REMARK  3 active torsions:
REMARK  status: ('A' for Active; 'I' for Inactive)
REMARK    1  A    between atoms: C_1  and  N_2
REMARK    2  A    between atoms: C_3  and  C_4
REMARK    3  A    between atoms: C_13  and  O_14
REMARK                            x       y       z     vdW  Elec       q    Type
REMARK                         _______ _______ _______ _____ _____    ______ ____
ROOT
ATOM      1  C   UNL     1       5.672   0.504  25.236  0.00  0.00    +0.158 C 
ATOM      2  N   UNL     1       6.996   0.974  24.799  0.00  0.00    -0.197 N 
ATOM      3  S   UNL     1       7.200   2.631  25.041  0.00  0.00    +0.075 S 
ATOM      4  O   UNL     1       6.208   3.303  24.216  0.00  0.00    -0.150 OA
ATOM      5  O   UNL     1       7.239   2.856  26.470  0.00  0.00    -0.150 OA
ATOM      6  C   UNL     1       8.753   3.082  24.413  0.00  0.00    +0.119 A 
ATOM      7  C   UNL     1       9.058   4.447  24.317  0.00  0.00    +0.029 A 
ATOM      8  C   UNL     1      10.299   4.850  23.827  0.00  0.00    +0.002 A 
ATOM      9  C   UNL     1      11.219   3.882  23.441  0.00  0.00    +0.001 A 
ATOM     10  C   UNL     1      10.894   2.524  23.537  0.00  0.00    +0.013 A 
ATOM     11  C   UNL     1       9.642   2.091  24.027  0.00  0.00    +0.045 A 
ATOM     12  C   UNL     1       9.300   0.656  24.083  0.00  0.00    +0.153 C 
ATOM     13  C   UNL     1       8.099   0.131  24.435  0.00  0.00    +0.155 C 
ENDROOT
BRANCH  13  14
ATOM     14  C   UNL     1       7.947  -1.371  24.282  0.00  0.00    +0.268 C 
ATOM     15  N   UNL     1       7.676  -1.848  23.024  0.00  0.00    -0.265 N 
ATOM     16  H   UNL     1       7.306  -1.211  22.333  0.00  0.00    +0.157 HD
ATOM     17  C   UNL     1       7.402  -3.193  22.742  0.00  0.00    +0.125 A 
ATOM     18  C   UNL     1       8.023  -4.256  23.395  0.00  0.00    +0.044 A 
ATOM     19  C   UNL     1       7.631  -5.558  23.086  0.00  0.00    +0.005 A 
ATOM     20  C   UNL     1       6.617  -5.760  22.158  0.00  0.00    +0.020 A 
ATOM     21  C   UNL     1       6.080  -4.646  21.537  0.00  0.00    +0.113 A 
ATOM     22  N   UNL     1       6.478  -3.375  21.779  0.00  0.00    -0.240 NA
ATOM     23  O   UNL     1       7.925  -2.074  25.297  0.00  0.00    -0.268 OA
ENDBRANCH  13  14
BRANCH  12  24
ATOM     24  O   UNL     1      10.380  -0.144  23.699  0.00  0.00    -0.504 OA
ATOM     25  H   UNL     1      10.464  -0.136  22.721  0.00  0.00    +0.292 HD
ENDBRANCH  12  24
TORSDOF 2
ENDMDL
MODEL 6
REMARK VINA RESULT:      -6.9      3.052      4.774
REMARK  Name = 
REMARK  3 active torsions:
REMARK  status: ('A' for Active; 'I' for Inactive)
REMARK    1  A    between atoms: C_1  and  N_2
REMARK    2  A    between atoms: C_3  and  C_4
REMARK    3  A    between atoms: C_13  and  O_14
REMARK                            x       y       z     vdW  Elec       q    Type
REMARK                         _______ _______ _______ _____ _____    ______ ____
ROOT
ATOM      1  C   UNL     1       9.679   0.253  21.536  0.00  0.00    +0.158 C 
ATOM      2  N   UNL     1       9.164  -0.262  22.815  0.00  0.00    -0.197 N 
ATOM      3  S   UNL     1       9.114  -1.948  22.854  0.00  0.00    +0.075 S 
ATOM      4  O   UNL     1       8.186  -2.366  21.815  0.00  0.00    -0.150 OA
ATOM      5  O   UNL     1      10.482  -2.420  22.850  0.00  0.00    -0.150 OA
ATOM      6  C   UNL     1       8.414  -2.433  24.366  0.00  0.00    +0.119 A 
ATOM      7  C   UNL     1       8.081  -3.784  24.539  0.00  0.00    +0.029 A 
ATOM      8  C   UNL     1       7.526  -4.215  25.743  0.00  0.00    +0.002 A 
ATOM      9  C   UNL     1       7.313  -3.289  26.758  0.00  0.00    +0.001 A 
ATOM     10  C   UNL     1       7.644  -1.944  26.564  0.00  0.00    +0.013 A 
ATOM     11  C   UNL     1       8.205  -1.482  25.352  0.00  0.00    +0.045 A 
ATOM     12  C   UNL     1       8.511  -0.051  25.150  0.00  0.00    +0.153 C 
ATOM     13  C   UNL     1       8.951   0.519  24.000  0.00  0.00    +0.155 C 
ENDROOT
BRANCH  13  14
ATOM     14  C   UNL     1       9.062   2.033  23.997  0.00  0.00    +0.268 C 
ATOM     15  N   UNL     1       7.984   2.739  23.528  0.00  0.00    -0.265 N 
ATOM     16  H   UNL     1       7.305   2.262  22.950  0.00  0.00    +0.157 HD
ATOM     17  C   UNL     1       7.974   4.130  23.360  0.00  0.00    +0.125 A 
ATOM     18  C   UNL     1       8.624   5.010  24.223  0.00  0.00    +0.044 A 
ATOM     19  C   UNL     1       8.609   6.375  23.931  0.00  0.00    +0.005 A 
ATOM     20  C   UNL     1       7.972   6.814  22.778  0.00  0.00    +0.020 A 
ATOM     21  C   UNL     1       7.328   5.872  21.997  0.00  0.00    +0.113 A 
ATOM     22  N   UNL     1       7.281   4.549  22.285  0.00  0.00    -0.240 NA
ATOM     23  O   UNL     1      10.150   2.550  24.268  0.00  0.00    -0.268 OA
ENDBRANCH  13  14
BRANCH  12  24
ATOM     24  O   UNL     1       8.270   0.693  26.307  0.00  0.00    -0.504 OA
ATOM     25  H   UNL     1       9.097   0.767  26.831  0.00  0.00    +0.292 HD
ENDBRANCH  12  24
TORSDOF 2
ENDMDL
MODEL 7
REMARK VINA RESULT:      -6.8      3.740      8.379
REMARK  Name = 
REMARK  3 active torsions:
REMARK  status: ('A' for Active; 'I' for Inactive)
REMARK    1  A    between atoms: C_1  and  N_2
REMARK    2  A    between atoms: C_3  and  C_4
REMARK    3  A    between atoms: C_13  and  O_14
REMARK                            x       y       z     vdW  Elec       q    Type
REMARK                         _______ _______ _______ _____ _____    ______ ____
ROOT
ATOM      1  C   UNL     1       5.847   1.721  24.520  0.00  0.00    +0.158 C 
ATOM      2  N   UNL     1       7.228   2.132  24.220  0.00  0.00    -0.197 N 
ATOM      3  S   UNL     1       7.520   3.742  24.626  0.00  0.00    +0.075 S 
ATOM      4  O   UNL     1       6.639   4.553  23.800  0.00  0.00    -0.150 OA
ATOM      5  O   UNL     1       7.467   3.839  26.069  0.00  0.00    -0.150 OA
ATOM      6  C   UNL     1       9.142   4.135  24.150  0.00  0.00    +0.119 A 
ATOM      7  C   UNL     1       9.542   5.478  24.200  0.00  0.00    +0.029 A 
ATOM      8  C   UNL     1      10.839   5.832  23.835  0.00  0.00    +0.002 A 
ATOM      9  C   UNL     1      11.720   4.838  23.426  0.00  0.00    +0.001 A 
ATOM     10  C   UNL     1      11.301   3.504  23.374  0.00  0.00    +0.013 A 
ATOM     11  C   UNL     1       9.991   3.120  23.736  0.00  0.00    +0.045 A 
ATOM     12  C   UNL     1       9.553   1.713  23.637  0.00  0.00    +0.153 C 
ATOM     13  C   UNL     1       8.298   1.247  23.856  0.00  0.00    +0.155 C 
ENDROOT
BRANCH  13  14
ATOM     14  C   UNL     1       8.061  -0.222  23.556  0.00  0.00    +0.268 C 
ATOM     15  N   UNL     1       8.277  -1.113  24.577  0.00  0.00    -0.265 N 
ATOM     16  H   UNL     1       8.844  -0.823  25.362  0.00  0.00    +0.157 HD
ATOM     17  C   UNL     1       8.208  -2.504  24.427  0.00  0.00    +0.125 A 
ATOM     18  C   UNL     1       7.291  -3.140  23.592  0.00  0.00    +0.044 A 
ATOM     19  C   UNL     1       7.348  -4.528  23.463  0.00  0.00    +0.005 A 
ATOM     20  C   UNL     1       8.330  -5.234  24.146  0.00  0.00    +0.020 A 
ATOM     21  C   UNL     1       9.178  -4.521  24.975  0.00  0.00    +0.113 A 
ATOM     22  N   UNL     1       9.111  -3.181  25.161  0.00  0.00    -0.240 NA
ATOM     23  O   UNL     1       7.835  -0.562  22.391  0.00  0.00    -0.268 OA
ENDBRANCH  13  14
BRANCH  12  24
ATOM     24  O   UNL     1      10.604   0.875  23.256  0.00  0.00    -0.504 OA
ATOM     25  H   UNL     1      10.695   0.883  22.278  0.00  0.00    +0.292 HD
ENDBRANCH  12  24
TORSDOF 2
ENDMDL
MODEL 8
REMARK VINA RESULT:      -6.8      3.383      7.340
REMARK  Name = 
REMARK  3 active torsions:
REMARK  status: ('A' for Active; 'I' for Inactive)
REMARK    1  A    between atoms: C_1  and  N_2
REMARK    2  A    between atoms: C_3  and  C_4
REMARK    3  A    between atoms: C_13  and  O_14
REMARK                            x       y       z     vdW  Elec       q    Type
REMARK                         _______ _______ _______ _____ _____    ______ ____
ROOT
ATOM      1  C   UNL     1       9.428  -0.027  21.362  0.00  0.00    +0.158 C 
ATOM      2  N   UNL     1       8.813   0.456  22.609  0.00  0.00    -0.197 N 
ATOM      3  S   UNL     1       8.932   2.130  22.776  0.00  0.00    +0.075 S 
ATOM      4  O   UNL     1      10.350   2.448  22.841  0.00  0.00    -0.150 OA
ATOM      5  O   UNL     1       8.094   2.725  21.757  0.00  0.00    -0.150 OA
ATOM      6  C   UNL     1       8.256   2.570  24.312  0.00  0.00    +0.119 A 
ATOM      7  C   UNL     1       8.429   3.887  24.760  0.00  0.00    +0.029 A 
ATOM      8  C   UNL     1       7.892   4.281  25.984  0.00  0.00    +0.002 A 
ATOM      9  C   UNL     1       7.188   3.354  26.743  0.00  0.00    +0.001 A 
ATOM     10  C   UNL     1       7.032   2.042  26.282  0.00  0.00    +0.013 A 
ATOM     11  C   UNL     1       7.568   1.617  25.047  0.00  0.00    +0.045 A 
ATOM     12  C   UNL     1       7.429   0.218  24.596  0.00  0.00    +0.153 C 
ATOM     13  C   UNL     1       7.989  -0.326  23.485  0.00  0.00    +0.155 C 
ENDROOT
BRANCH  13  14
ATOM     14  C   UNL     1       7.816  -1.823  23.305  0.00  0.00    +0.268 C 
ATOM     15  N   UNL     1       6.662  -2.251  22.701  0.00  0.00    -0.265 N 
ATOM     16  H   UNL     1       5.870  -1.624  22.666  0.00  0.00    +0.157 HD
ATOM     17  C   UNL     1       6.307  -3.600  22.562  0.00  0.00    +0.125 A 
ATOM     18  C   UNL     1       7.231  -4.614  22.317  0.00  0.00    +0.044 A 
ATOM     19  C   UNL     1       6.784  -5.934  22.261  0.00  0.00    +0.005 A 
ATOM     20  C   UNL     1       5.439  -6.204  22.477  0.00  0.00    +0.020 A 
ATOM     21  C   UNL     1       4.590  -5.132  22.682  0.00  0.00    +0.113 A 
ATOM     22  N   UNL     1       4.988  -3.837  22.688  0.00  0.00    -0.240 NA
ATOM     23  O   UNL     1       8.632  -2.584  23.834  0.00  0.00    -0.268 OA
ENDBRANCH  13  14
BRANCH  12  24
ATOM     24  O   UNL     1       6.646  -0.530  25.478  0.00  0.00    -0.504 OA
ATOM     25  H   UNL     1       5.838  -0.845  25.018  0.00  0.00    +0.292 HD
ENDBRANCH  12  24
TORSDOF 2
ENDMDL
MODEL 9
REMARK VINA RESULT:      -6.7      2.952      7.536
REMARK  Name = 
REMARK  3 active torsions:
REMARK  status: ('A' for Active; 'I' for Inactive)
REMARK    1  A    between atoms: C_1  and  N_2
REMARK    2  A    between atoms: C_3  and  C_4
REMARK    3  A    between atoms: C_13  and  O_14
REMARK                            x       y       z     vdW  Elec       q    Type
REMARK                         _______ _______ _______ _____ _____    ______ ____
ROOT
ATOM      1  C   UNL     1       9.934  -1.848  22.846  0.00  0.00    +0.158 C 
ATOM      2  N   UNL     1       9.103  -0.716  23.288  0.00  0.00    -0.197 N 
ATOM      3  S   UNL     1       9.941   0.747  23.248  0.00  0.00    +0.075 S 
ATOM      4  O   UNL     1      11.045   0.628  24.188  0.00  0.00    -0.150 OA
ATOM      5  O   UNL     1      10.193   1.062  21.858  0.00  0.00    -0.150 OA
ATOM      6  C   UNL     1       8.896   1.986  23.868  0.00  0.00    +0.119 A 
ATOM      7  C   UNL     1       9.445   3.251  24.123  0.00  0.00    +0.029 A 
ATOM      8  C   UNL     1       8.636   4.274  24.612  0.00  0.00    +0.002 A 
ATOM      9  C   UNL     1       7.288   4.021  24.838  0.00  0.00    +0.001 A 
ATOM     10  C   UNL     1       6.760   2.750  24.586  0.00  0.00    +0.013 A 
ATOM     11  C   UNL     1       7.559   1.695  24.092  0.00  0.00    +0.045 A 
ATOM     12  C   UNL     1       6.994   0.349  23.870  0.00  0.00    +0.153 C 
ATOM     13  C   UNL     1       7.685  -0.760  23.501  0.00  0.00    +0.155 C 
ENDROOT
BRANCH  13  14
ATOM     14  C   UNL     1       6.906  -2.062  23.470  0.00  0.00    +0.268 C 
ATOM     15  N   UNL     1       6.556  -2.611  24.678  0.00  0.00    -0.265 N 
ATOM     16  H   UNL     1       7.054  -2.317  25.507  0.00  0.00    +0.157 HD
ATOM     17  C   UNL     1       5.934  -3.858  24.817  0.00  0.00    +0.125 A 
ATOM     18  C   UNL     1       4.986  -4.347  23.920  0.00  0.00    +0.044 A 
ATOM     19  C   UNL     1       4.474  -5.630  24.113  0.00  0.00    +0.005 A 
ATOM     20  C   UNL     1       4.941  -6.395  25.174  0.00  0.00    +0.020 A 
ATOM     21  C   UNL     1       5.860  -5.816  26.031  0.00  0.00    +0.113 A 
ATOM     22  N   UNL     1       6.334  -4.554  25.899  0.00  0.00    -0.240 NA
ATOM     23  O   UNL     1       6.753  -2.638  22.389  0.00  0.00    -0.268 OA
ENDBRANCH  13  14
BRANCH  12  24
ATOM     24  O   UNL     1       5.618   0.325  24.110  0.00  0.00    -0.504 OA
ATOM     25  H   UNL     1       5.174   1.000  23.552  0.00  0.00    +0.292 HD
ENDBRANCH  12  24
TORSDOF 2
ENDMDL
