MODEL 1
REMARK VINA RESULT:      -5.8      0.000      0.000
REMARK  Name = 
REMARK  6 active torsions:
REMARK  status: ('A' for Active; 'I' for Inactive)
REMARK    1  A    between atoms: O_1  and  C_2
REMARK    2  A    between atoms: C_2  and  C_4
REMARK    3  A    between atoms: C_4  and  C_6
REMARK    4  A    between atoms: C_6  and  C_7
REMARK    5  A    between atoms: C_7  and  C_8
REMARK    6  A    between atoms: C_8  and  C_9
REMARK                            x       y       z     vdW  Elec       q    Type
REMARK                         _______ _______ _______ _____ _____    ______ ____
ROOT
ATOM      1  C   UNL     1      11.081   3.524  23.520  0.00  0.00    +0.013 C 
ENDROOT
BRANCH   1   2
ATOM      2  C   UNL     1      10.954   5.040  23.665  0.00  0.00    +0.087 C 
BRANCH   2   3
ATOM      3  C   UNL     1      12.309   5.680  23.838  0.00  0.00    +0.239 C 
ATOM      4  O   UNL     1      12.670   6.379  24.782  0.00  0.00    -0.285 OA
BRANCH   3   5
ATOM      5  C   UNL     1      13.336   5.438  22.736  0.00  0.00    +0.373 C 
ATOM      6  O   UNL     1      13.109   5.624  21.558  0.00  0.00    -0.242 OA
BRANCH   5   7
ATOM      7  O   UNL     1      14.494   4.999  23.264  0.00  0.00    -0.475 OA
ATOM      8  H   UNL     1      14.698   5.531  24.071  0.00  0.00    +0.295 HD
ENDBRANCH   5   7
ENDBRANCH   3   5
ENDBRANCH   2   3
ENDBRANCH   1   2
BRANCH   1   9
ATOM      9  C   UNL     1       9.761   2.801  23.791  0.00  0.00    +0.035 C 
BRANCH   9  10
ATOM     10  C   UNL     1       9.764   1.419  23.186  0.00  0.00    -0.047 A 
ATOM     11  C   UNL     1       9.348   1.223  21.861  0.00  0.00    +0.003 A 
ATOM     12  C   UNL     1       9.382  -0.050  21.289  0.00  0.00    +0.000 A 
ATOM     13  C   UNL     1       9.835  -1.139  22.032  0.00  0.00    +0.000 A 
ATOM     14  C   UNL     1      10.255  -0.955  23.347  0.00  0.00    +0.000 A 
ATOM     15  C   UNL     1      10.222   0.318  23.922  0.00  0.00    +0.003 A 
ENDBRANCH   9  10
ENDBRANCH   1   9
TORSDOF 6
ENDMDL
MODEL 2
REMARK VINA RESULT:      -5.6      5.882      7.897
REMARK  Name = 
REMARK  6 active torsions:
REMARK  status: ('A' for Active; 'I' for Inactive)
REMARK    1  A    between atoms: O_1  and  C_2
REMARK    2  A    between atoms: C_2  and  C_4
REMARK    3  A    between atoms: C_4  and  C_6
REMARK    4  A    between atoms: C_6  and  C_7
REMARK    5  A    between atoms: C_7  and  C_8
REMARK    6  A    between atoms: C_8  and  C_9
REMARK                            x       y       z     vdW  Elec       q    Type
REMARK                         _______ _______ _______ _____ _____    ______ ____
ROOT
ATOM      1  C   UNL     1       9.674  -2.397  24.179  0.00  0.00    +0.013 C 
ENDROOT
BRANCH   1   2
ATOM      2  C   UNL     1       8.363  -3.167  24.029  0.00  0.00    +0.087 C 
BRANCH   2   3
ATOM      3  C   UNL     1       8.573  -4.640  24.276  0.00  0.00    +0.239 C 
ATOM      4  O   UNL     1       8.290  -5.556  23.507  0.00  0.00    -0.285 OA
BRANCH   3   5
ATOM      5  C   UNL     1       9.201  -5.038  25.609  0.00  0.00    +0.373 C 
ATOM      6  O   UNL     1       8.658  -4.865  26.681  0.00  0.00    -0.242 OA
BRANCH   5   7
ATOM      7  O   UNL     1      10.411  -5.592  25.410  0.00  0.00    -0.475 OA
ATOM      8  H   UNL     1      10.573  -6.266  26.114  0.00  0.00    +0.295 HD
ENDBRANCH   5   7
ENDBRANCH   3   5
ENDBRANCH   2   3
ENDBRANCH   1   2
BRANCH   1   9
ATOM      9  C   UNL     1      10.173  -1.834  22.848  0.00  0.00    +0.035 C 
BRANCH   9  10
ATOM     10  C   UNL     1      10.213  -0.326  22.875  0.00  0.00    -0.047 A 
ATOM     11  C   UNL     1       9.731   0.416  21.788  0.00  0.00    +0.003 A 
ATOM     12  C   UNL     1       9.736   1.812  21.825  0.00  0.00    +0.000 A 
ATOM     13  C   UNL     1      10.218   2.480  22.949  0.00  0.00    +0.000 A 
ATOM     14  C   UNL     1      10.696   1.752  24.037  0.00  0.00    +0.000 A 
ATOM     15  C   UNL     1      10.692   0.356  24.001  0.00  0.00    +0.003 A 
ENDBRANCH   9  10
ENDBRANCH   1   9
TORSDOF 6
ENDMDL
MODEL 3
REMARK VINA RESULT:      -5.6      5.905      8.021
REMARK  Name = 
REMARK  6 active torsions:
REMARK  status: ('A' for Active; 'I' for Inactive)
REMARK    1  A    between atoms: O_1  and  C_2
REMARK    2  A    between atoms: C_2  and  C_4
REMARK    3  A    between atoms: C_4  and  C_6
REMARK    4  A    between atoms: C_6  and  C_7
REMARK    5  A    between atoms: C_7  and  C_8
REMARK    6  A    between atoms: C_8  and  C_9
REMARK                            x       y       z     vdW  Elec       q    Type
REMARK                         _______ _______ _______ _____ _____    ______ ____
ROOT
ATOM      1  C   UNL     1       9.527  -2.393  24.295  0.00  0.00    +0.013 C 
ENDROOT
BRANCH   1   2
ATOM      2  C   UNL     1       8.279  -3.229  24.016  0.00  0.00    +0.087 C 
BRANCH   2   3
ATOM      3  C   UNL     1       8.546  -4.693  24.262  0.00  0.00    +0.239 C 
ATOM      4  O   UNL     1       8.304  -5.618  23.490  0.00  0.00    -0.285 OA
BRANCH   3   5
ATOM      5  C   UNL     1       9.179  -5.068  25.599  0.00  0.00    +0.373 C 
ATOM      6  O   UNL     1       8.630  -4.899  26.669  0.00  0.00    -0.242 OA
BRANCH   5   7
ATOM      7  O   UNL     1      10.402  -5.596  25.406  0.00  0.00    -0.475 OA
ATOM      8  H   UNL     1      10.846  -5.112  24.668  0.00  0.00    +0.295 HD
ENDBRANCH   5   7
ENDBRANCH   3   5
ENDBRANCH   2   3
ENDBRANCH   1   2
BRANCH   1   9
ATOM      9  C   UNL     1      10.172  -1.866  23.012  0.00  0.00    +0.035 C 
BRANCH   9  10
ATOM     10  C   UNL     1      10.178  -0.357  22.986  0.00  0.00    -0.047 A 
ATOM     11  C   UNL     1      10.644   0.370  24.091  0.00  0.00    +0.003 A 
ATOM     12  C   UNL     1      10.683   1.765  24.056  0.00  0.00    +0.000 A 
ATOM     13  C   UNL     1      10.259   2.448  22.917  0.00  0.00    +0.000 A 
ATOM     14  C   UNL     1       9.798   1.736  21.812  0.00  0.00    +0.000 A 
ATOM     15  C   UNL     1       9.759   0.340  21.845  0.00  0.00    +0.003 A 
ENDBRANCH   9  10
ENDBRANCH   1   9
TORSDOF 6
ENDMDL
MODEL 4
REMARK VINA RESULT:      -5.0      3.729      6.034
REMARK  Name = 
REMARK  6 active torsions:
REMARK  status: ('A' for Active; 'I' for Inactive)
REMARK    1  A    between atoms: O_1  and  C_2
REMARK    2  A    between atoms: C_2  and  C_4
REMARK    3  A    between atoms: C_4  and  C_6
REMARK    4  A    between atoms: C_6  and  C_7
REMARK    5  A    between atoms: C_7  and  C_8
REMARK    6  A    between atoms: C_8  and  C_9
REMARK                            x       y       z     vdW  Elec       q    Type
REMARK                         _______ _______ _______ _____ _____    ______ ____
ROOT
ATOM      1  C   UNL     1       8.836   1.628  22.708  0.00  0.00    +0.013 C 
ENDROOT
BRANCH   1   2
ATOM      2  C   UNL     1       8.567   0.246  23.302  0.00  0.00    +0.087 C 
BRANCH   2   3
ATOM      3  C   UNL     1       9.857  -0.432  23.691  0.00  0.00    +0.239 C 
ATOM      4  O   UNL     1      10.694  -0.007  24.485  0.00  0.00    -0.285 OA
BRANCH   3   5
ATOM      5  C   UNL     1      10.156  -1.779  23.040  0.00  0.00    +0.373 C 
ATOM      6  O   UNL     1      10.223  -2.821  23.660  0.00  0.00    -0.242 OA
BRANCH   5   7
ATOM      7  O   UNL     1      10.328  -1.630  21.713  0.00  0.00    -0.475 OA
ATOM      8  H   UNL     1      11.292  -1.525  21.526  0.00  0.00    +0.295 HD
ENDBRANCH   5   7
ENDBRANCH   3   5
ENDBRANCH   2   3
ENDBRANCH   1   2
BRANCH   1   9
ATOM      9  C   UNL     1       8.548   2.754  23.702  0.00  0.00    +0.035 C 
BRANCH   9  10
ATOM     10  C   UNL     1       9.660   3.774  23.705  0.00  0.00    -0.047 A 
ATOM     11  C   UNL     1      10.965   3.403  23.353  0.00  0.00    +0.003 A 
ATOM     12  C   UNL     1      11.989   4.353  23.322  0.00  0.00    +0.000 A 
ATOM     13  C   UNL     1      11.718   5.683  23.639  0.00  0.00    +0.000 A 
ATOM     14  C   UNL     1      10.424   6.064  23.987  0.00  0.00    +0.000 A 
ATOM     15  C   UNL     1       9.399   5.115  24.018  0.00  0.00    +0.003 A 
ENDBRANCH   9  10
ENDBRANCH   1   9
TORSDOF 6
ENDMDL
MODEL 5
REMARK VINA RESULT:      -5.0      4.250      6.425
REMARK  Name = 
REMARK  6 active torsions:
REMARK  status: ('A' for Active; 'I' for Inactive)
REMARK    1  A    between atoms: O_1  and  C_2
REMARK    2  A    between atoms: C_2  and  C_4
REMARK    3  A    between atoms: C_4  and  C_6
REMARK    4  A    between atoms: C_6  and  C_7
REMARK    5  A    between atoms: C_7  and  C_8
REMARK    6  A    between atoms: C_8  and  C_9
REMARK                            x       y       z     vdW  Elec       q    Type
REMARK                         _______ _______ _______ _____ _____    ______ ____
ROOT
ATOM      1  C   UNL     1       9.497   1.217  24.286  0.00  0.00    +0.013 C 
ENDROOT
BRANCH   1   2
ATOM      2  C   UNL     1      10.116  -0.006  24.960  0.00  0.00    +0.087 C 
BRANCH   2   3
ATOM      3  C   UNL     1       9.374  -1.263  24.581  0.00  0.00    +0.239 C 
ATOM      4  O   UNL     1       8.265  -1.605  24.986  0.00  0.00    -0.285 OA
BRANCH   3   5
ATOM      5  C   UNL     1      10.063  -2.205  23.597  0.00  0.00    +0.373 C 
ATOM      6  O   UNL     1      10.518  -1.842  22.532  0.00  0.00    -0.242 OA
BRANCH   5   7
ATOM      7  O   UNL     1      10.082  -3.459  24.086  0.00  0.00    -0.475 OA
ATOM      8  H   UNL     1       9.188  -3.862  23.965  0.00  0.00    +0.295 HD
ENDBRANCH   5   7
ENDBRANCH   3   5
ENDBRANCH   2   3
ENDBRANCH   1   2
BRANCH   1   9
ATOM      9  C   UNL     1      10.459   1.891  23.307  0.00  0.00    +0.035 C 
BRANCH   9  10
ATOM     10  C   UNL     1      10.520   3.381  23.541  0.00  0.00    -0.047 A 
ATOM     11  C   UNL     1       9.403   4.067  24.037  0.00  0.00    +0.003 A 
ATOM     12  C   UNL     1       9.468   5.440  24.286  0.00  0.00    +0.000 A 
ATOM     13  C   UNL     1      10.649   6.139  24.046  0.00  0.00    +0.000 A 
ATOM     14  C   UNL     1      11.767   5.466  23.558  0.00  0.00    +0.000 A 
ATOM     15  C   UNL     1      11.704   4.093  23.308  0.00  0.00    +0.003 A 
ENDBRANCH   9  10
ENDBRANCH   1   9
TORSDOF 6
ENDMDL
MODEL 6
REMARK VINA RESULT:      -5.0      6.790      8.846
REMARK  Name = 
REMARK  6 active torsions:
REMARK  status: ('A' for Active; 'I' for Inactive)
REMARK    1  A    between atoms: O_1  and  C_2
REMARK    2  A    between atoms: C_2  and  C_4
REMARK    3  A    between atoms: C_4  and  C_6
REMARK    4  A    between atoms: C_6  and  C_7
REMARK    5  A    between atoms: C_7  and  C_8
REMARK    6  A    between atoms: C_8  and  C_9
REMARK                            x       y       z     vdW  Elec       q    Type
REMARK                         _______ _______ _______ _____ _____    ______ ____
ROOT
ATOM      1  C   UNL     1       8.118  -3.285  24.001  0.00  0.00    +0.013 C 
ENDROOT
BRANCH   1   2
ATOM      2  C   UNL     1       7.954  -4.718  23.497  0.00  0.00    +0.087 C 
BRANCH   2   3
ATOM      3  C   UNL     1       6.529  -5.186  23.658  0.00  0.00    +0.239 C 
ATOM      4  O   UNL     1       6.010  -5.603  24.691  0.00  0.00    -0.285 OA
BRANCH   3   5
ATOM      5  C   UNL     1       5.639  -5.136  22.419  0.00  0.00    +0.373 C 
ATOM      6  O   UNL     1       5.053  -4.136  22.057  0.00  0.00    -0.242 OA
BRANCH   5   7
ATOM      7  O   UNL     1       5.610  -6.338  21.815  0.00  0.00    -0.475 OA
ATOM      8  H   UNL     1       5.195  -6.237  20.924  0.00  0.00    +0.295 HD
ENDBRANCH   5   7
ENDBRANCH   3   5
ENDBRANCH   2   3
ENDBRANCH   1   2
BRANCH   1   9
ATOM      9  C   UNL     1       9.580  -2.834  24.005  0.00  0.00    +0.035 C 
BRANCH   9  10
ATOM     10  C   UNL     1       9.735  -1.489  23.339  0.00  0.00    -0.047 A 
ATOM     11  C   UNL     1       9.363  -1.313  21.998  0.00  0.00    +0.003 A 
ATOM     12  C   UNL     1       9.475  -0.061  21.391  0.00  0.00    +0.000 A 
ATOM     13  C   UNL     1       9.955   1.028  22.116  0.00  0.00    +0.000 A 
ATOM     14  C   UNL     1      10.323   0.866  23.449  0.00  0.00    +0.000 A 
ATOM     15  C   UNL     1      10.213  -0.386  24.059  0.00  0.00    +0.003 A 
ENDBRANCH   9  10
ENDBRANCH   1   9
TORSDOF 6
ENDMDL
MODEL 7
REMARK VINA RESULT:      -5.0      6.427      8.534
REMARK  Name = 
REMARK  6 active torsions:
REMARK  status: ('A' for Active; 'I' for Inactive)
REMARK    1  A    between atoms: O_1  and  C_2
REMARK    2  A    between atoms: C_2  and  C_4
REMARK    3  A    between atoms: C_4  and  C_6
REMARK    4  A    between atoms: C_6  and  C_7
REMARK    5  A    between atoms: C_7  and  C_8
REMARK    6  A    between atoms: C_8  and  C_9
REMARK                            x       y       z     vdW  Elec       q    Type
REMARK                         _______ _______ _______ _____ _____    ______ ____
ROOT
ATOM      1  C   UNL     1       7.065  -3.614  23.939  0.00  0.00    +0.013 C 
ENDROOT
BRANCH   1   2
ATOM      2  C   UNL     1       7.063  -5.120  24.199  0.00  0.00    +0.087 C 
BRANCH   2   3
ATOM      3  C   UNL     1       7.495  -5.423  25.612  0.00  0.00    +0.239 C 
ATOM      4  O   UNL     1       6.805  -5.931  26.493  0.00  0.00    -0.285 OA
BRANCH   3   5
ATOM      5  C   UNL     1       8.930  -5.067  25.990  0.00  0.00    +0.373 C 
ATOM      6  O   UNL     1       9.215  -4.291  26.879  0.00  0.00    -0.242 OA
BRANCH   5   7
ATOM      7  O   UNL     1       9.799  -5.729  25.203  0.00  0.00    -0.475 OA
ATOM      8  H   UNL     1       9.413  -6.609  24.972  0.00  0.00    +0.295 HD
ENDBRANCH   5   7
ENDBRANCH   3   5
ENDBRANCH   2   3
ENDBRANCH   1   2
BRANCH   1   9
ATOM      9  C   UNL     1       7.800  -3.249  22.649  0.00  0.00    +0.035 C 
BRANCH   9  10
ATOM     10  C   UNL     1       8.731  -2.080  22.865  0.00  0.00    -0.047 A 
ATOM     11  C   UNL     1       9.103  -1.261  21.790  0.00  0.00    +0.003 A 
ATOM     12  C   UNL     1       9.936  -0.159  21.994  0.00  0.00    +0.000 A 
ATOM     13  C   UNL     1      10.403   0.137  23.273  0.00  0.00    +0.000 A 
ATOM     14  C   UNL     1      10.037  -0.669  24.350  0.00  0.00    +0.000 A 
ATOM     15  C   UNL     1       9.203  -1.771  24.148  0.00  0.00    +0.003 A 
ENDBRANCH   9  10
ENDBRANCH   1   9
TORSDOF 6
ENDMDL
MODEL 8
REMARK VINA RESULT:      -4.8      3.916      6.028
REMARK  Name = 
REMARK  6 active torsions:
REMARK  status: ('A' for Active; 'I' for Inactive)
REMARK    1  A    between atoms: O_1  and  C_2
REMARK    2  A    between atoms: C_2  and  C_4
REMARK    3  A    between atoms: C_4  and  C_6
REMARK    4  A    between atoms: C_6  and  C_7
REMARK    5  A    between atoms: C_7  and  C_8
REMARK    6  A    between atoms: C_8  and  C_9
REMARK                            x       y       z     vdW  Elec       q    Type
REMARK                         _______ _______ _______ _____ _____    ______ ____
ROOT
ATOM      1  C   UNL     1      10.461   2.280  24.030  0.00  0.00    +0.013 C 
ENDROOT
BRANCH   1   2
ATOM      2  C   UNL     1      10.590   0.758  24.021  0.00  0.00    +0.087 C 
BRANCH   2   3
ATOM      3  C   UNL     1      10.159   0.189  22.691  0.00  0.00    +0.239 C 
ATOM      4  O   UNL     1       9.853   0.830  21.689  0.00  0.00    -0.285 OA
BRANCH   3   5
ATOM      5  C   UNL     1      10.097  -1.331  22.575  0.00  0.00    +0.373 C 
ATOM      6  O   UNL     1      10.193  -2.079  23.526  0.00  0.00    -0.242 OA
BRANCH   5   7
ATOM      7  O   UNL     1       9.927  -1.695  21.290  0.00  0.00    -0.475 OA
ATOM      8  H   UNL     1      10.705  -2.233  21.005  0.00  0.00    +0.295 HD
ENDBRANCH   5   7
ENDBRANCH   3   5
ENDBRANCH   2   3
ENDBRANCH   1   2
BRANCH   1   9
ATOM      9  C   UNL     1       9.084   2.744  24.504  0.00  0.00    +0.035 C 
BRANCH   9  10
ATOM     10  C   UNL     1       8.672   4.021  23.812  0.00  0.00    -0.047 A 
ATOM     11  C   UNL     1       9.396   5.204  24.017  0.00  0.00    +0.003 A 
ATOM     12  C   UNL     1       9.037   6.379  23.352  0.00  0.00    +0.000 A 
ATOM     13  C   UNL     1       7.956   6.382  22.473  0.00  0.00    +0.000 A 
ATOM     14  C   UNL     1       7.232   5.211  22.259  0.00  0.00    +0.000 A 
ATOM     15  C   UNL     1       7.589   4.035  22.923  0.00  0.00    +0.003 A 
ENDBRANCH   9  10
ENDBRANCH   1   9
TORSDOF 6
ENDMDL
MODEL 9
REMARK VINA RESULT:      -4.7      6.476      8.471
REMARK  Name = 
REMARK  6 active torsions:
REMARK  status: ('A' for Active; 'I' for Inactive)
REMARK    1  A    between atoms: O_1  and  C_2
REMARK    2  A    between atoms: C_2  and  C_4
REMARK    3  A    between atoms: C_4  and  C_6
REMARK    4  A    between atoms: C_6  and  C_7
REMARK    5  A    between atoms: C_7  and  C_8
REMARK    6  A    between atoms: C_8  and  C_9
REMARK                            x       y       z     vdW  Elec       q    Type
REMARK                         _______ _______ _______ _____ _____    ______ ____
ROOT
ATOM      1  C   UNL     1       8.114  -2.214  22.952  0.00  0.00    +0.013 C 
ENDROOT
BRANCH   1   2
ATOM      2  C   UNL     1       7.514  -3.348  22.123  0.00  0.00    +0.087 C 
BRANCH   2   3
ATOM      3  C   UNL     1       7.150  -4.521  22.998  0.00  0.00    +0.239 C 
ATOM      4  O   UNL     1       7.922  -5.182  23.690  0.00  0.00    -0.285 OA
BRANCH   3   5
ATOM      5  C   UNL     1       5.680  -4.930  23.033  0.00  0.00    +0.373 C 
ATOM      6  O   UNL     1       4.823  -4.402  22.355  0.00  0.00    -0.242 OA
BRANCH   5   7
ATOM      7  O   UNL     1       5.495  -5.937  23.908  0.00  0.00    -0.475 OA
ATOM      8  H   UNL     1       5.790  -6.781  23.489  0.00  0.00    +0.295 HD
ENDBRANCH   5   7
ENDBRANCH   3   5
ENDBRANCH   2   3
ENDBRANCH   1   2
BRANCH   1   9
ATOM      9  C   UNL     1       9.567  -1.922  22.573  0.00  0.00    +0.035 C 
BRANCH   9  10
ATOM     10  C   UNL     1       9.903  -0.466  22.789  0.00  0.00    -0.047 A 
ATOM     11  C   UNL     1       9.676   0.473  21.773  0.00  0.00    +0.003 A 
ATOM     12  C   UNL     1       9.955   1.825  21.983  0.00  0.00    +0.000 A 
ATOM     13  C   UNL     1      10.460   2.253  23.209  0.00  0.00    +0.000 A 
ATOM     14  C   UNL     1      10.686   1.329  24.227  0.00  0.00    +0.000 A 
ATOM     15  C   UNL     1      10.407  -0.024  24.019  0.00  0.00    +0.003 A 
ENDBRANCH   9  10
ENDBRANCH   1   9
TORSDOF 6
ENDMDL
