MODEL 1
REMARK VINA RESULT:      -5.3      0.000      0.000
REMARK  Name = 
REMARK  9 active torsions:
REMARK  status: ('A' for Active; 'I' for Inactive)
REMARK    1  A    between atoms: C_1  and  C_2
REMARK    2  A    between atoms: C_2  and  C_3
REMARK    3  A    between atoms: C_2  and  C_4
REMARK    4  A    between atoms: C_4  and  C_5
REMARK    5  A    between atoms: C_5  and  N_7
REMARK    6  A    between atoms: C_5  and  C_14
REMARK    7  A    between atoms: C_9  and  C_10
REMARK    8  A    between atoms: C_10  and  N_11
REMARK    9  A    between atoms: C_14  and  O_15
REMARK                            x       y       z     vdW  Elec       q    Type
REMARK                         _______ _______ _______ _____ _____    ______ ____
ROOT
ATOM      1  C   UNL     1       8.348  -4.641  24.054  0.00  0.00    +0.217 C 
ENDROOT
BRANCH   1   2
ATOM      2  N   UNL     1       8.854  -3.318  23.747  0.00  0.00    -0.238 N 
ATOM      3  N   UNL     1      10.178  -3.075  23.851  0.00  0.00    -0.065 NA
ATOM      4  N   UNL     1      10.463  -2.058  23.051  0.00  0.00    -0.133 NA
ATOM      5  C   UNL     1       9.300  -1.645  22.452  0.00  0.00    +0.096 A 
ATOM      6  C   UNL     1       8.251  -2.391  22.946  0.00  0.00    +0.135 A 
BRANCH   5   7
ATOM      7  C   UNL     1       9.312  -0.635  21.362  0.00  0.00    +0.137 C 
BRANCH   7   8
ATOM      8  N   UNL     1       9.888   0.603  21.886  0.00  0.00    -0.325 NA
ATOM      9  H   UNL     1       9.302   0.950  22.642  0.00  0.00    +0.119 HD
ATOM     10  H   UNL     1      10.793   0.388  22.309  0.00  0.00    +0.119 HD
ENDBRANCH   7   8
ENDBRANCH   5   7
ENDBRANCH   1   2
BRANCH   1  11
ATOM     11  C   UNL     1       8.966  -5.129  25.355  0.00  0.00    +0.330 C 
ATOM     12  O   UNL     1       8.444  -4.921  26.448  0.00  0.00    -0.249 OA
BRANCH  11  13
ATOM     13  O   UNL     1      10.167  -5.750  25.262  0.00  0.00    -0.479 OA
ATOM     14  H   UNL     1      10.578  -5.726  24.364  0.00  0.00    +0.295 HD
ENDBRANCH  11  13
ENDBRANCH   1  11
BRANCH   1  15
ATOM     15  C   UNL     1       6.818  -4.756  24.167  0.00  0.00    +0.041 C 
BRANCH  15  17
ATOM     16  C   UNL     1       4.733  -5.351  22.825  0.00  0.00    +0.007 C 
ATOM     17  C   UNL     1       6.158  -5.758  23.200  0.00  0.00    -0.015 C 
ATOM     18  C   UNL     1       7.005  -5.876  21.928  0.00  0.00    +0.007 C 
ENDBRANCH  15  17
ENDBRANCH   1  15
TORSDOF 7
ENDMDL
MODEL 2
REMARK VINA RESULT:      -5.1      3.359      5.241
REMARK  Name = 
REMARK  9 active torsions:
REMARK  status: ('A' for Active; 'I' for Inactive)
REMARK    1  A    between atoms: C_1  and  C_2
REMARK    2  A    between atoms: C_2  and  C_3
REMARK    3  A    between atoms: C_2  and  C_4
REMARK    4  A    between atoms: C_4  and  C_5
REMARK    5  A    between atoms: C_5  and  N_7
REMARK    6  A    between atoms: C_5  and  C_14
REMARK    7  A    between atoms: C_9  and  C_10
REMARK    8  A    between atoms: C_10  and  N_11
REMARK    9  A    between atoms: C_14  and  O_15
REMARK                            x       y       z     vdW  Elec       q    Type
REMARK                         _______ _______ _______ _____ _____    ______ ____
ROOT
ATOM      1  C   UNL     1       7.633  -4.676  24.492  0.00  0.00    +0.217 C 
ENDROOT
BRANCH   1   2
ATOM      2  N   UNL     1       7.194  -5.446  25.638  0.00  0.00    -0.238 N 
ATOM      3  N   UNL     1       7.986  -5.523  26.728  0.00  0.00    -0.065 NA
ATOM      4  N   UNL     1       7.211  -5.782  27.770  0.00  0.00    -0.133 NA
ATOM      5  C   UNL     1       5.917  -5.888  27.326  0.00  0.00    +0.096 A 
ATOM      6  C   UNL     1       5.902  -5.753  25.954  0.00  0.00    +0.135 A 
BRANCH   5   7
ATOM      7  C   UNL     1       4.783  -5.999  28.280  0.00  0.00    +0.137 C 
BRANCH   7   8
ATOM      8  N   UNL     1       4.656  -7.399  28.686  0.00  0.00    -0.325 NA
ATOM      9  H   UNL     1       3.758  -7.758  28.372  0.00  0.00    +0.119 HD
ATOM     10  H   UNL     1       5.364  -7.946  28.193  0.00  0.00    +0.119 HD
ENDBRANCH   7   8
ENDBRANCH   5   7
ENDBRANCH   1   2
BRANCH   1  11
ATOM     11  C   UNL     1       9.092  -4.286  24.674  0.00  0.00    +0.330 C 
ATOM     12  O   UNL     1       9.463  -3.114  24.667  0.00  0.00    -0.249 OA
BRANCH  11  13
ATOM     13  O   UNL     1       9.985  -5.299  24.775  0.00  0.00    -0.479 OA
ATOM     14  H   UNL     1       9.679  -6.070  25.312  0.00  0.00    +0.295 HD
ENDBRANCH  11  13
ENDBRANCH   1  11
BRANCH   1  15
ATOM     15  C   UNL     1       7.480  -5.370  23.128  0.00  0.00    +0.041 C 
BRANCH  15  17
ATOM     16  C   UNL     1       6.271  -3.428  22.000  0.00  0.00    +0.007 C 
ATOM     17  C   UNL     1       6.260  -4.928  22.296  0.00  0.00    -0.015 C 
ATOM     18  C   UNL     1       6.231  -5.707  20.976  0.00  0.00    +0.007 C 
ENDBRANCH  15  17
ENDBRANCH   1  15
TORSDOF 7
ENDMDL
MODEL 3
REMARK VINA RESULT:      -5.0      3.198      5.342
REMARK  Name = 
REMARK  9 active torsions:
REMARK  status: ('A' for Active; 'I' for Inactive)
REMARK    1  A    between atoms: C_1  and  C_2
REMARK    2  A    between atoms: C_2  and  C_3
REMARK    3  A    between atoms: C_2  and  C_4
REMARK    4  A    between atoms: C_4  and  C_5
REMARK    5  A    between atoms: C_5  and  N_7
REMARK    6  A    between atoms: C_5  and  C_14
REMARK    7  A    between atoms: C_9  and  C_10
REMARK    8  A    between atoms: C_10  and  N_11
REMARK    9  A    between atoms: C_14  and  O_15
REMARK                            x       y       z     vdW  Elec       q    Type
REMARK                         _______ _______ _______ _____ _____    ______ ____
ROOT
ATOM      1  C   UNL     1       7.499  -3.820  22.380  0.00  0.00    +0.217 C 
ENDROOT
BRANCH   1   2
ATOM      2  N   UNL     1       7.492  -4.664  23.557  0.00  0.00    -0.238 N 
ATOM      3  N   UNL     1       8.663  -5.089  24.076  0.00  0.00    -0.065 NA
ATOM      4  N   UNL     1       8.462  -5.353  25.358  0.00  0.00    -0.133 NA
ATOM      5  C   UNL     1       7.142  -5.110  25.644  0.00  0.00    +0.096 A 
ATOM      6  C   UNL     1       6.493  -4.742  24.484  0.00  0.00    +0.135 A 
BRANCH   5   7
ATOM      7  C   UNL     1       6.639  -5.141  27.042  0.00  0.00    +0.137 C 
BRANCH   7   8
ATOM      8  N   UNL     1       7.506  -6.021  27.825  0.00  0.00    -0.325 NA
ATOM      9  H   UNL     1       6.931  -6.616  28.416  0.00  0.00    +0.119 HD
ATOM     10  H   UNL     1       7.995  -6.650  27.185  0.00  0.00    +0.119 HD
ENDBRANCH   7   8
ENDBRANCH   5   7
ENDBRANCH   1   2
BRANCH   1  11
ATOM     11  C   UNL     1       6.155  -3.921  21.676  0.00  0.00    +0.330 C 
ATOM     12  O   UNL     1       5.850  -4.888  20.981  0.00  0.00    -0.249 OA
BRANCH  11  13
ATOM     13  O   UNL     1       5.326  -2.856  21.790  0.00  0.00    -0.479 OA
ATOM     14  H   UNL     1       5.424  -2.342  22.629  0.00  0.00    +0.295 HD
ENDBRANCH  11  13
ENDBRANCH   1  11
BRANCH   1  15
ATOM     15  C   UNL     1       7.809  -2.334  22.630  0.00  0.00    +0.041 C 
BRANCH  15  17
ATOM     16  C   UNL     1       9.190  -0.447  21.613  0.00  0.00    +0.007 C 
ATOM     17  C   UNL     1       9.207  -1.866  22.183  0.00  0.00    -0.015 C 
ATOM     18  C   UNL     1      10.172  -1.925  23.372  0.00  0.00    +0.007 C 
ENDBRANCH  15  17
ENDBRANCH   1  15
TORSDOF 7
ENDMDL
MODEL 4
REMARK VINA RESULT:      -5.0      3.393      6.022
REMARK  Name = 
REMARK  9 active torsions:
REMARK  status: ('A' for Active; 'I' for Inactive)
REMARK    1  A    between atoms: C_1  and  C_2
REMARK    2  A    between atoms: C_2  and  C_3
REMARK    3  A    between atoms: C_2  and  C_4
REMARK    4  A    between atoms: C_4  and  C_5
REMARK    5  A    between atoms: C_5  and  N_7
REMARK    6  A    between atoms: C_5  and  C_14
REMARK    7  A    between atoms: C_9  and  C_10
REMARK    8  A    between atoms: C_10  and  N_11
REMARK    9  A    between atoms: C_14  and  O_15
REMARK                            x       y       z     vdW  Elec       q    Type
REMARK                         _______ _______ _______ _____ _____    ______ ____
ROOT
ATOM      1  C   UNL     1       9.538  -0.528  23.475  0.00  0.00    +0.217 C 
ENDROOT
BRANCH   1   2
ATOM      2  N   UNL     1       8.937  -1.758  23.952  0.00  0.00    -0.238 N 
ATOM      3  N   UNL     1       8.594  -2.715  23.064  0.00  0.00    -0.065 NA
ATOM      4  N   UNL     1       8.587  -3.874  23.706  0.00  0.00    -0.133 NA
ATOM      5  C   UNL     1       8.912  -3.639  25.019  0.00  0.00    +0.096 A 
ATOM      6  C   UNL     1       9.063  -2.281  25.207  0.00  0.00    +0.135 A 
BRANCH   5   7
ATOM      7  C   UNL     1       9.164  -4.759  25.962  0.00  0.00    +0.137 C 
BRANCH   7   8
ATOM      8  N   UNL     1      10.175  -5.638  25.376  0.00  0.00    -0.325 NA
ATOM      9  H   UNL     1      11.032  -5.570  25.919  0.00  0.00    +0.119 HD
ATOM     10  H   UNL     1       9.859  -6.605  25.470  0.00  0.00    +0.119 HD
ENDBRANCH   7   8
ENDBRANCH   5   7
ENDBRANCH   1   2
BRANCH   1  11
ATOM     11  C   UNL     1       9.817  -0.646  21.984  0.00  0.00    +0.330 C 
ATOM     12  O   UNL     1       9.228   0.039  21.151  0.00  0.00    -0.249 OA
BRANCH  11  13
ATOM     13  O   UNL     1      10.701  -1.599  21.605  0.00  0.00    -0.479 OA
ATOM     14  H   UNL     1      10.654  -1.852  20.650  0.00  0.00    +0.295 HD
ENDBRANCH  11  13
ENDBRANCH   1  11
BRANCH   1  15
ATOM     15  C   UNL     1       8.716   0.750  23.719  0.00  0.00    +0.041 C 
BRANCH  15  17
ATOM     16  C   UNL     1      10.502   2.563  23.560  0.00  0.00    +0.007 C 
ATOM     17  C   UNL     1       9.460   1.883  24.450  0.00  0.00    -0.015 C 
ATOM     18  C   UNL     1       8.450   2.928  24.939  0.00  0.00    +0.007 C 
ENDBRANCH  15  17
ENDBRANCH   1  15
TORSDOF 7
ENDMDL
MODEL 5
REMARK VINA RESULT:      -5.0      2.114      4.829
REMARK  Name = 
REMARK  9 active torsions:
REMARK  status: ('A' for Active; 'I' for Inactive)
REMARK    1  A    between atoms: C_1  and  C_2
REMARK    2  A    between atoms: C_2  and  C_3
REMARK    3  A    between atoms: C_2  and  C_4
REMARK    4  A    between atoms: C_4  and  C_5
REMARK    5  A    between atoms: C_5  and  N_7
REMARK    6  A    between atoms: C_5  and  C_14
REMARK    7  A    between atoms: C_9  and  C_10
REMARK    8  A    between atoms: C_10  and  N_11
REMARK    9  A    between atoms: C_14  and  O_15
REMARK                            x       y       z     vdW  Elec       q    Type
REMARK                         _______ _______ _______ _____ _____    ______ ____
ROOT
ATOM      1  C   UNL     1       8.641  -3.602  24.684  0.00  0.00    +0.217 C 
ENDROOT
BRANCH   1   2
ATOM      2  N   UNL     1       7.681  -4.173  23.761  0.00  0.00    -0.238 N 
ATOM      3  N   UNL     1       8.058  -5.191  22.959  0.00  0.00    -0.065 NA
ATOM      4  N   UNL     1       6.968  -5.869  22.632  0.00  0.00    -0.133 NA
ATOM      5  C   UNL     1       5.890  -5.258  23.222  0.00  0.00    +0.096 A 
ATOM      6  C   UNL     1       6.322  -4.127  23.883  0.00  0.00    +0.135 A 
BRANCH   5   7
ATOM      7  C   UNL     1       4.541  -5.880  23.194  0.00  0.00    +0.137 C 
BRANCH   7   8
ATOM      8  N   UNL     1       4.633  -7.209  23.798  0.00  0.00    -0.325 NA
ATOM      9  H   UNL     1       5.370  -7.736  23.335  0.00  0.00    +0.119 HD
ATOM     10  H   UNL     1       4.932  -7.105  24.770  0.00  0.00    +0.119 HD
ENDBRANCH   7   8
ENDBRANCH   5   7
ENDBRANCH   1   2
BRANCH   1  11
ATOM     11  C   UNL     1       9.216  -4.704  25.562  0.00  0.00    +0.330 C 
ATOM     12  O   UNL     1       8.806  -4.916  26.700  0.00  0.00    -0.249 OA
BRANCH  11  13
ATOM     13  O   UNL     1      10.259  -5.403  25.054  0.00  0.00    -0.479 OA
ATOM     14  H   UNL     1      10.466  -5.211  24.107  0.00  0.00    +0.295 HD
ENDBRANCH  11  13
ENDBRANCH   1  11
BRANCH   1  15
ATOM     15  C   UNL     1       9.807  -2.833  24.039  0.00  0.00    +0.041 C 
BRANCH  15  17
ATOM     16  C   UNL     1      10.158  -0.339  24.436  0.00  0.00    +0.007 C 
ATOM     17  C   UNL     1       9.476  -1.402  23.574  0.00  0.00    -0.015 C 
ATOM     18  C   UNL     1       9.906  -1.225  22.113  0.00  0.00    +0.007 C 
ENDBRANCH  15  17
ENDBRANCH   1  15
TORSDOF 7
ENDMDL
MODEL 6
REMARK VINA RESULT:      -5.0      3.132      5.638
REMARK  Name = 
REMARK  9 active torsions:
REMARK  status: ('A' for Active; 'I' for Inactive)
REMARK    1  A    between atoms: C_1  and  C_2
REMARK    2  A    between atoms: C_2  and  C_3
REMARK    3  A    between atoms: C_2  and  C_4
REMARK    4  A    between atoms: C_4  and  C_5
REMARK    5  A    between atoms: C_5  and  N_7
REMARK    6  A    between atoms: C_5  and  C_14
REMARK    7  A    between atoms: C_9  and  C_10
REMARK    8  A    between atoms: C_10  and  N_11
REMARK    9  A    between atoms: C_14  and  O_15
REMARK                            x       y       z     vdW  Elec       q    Type
REMARK                         _______ _______ _______ _____ _____    ______ ____
ROOT
ATOM      1  C   UNL     1       9.650  -2.059  23.998  0.00  0.00    +0.217 C 
ENDROOT
BRANCH   1   2
ATOM      2  N   UNL     1       9.173  -3.345  24.465  0.00  0.00    -0.238 N 
ATOM      3  N   UNL     1      10.043  -4.369  24.591  0.00  0.00    -0.065 NA
ATOM      4  N   UNL     1       9.548  -5.208  25.488  0.00  0.00    -0.133 NA
ATOM      5  C   UNL     1       8.342  -4.715  25.917  0.00  0.00    +0.096 A 
ATOM      6  C   UNL     1       8.053  -3.564  25.215  0.00  0.00    +0.135 A 
BRANCH   5   7
ATOM      7  C   UNL     1       7.617  -5.336  27.057  0.00  0.00    +0.137 C 
BRANCH   7   8
ATOM      8  N   UNL     1       6.434  -6.018  26.534  0.00  0.00    -0.325 NA
ATOM      9  H   UNL     1       6.560  -7.023  26.626  0.00  0.00    +0.119 HD
ATOM     10  H   UNL     1       5.634  -5.781  27.123  0.00  0.00    +0.119 HD
ENDBRANCH   7   8
ENDBRANCH   5   7
ENDBRANCH   1   2
BRANCH   1  11
ATOM     11  C   UNL     1       9.311  -1.899  22.524  0.00  0.00    +0.330 C 
ATOM     12  O   UNL     1       8.165  -2.025  22.097  0.00  0.00    -0.249 OA
BRANCH  11  13
ATOM     13  O   UNL     1      10.349  -1.680  21.681  0.00  0.00    -0.479 OA
ATOM     14  H   UNL     1      10.353  -0.790  21.251  0.00  0.00    +0.295 HD
ENDBRANCH  11  13
ENDBRANCH   1  11
BRANCH   1  15
ATOM     15  C   UNL     1       9.111  -0.835  24.759  0.00  0.00    +0.041 C 
BRANCH  15  17
ATOM     16  C   UNL     1       8.757   1.690  24.799  0.00  0.00    +0.007 C 
ATOM     17  C   UNL     1       9.569   0.533  24.217  0.00  0.00    -0.015 C 
ATOM     18  C   UNL     1      11.054   0.741  24.540  0.00  0.00    +0.007 C 
ENDBRANCH  15  17
ENDBRANCH   1  15
TORSDOF 7
ENDMDL
MODEL 7
REMARK VINA RESULT:      -4.9      3.401      5.714
REMARK  Name = 
REMARK  9 active torsions:
REMARK  status: ('A' for Active; 'I' for Inactive)
REMARK    1  A    between atoms: C_1  and  C_2
REMARK    2  A    between atoms: C_2  and  C_3
REMARK    3  A    between atoms: C_2  and  C_4
REMARK    4  A    between atoms: C_4  and  C_5
REMARK    5  A    between atoms: C_5  and  N_7
REMARK    6  A    between atoms: C_5  and  C_14
REMARK    7  A    between atoms: C_9  and  C_10
REMARK    8  A    between atoms: C_10  and  N_11
REMARK    9  A    between atoms: C_14  and  O_15
REMARK                            x       y       z     vdW  Elec       q    Type
REMARK                         _______ _______ _______ _____ _____    ______ ____
ROOT
ATOM      1  C   UNL     1       8.913   0.371  23.599  0.00  0.00    +0.217 C 
ENDROOT
BRANCH   1   2
ATOM      2  N   UNL     1       9.053  -1.069  23.529  0.00  0.00    -0.238 N 
ATOM      3  N   UNL     1      10.233  -1.603  23.148  0.00  0.00    -0.065 NA
ATOM      4  N   UNL     1      10.303  -2.824  23.654  0.00  0.00    -0.133 NA
ATOM      5  C   UNL     1       9.145  -3.069  24.347  0.00  0.00    +0.096 A 
ATOM      6  C   UNL     1       8.303  -1.984  24.211  0.00  0.00    +0.135 A 
BRANCH   5   7
ATOM      7  C   UNL     1       8.989  -4.288  25.183  0.00  0.00    +0.137 C 
BRANCH   7   8
ATOM      8  N   UNL     1      10.167  -5.133  24.989  0.00  0.00    -0.325 NA
ATOM      9  H   UNL     1      10.156  -5.884  25.675  0.00  0.00    +0.119 HD
ATOM     10  H   UNL     1      10.097  -5.586  24.076  0.00  0.00    +0.119 HD
ENDBRANCH   7   8
ENDBRANCH   5   7
ENDBRANCH   1   2
BRANCH   1  11
ATOM     11  C   UNL     1      10.117   0.963  24.316  0.00  0.00    +0.330 C 
ATOM     12  O   UNL     1      10.788   1.870  23.830  0.00  0.00    -0.249 OA
BRANCH  11  13
ATOM     13  O   UNL     1      10.464   0.392  25.494  0.00  0.00    -0.479 OA
ATOM     14  H   UNL     1      11.228  -0.233  25.444  0.00  0.00    +0.295 HD
ENDBRANCH  11  13
ENDBRANCH   1  11
BRANCH   1  15
ATOM     15  C   UNL     1       8.748   1.088  22.248  0.00  0.00    +0.041 C 
BRANCH  15  17
ATOM     16  C   UNL     1       6.382   1.533  23.090  0.00  0.00    +0.007 C 
ATOM     17  C   UNL     1       7.479   1.951  22.109  0.00  0.00    -0.015 C 
ATOM     18  C   UNL     1       7.832   3.424  22.339  0.00  0.00    +0.007 C 
ENDBRANCH  15  17
ENDBRANCH   1  15
TORSDOF 7
ENDMDL
MODEL 8
REMARK VINA RESULT:      -4.9      1.905      2.221
REMARK  Name = 
REMARK  9 active torsions:
REMARK  status: ('A' for Active; 'I' for Inactive)
REMARK    1  A    between atoms: C_1  and  C_2
REMARK    2  A    between atoms: C_2  and  C_3
REMARK    3  A    between atoms: C_2  and  C_4
REMARK    4  A    between atoms: C_4  and  C_5
REMARK    5  A    between atoms: C_5  and  N_7
REMARK    6  A    between atoms: C_5  and  C_14
REMARK    7  A    between atoms: C_9  and  C_10
REMARK    8  A    between atoms: C_10  and  N_11
REMARK    9  A    between atoms: C_14  and  O_15
REMARK                            x       y       z     vdW  Elec       q    Type
REMARK                         _______ _______ _______ _____ _____    ______ ____
ROOT
ATOM      1  C   UNL     1       8.510  -4.527  24.605  0.00  0.00    +0.217 C 
ENDROOT
BRANCH   1   2
ATOM      2  N   UNL     1       8.543  -3.082  24.708  0.00  0.00    -0.238 N 
ATOM      3  N   UNL     1       8.127  -2.489  25.847  0.00  0.00    -0.065 NA
ATOM      4  N   UNL     1       8.721  -1.307  25.924  0.00  0.00    -0.133 NA
ATOM      5  C   UNL     1       9.505  -1.148  24.809  0.00  0.00    +0.096 A 
ATOM      6  C   UNL     1       9.340  -2.242  23.985  0.00  0.00    +0.135 A 
BRANCH   5   7
ATOM      7  C   UNL     1      10.440  -0.000  24.683  0.00  0.00    +0.137 C 
BRANCH   7   8
ATOM      8  N   UNL     1       9.738   1.214  25.097  0.00  0.00    -0.325 NA
ATOM      9  H   UNL     1       9.390   1.696  24.271  0.00  0.00    +0.119 HD
ATOM     10  H   UNL     1       8.912   0.946  25.634  0.00  0.00    +0.119 HD
ENDBRANCH   7   8
ENDBRANCH   5   7
ENDBRANCH   1   2
BRANCH   1  11
ATOM     11  C   UNL     1       8.580  -5.135  25.998  0.00  0.00    +0.330 C 
ATOM     12  O   UNL     1       7.666  -5.809  26.465  0.00  0.00    -0.249 OA
BRANCH  11  13
ATOM     13  O   UNL     1       9.677  -4.839  26.736  0.00  0.00    -0.479 OA
ATOM     14  H   UNL     1       9.697  -3.919  27.097  0.00  0.00    +0.295 HD
ENDBRANCH  11  13
ENDBRANCH   1  11
BRANCH   1  15
ATOM     15  C   UNL     1       7.288  -5.113  23.877  0.00  0.00    +0.041 C 
BRANCH  15  17
ATOM     16  C   UNL     1       6.817  -5.925  21.506  0.00  0.00    +0.007 C 
ATOM     17  C   UNL     1       7.155  -4.725  22.392  0.00  0.00    -0.015 C 
ATOM     18  C   UNL     1       6.067  -3.657  22.236  0.00  0.00    +0.007 C 
ENDBRANCH  15  17
ENDBRANCH   1  15
TORSDOF 7
ENDMDL
MODEL 9
REMARK VINA RESULT:      -4.8      3.235      5.421
REMARK  Name = 
REMARK  9 active torsions:
REMARK  status: ('A' for Active; 'I' for Inactive)
REMARK    1  A    between atoms: C_1  and  C_2
REMARK    2  A    between atoms: C_2  and  C_3
REMARK    3  A    between atoms: C_2  and  C_4
REMARK    4  A    between atoms: C_4  and  C_5
REMARK    5  A    between atoms: C_5  and  N_7
REMARK    6  A    between atoms: C_5  and  C_14
REMARK    7  A    between atoms: C_9  and  C_10
REMARK    8  A    between atoms: C_10  and  N_11
REMARK    9  A    between atoms: C_14  and  O_15
REMARK                            x       y       z     vdW  Elec       q    Type
REMARK                         _______ _______ _______ _____ _____    ______ ____
ROOT
ATOM      1  C   UNL     1       7.692  -4.327  25.294  0.00  0.00    +0.217 C 
ENDROOT
BRANCH   1   2
ATOM      2  N   UNL     1       6.847  -5.483  25.520  0.00  0.00    -0.238 N 
ATOM      3  N   UNL     1       6.740  -5.993  26.765  0.00  0.00    -0.065 NA
ATOM      4  N   UNL     1       5.584  -6.635  26.837  0.00  0.00    -0.133 NA
ATOM      5  C   UNL     1       4.965  -6.544  25.615  0.00  0.00    +0.096 A 
ATOM      6  C   UNL     1       5.797  -5.877  24.741  0.00  0.00    +0.135 A 
BRANCH   5   7
ATOM      7  C   UNL     1       3.568  -7.011  25.423  0.00  0.00    +0.137 C 
BRANCH   7   8
ATOM      8  N   UNL     1       3.514  -7.813  24.201  0.00  0.00    -0.325 NA
ATOM      9  H   UNL     1       3.189  -7.231  23.433  0.00  0.00    +0.119 HD
ATOM     10  H   UNL     1       4.465  -8.096  23.955  0.00  0.00    +0.119 HD
ENDBRANCH   7   8
ENDBRANCH   5   7
ENDBRANCH   1   2
BRANCH   1  11
ATOM     11  C   UNL     1       9.124  -4.665  25.680  0.00  0.00    +0.330 C 
ATOM     12  O   UNL     1       9.991  -4.898  24.841  0.00  0.00    -0.249 OA
BRANCH  11  13
ATOM     13  O   UNL     1       9.390  -4.767  27.004  0.00  0.00    -0.479 OA
ATOM     14  H   UNL     1       8.679  -4.421  27.598  0.00  0.00    +0.295 HD
ENDBRANCH  11  13
ENDBRANCH   1  11
BRANCH   1  15
ATOM     15  C   UNL     1       7.689  -3.773  23.859  0.00  0.00    +0.041 C 
BRANCH  15  17
ATOM     16  C   UNL     1       7.540  -1.284  23.325  0.00  0.00    +0.007 C 
ATOM     17  C   UNL     1       6.761  -2.567  23.619  0.00  0.00    -0.015 C 
ATOM     18  C   UNL     1       5.820  -2.870  22.447  0.00  0.00    +0.007 C 
ENDBRANCH  15  17
ENDBRANCH   1  15
TORSDOF 7
ENDMDL
