MODEL 1
REMARK VINA RESULT:      -6.9      0.000      0.000
REMARK  Name = 
REMARK  13 active torsions:
REMARK  status: ('A' for Active; 'I' for Inactive)
REMARK    1  A    between atoms: C_3  and  O_30
REMARK    2  A    between atoms: C_6  and  C_8
REMARK    3  A    between atoms: C_13  and  C_15
REMARK    4  A    between atoms: C_16  and  C_18
REMARK    5  A    between atoms: C_18  and  C_19
REMARK    6  A    between atoms: C_19  and  C_20
REMARK    7  A    between atoms: C_23  and  O_25
REMARK    8  A    between atoms: O_30  and  C_31
REMARK    9  A    between atoms: C_31  and  C_33
REMARK   10  A    between atoms: C_33  and  C_34
REMARK   11  A    between atoms: C_33  and  C_35
REMARK   12  A    between atoms: C_33  and  C_36
REMARK   13  A    between atoms: C_36  and  C_37
REMARK                            x       y       z     vdW  Elec       q    Type
REMARK                         _______ _______ _______ _____ _____    ______ ____
ROOT
ATOM      1  C   UNL     1       6.662  -5.370  25.240  0.00  0.00    +0.063 C 
ATOM      2  C   UNL     1       6.828  -4.349  24.030  0.00  0.00    +0.007 C 
ATOM      3  C   UNL     1       6.313  -4.948  22.659  0.00  0.00    +0.012 C 
ATOM      4  C   UNL     1       7.193  -5.925  21.860  0.00  0.00    +0.012 C 
ATOM      5  C   UNL     1       5.026  -5.702  22.822  0.00  0.00    -0.023 C 
ATOM      6  C   UNL     1       4.642  -6.294  23.954  0.00  0.00    -0.000 C 
ATOM      7  C   UNL     1       5.357  -6.174  25.203  0.00  0.00    -0.044 C 
ATOM      8  C   UNL     1       4.820  -6.767  26.288  0.00  0.00    -0.020 C 
ATOM      9  C   UNL     1       5.318  -6.591  27.691  0.00  0.00    +0.012 C 
ATOM     10  C   UNL     1       4.142  -6.624  28.685  0.00  0.00    +0.012 C 
ATOM     11  C   UNL     1       5.993  -5.237  27.834  0.00  0.00    +0.052 C 
ATOM     12  C   UNL     1       6.931  -4.818  26.687  0.00  0.00    +0.185 C 
ENDROOT
BRANCH   2  13
ATOM     13  C   UNL     1       8.222  -3.595  23.932  0.00  0.00    +0.008 C 
BRANCH  13  14
ATOM     14  C   UNL     1       8.313  -2.647  22.747  0.00  0.00    +0.045 C 
BRANCH  14  15
ATOM     15  C   UNL     1       8.903  -1.244  22.773  0.00  0.00    +0.179 C 
ATOM     16  O   UNL     1      10.002  -1.166  23.690  0.00  0.00    -0.461 OA
ATOM     17  C   UNL     1      10.328   0.097  24.078  0.00  0.00    +0.310 C 
ATOM     18  O   UNL     1      10.636   0.358  25.235  0.00  0.00    -0.251 OA
ATOM     19  C   UNL     1      10.461   1.109  22.952  0.00  0.00    +0.152 C 
ATOM     20  C   UNL     1       9.522   0.889  21.771  0.00  0.00    +0.129 C 
ATOM     21  C   UNL     1       9.285  -0.592  21.468  0.00  0.00    +0.076 C 
BRANCH  20  22
ATOM     22  O   UNL     1       8.278   1.575  21.967  0.00  0.00    -0.391 OA
ATOM     23  H   UNL     1       7.522   0.977  21.848  0.00  0.00    +0.210 HD
ENDBRANCH  20  22
ENDBRANCH  14  15
ENDBRANCH  13  14
ENDBRANCH   2  13
BRANCH  12  24
ATOM     24  O   UNL     1       7.111  -3.385  26.779  0.00  0.00    -0.460 OA
BRANCH  24  25
ATOM     25  C   UNL     1       6.019  -2.577  26.735  0.00  0.00    +0.313 C 
ATOM     26  O   UNL     1       4.856  -2.956  26.808  0.00  0.00    -0.250 OA
BRANCH  25  27
ATOM     27  C   UNL     1       6.397  -1.121  26.501  0.00  0.00    +0.062 C 
ATOM     28  C   UNL     1       7.922  -1.090  26.696  0.00  0.00    +0.022 C 
ATOM     29  C   UNL     1       5.701  -0.163  27.485  0.00  0.00    +0.022 C 
BRANCH  27  30
ATOM     30  C   UNL     1       6.009  -0.753  25.048  0.00  0.00    +0.014 C 
ATOM     31  C   UNL     1       6.356   0.678  24.657  0.00  0.00    +0.005 C 
ENDBRANCH  27  30
ENDBRANCH  25  27
ENDBRANCH  24  25
ENDBRANCH  12  24
TORSDOF 8
ENDMDL
MODEL 2
REMARK VINA RESULT:      -6.8      2.010      4.989
REMARK  Name = 
REMARK  13 active torsions:
REMARK  status: ('A' for Active; 'I' for Inactive)
REMARK    1  A    between atoms: C_3  and  O_30
REMARK    2  A    between atoms: C_6  and  C_8
REMARK    3  A    between atoms: C_13  and  C_15
REMARK    4  A    between atoms: C_16  and  C_18
REMARK    5  A    between atoms: C_18  and  C_19
REMARK    6  A    between atoms: C_19  and  C_20
REMARK    7  A    between atoms: C_23  and  O_25
REMARK    8  A    between atoms: O_30  and  C_31
REMARK    9  A    between atoms: C_31  and  C_33
REMARK   10  A    between atoms: C_33  and  C_34
REMARK   11  A    between atoms: C_33  and  C_35
REMARK   12  A    between atoms: C_33  and  C_36
REMARK   13  A    between atoms: C_36  and  C_37
REMARK                            x       y       z     vdW  Elec       q    Type
REMARK                         _______ _______ _______ _____ _____    ______ ____
ROOT
ATOM      1  C   UNL     1       6.046  -3.522  24.770  0.00  0.00    +0.063 C 
ATOM      2  C   UNL     1       6.724  -3.143  26.159  0.00  0.00    +0.007 C 
ATOM      3  C   UNL     1       6.182  -4.025  27.356  0.00  0.00    +0.012 C 
ATOM      4  C   UNL     1       4.829  -3.696  28.011  0.00  0.00    +0.012 C 
ATOM      5  C   UNL     1       6.035  -5.467  26.971  0.00  0.00    -0.023 C 
ATOM      6  C   UNL     1       5.821  -5.893  25.726  0.00  0.00    -0.000 C 
ATOM      7  C   UNL     1       5.832  -5.027  24.570  0.00  0.00    -0.044 C 
ATOM      8  C   UNL     1       5.670  -5.599  23.361  0.00  0.00    -0.020 C 
ATOM      9  C   UNL     1       5.840  -4.890  22.051  0.00  0.00    +0.012 C 
ATOM     10  C   UNL     1       6.425  -5.846  20.996  0.00  0.00    +0.012 C 
ATOM     11  C   UNL     1       6.819  -3.739  22.210  0.00  0.00    +0.052 C 
ATOM     12  C   UNL     1       6.655  -2.873  23.473  0.00  0.00    +0.185 C 
ENDROOT
BRANCH   2  13
ATOM     13  C   UNL     1       6.838  -1.594  26.486  0.00  0.00    +0.008 C 
BRANCH  13  14
ATOM     14  C   UNL     1       5.613  -0.796  26.069  0.00  0.00    +0.045 C 
BRANCH  14  15
ATOM     15  C   UNL     1       5.615   0.635  25.551  0.00  0.00    +0.179 C 
ATOM     16  O   UNL     1       4.363   1.280  25.820  0.00  0.00    -0.461 OA
ATOM     17  C   UNL     1       4.123   2.387  25.064  0.00  0.00    +0.310 C 
ATOM     18  O   UNL     1       3.014   2.626  24.603  0.00  0.00    -0.251 OA
ATOM     19  C   UNL     1       5.268   3.385  24.992  0.00  0.00    +0.152 C 
ATOM     20  C   UNL     1       6.663   2.772  25.030  0.00  0.00    +0.129 C 
ATOM     21  C   UNL     1       6.750   1.547  25.944  0.00  0.00    +0.076 C 
BRANCH  20  22
ATOM     22  O   UNL     1       7.123   2.456  23.709  0.00  0.00    -0.391 OA
ATOM     23  H   UNL     1       6.519   1.841  23.262  0.00  0.00    +0.210 HD
ENDBRANCH  20  22
ENDBRANCH  14  15
ENDBRANCH  13  14
ENDBRANCH   2  13
BRANCH  12  24
ATOM     24  O   UNL     1       7.894  -2.152  23.666  0.00  0.00    -0.460 OA
BRANCH  24  25
ATOM     25  C   UNL     1       8.036  -0.918  23.115  0.00  0.00    +0.313 C 
ATOM     26  O   UNL     1       7.122  -0.239  22.662  0.00  0.00    -0.250 OA
BRANCH  25  27
ATOM     27  C   UNL     1       9.494  -0.487  23.047  0.00  0.00    +0.062 C 
ATOM     28  C   UNL     1      10.274  -1.808  22.938  0.00  0.00    +0.022 C 
ATOM     29  C   UNL     1       9.935   0.307  24.290  0.00  0.00    +0.022 C 
BRANCH  27  30
ATOM     30  C   UNL     1       9.678   0.380  21.778  0.00  0.00    +0.014 C 
ATOM     31  C   UNL     1      10.104   1.815  22.065  0.00  0.00    +0.005 C 
ENDBRANCH  27  30
ENDBRANCH  25  27
ENDBRANCH  24  25
ENDBRANCH  12  24
TORSDOF 8
ENDMDL
MODEL 3
REMARK VINA RESULT:      -6.7      1.827      3.780
REMARK  Name = 
REMARK  13 active torsions:
REMARK  status: ('A' for Active; 'I' for Inactive)
REMARK    1  A    between atoms: C_3  and  O_30
REMARK    2  A    between atoms: C_6  and  C_8
REMARK    3  A    between atoms: C_13  and  C_15
REMARK    4  A    between atoms: C_16  and  C_18
REMARK    5  A    between atoms: C_18  and  C_19
REMARK    6  A    between atoms: C_19  and  C_20
REMARK    7  A    between atoms: C_23  and  O_25
REMARK    8  A    between atoms: O_30  and  C_31
REMARK    9  A    between atoms: C_31  and  C_33
REMARK   10  A    between atoms: C_33  and  C_34
REMARK   11  A    between atoms: C_33  and  C_35
REMARK   12  A    between atoms: C_33  and  C_36
REMARK   13  A    between atoms: C_36  and  C_37
REMARK                            x       y       z     vdW  Elec       q    Type
REMARK                         _______ _______ _______ _____ _____    ______ ____
ROOT
ATOM      1  C   UNL     1       6.495  -3.512  25.576  0.00  0.00    +0.063 C 
ATOM      2  C   UNL     1       7.153  -3.732  24.144  0.00  0.00    +0.007 C 
ATOM      3  C   UNL     1       8.673  -4.163  24.238  0.00  0.00    +0.012 C 
ATOM      4  C   UNL     1       9.764  -3.109  24.497  0.00  0.00    +0.012 C 
ATOM      5  C   UNL     1       8.906  -5.171  25.325  0.00  0.00    -0.023 C 
ATOM      6  C   UNL     1       8.148  -5.285  26.416  0.00  0.00    -0.000 C 
ATOM      7  C   UNL     1       6.930  -4.538  26.628  0.00  0.00    -0.044 C 
ATOM      8  C   UNL     1       6.224  -4.802  27.745  0.00  0.00    -0.020 C 
ATOM      9  C   UNL     1       4.854  -4.266  28.035  0.00  0.00    +0.012 C 
ATOM     10  C   UNL     1       4.026  -5.306  28.813  0.00  0.00    +0.012 C 
ATOM     11  C   UNL     1       4.122  -3.989  26.733  0.00  0.00    +0.052 C 
ATOM     12  C   UNL     1       4.938  -3.297  25.625  0.00  0.00    +0.185 C 
ENDROOT
BRANCH   2  13
ATOM     13  C   UNL     1       6.855  -2.617  23.054  0.00  0.00    +0.008 C 
BRANCH  13  14
ATOM     14  C   UNL     1       6.923  -1.201  23.604  0.00  0.00    +0.045 C 
BRANCH  14  15
ATOM     15  C   UNL     1       7.918  -0.129  23.183  0.00  0.00    +0.179 C 
ATOM     16  O   UNL     1       8.527   0.484  24.328  0.00  0.00    -0.461 OA
ATOM     17  C   UNL     1       9.107   1.690  24.082  0.00  0.00    +0.310 C 
ATOM     18  O   UNL     1       9.017   2.623  24.871  0.00  0.00    -0.251 OA
ATOM     19  C   UNL     1      10.019   1.737  22.866  0.00  0.00    +0.152 C 
ATOM     20  C   UNL     1       9.597   0.841  21.707  0.00  0.00    +0.129 C 
ATOM     21  C   UNL     1       8.980  -0.481  22.172  0.00  0.00    +0.076 C 
BRANCH  20  22
ATOM     22  O   UNL     1       8.711   1.532  20.817  0.00  0.00    -0.391 OA
ATOM     23  H   UNL     1       8.278   2.281  21.260  0.00  0.00    +0.210 HD
ENDBRANCH  20  22
ENDBRANCH  14  15
ENDBRANCH  13  14
ENDBRANCH   2  13
BRANCH  12  24
ATOM     24  O   UNL     1       4.243  -3.519  24.376  0.00  0.00    -0.460 OA
BRANCH  24  25
ATOM     25  C   UNL     1       3.294  -4.490  24.308  0.00  0.00    +0.313 C 
ATOM     26  O   UNL     1       2.163  -4.403  24.771  0.00  0.00    -0.250 OA
BRANCH  25  27
ATOM     27  C   UNL     1       3.820  -5.758  23.652  0.00  0.00    +0.062 C 
ATOM     28  C   UNL     1       2.562  -6.454  23.108  0.00  0.00    +0.022 C 
ATOM     29  C   UNL     1       4.565  -6.672  24.642  0.00  0.00    +0.022 C 
BRANCH  27  30
ATOM     30  C   UNL     1       4.773  -5.342  22.504  0.00  0.00    +0.014 C 
ATOM     31  C   UNL     1       5.937  -6.302  22.287  0.00  0.00    +0.005 C 
ENDBRANCH  27  30
ENDBRANCH  25  27
ENDBRANCH  24  25
ENDBRANCH  12  24
TORSDOF 8
ENDMDL
MODEL 4
REMARK VINA RESULT:      -6.5      1.995      6.765
REMARK  Name = 
REMARK  13 active torsions:
REMARK  status: ('A' for Active; 'I' for Inactive)
REMARK    1  A    between atoms: C_3  and  O_30
REMARK    2  A    between atoms: C_6  and  C_8
REMARK    3  A    between atoms: C_13  and  C_15
REMARK    4  A    between atoms: C_16  and  C_18
REMARK    5  A    between atoms: C_18  and  C_19
REMARK    6  A    between atoms: C_19  and  C_20
REMARK    7  A    between atoms: C_23  and  O_25
REMARK    8  A    between atoms: O_30  and  C_31
REMARK    9  A    between atoms: C_31  and  C_33
REMARK   10  A    between atoms: C_33  and  C_34
REMARK   11  A    between atoms: C_33  and  C_35
REMARK   12  A    between atoms: C_33  and  C_36
REMARK   13  A    between atoms: C_36  and  C_37
REMARK                            x       y       z     vdW  Elec       q    Type
REMARK                         _______ _______ _______ _____ _____    ______ ____
ROOT
ATOM      1  C   UNL     1       7.672  -1.721  23.055  0.00  0.00    +0.063 C 
ATOM      2  C   UNL     1       7.074  -2.640  24.208  0.00  0.00    +0.007 C 
ATOM      3  C   UNL     1       7.958  -3.925  24.476  0.00  0.00    +0.012 C 
ATOM      4  C   UNL     1       7.853  -5.147  23.547  0.00  0.00    +0.012 C 
ATOM      5  C   UNL     1       9.425  -3.611  24.463  0.00  0.00    -0.023 C 
ATOM      6  C   UNL     1       9.969  -2.599  23.787  0.00  0.00    -0.000 C 
ATOM      7  C   UNL     1       9.200  -1.600  23.083  0.00  0.00    -0.044 C 
ATOM      8  C   UNL     1       9.875  -0.591  22.498  0.00  0.00    -0.020 C 
ATOM      9  C   UNL     1       9.239   0.623  21.892  0.00  0.00    +0.012 C 
ATOM     10  C   UNL     1      10.135   1.858  22.101  0.00  0.00    +0.012 C 
ATOM     11  C   UNL     1       7.912   0.908  22.576  0.00  0.00    +0.052 C 
ATOM     12  C   UNL     1       7.009  -0.310  22.846  0.00  0.00    +0.185 C 
ENDROOT
BRANCH   2  13
ATOM     13  C   UNL     1       5.512  -2.923  24.144  0.00  0.00    +0.008 C 
BRANCH  13  14
ATOM     14  C   UNL     1       4.892  -3.200  25.504  0.00  0.00    +0.045 C 
BRANCH  14  15
ATOM     15  C   UNL     1       4.874  -4.545  26.217  0.00  0.00    +0.179 C 
ATOM     16  O   UNL     1       5.766  -4.543  27.339  0.00  0.00    -0.461 OA
ATOM     17  C   UNL     1       6.118  -5.781  27.784  0.00  0.00    +0.310 C 
ATOM     18  O   UNL     1       7.262  -6.038  28.139  0.00  0.00    -0.251 OA
ATOM     19  C   UNL     1       4.966  -6.752  27.982  0.00  0.00    +0.152 C 
ATOM     20  C   UNL     1       3.810  -6.592  27.001  0.00  0.00    +0.129 C 
ATOM     21  C   UNL     1       3.546  -5.131  26.627  0.00  0.00    +0.076 C 
BRANCH  20  22
ATOM     22  O   UNL     1       4.015  -7.390  25.828  0.00  0.00    -0.391 OA
ATOM     23  H   UNL     1       4.443  -6.878  25.122  0.00  0.00    +0.210 HD
ENDBRANCH  20  22
ENDBRANCH  14  15
ENDBRANCH  13  14
ENDBRANCH   2  13
BRANCH  12  24
ATOM     24  O   UNL     1       6.051   0.079  23.857  0.00  0.00    -0.460 OA
BRANCH  24  25
ATOM     25  C   UNL     1       5.974   1.384  24.230  0.00  0.00    +0.313 C 
ATOM     26  O   UNL     1       5.584   2.300  23.516  0.00  0.00    -0.250 OA
BRANCH  25  27
ATOM     27  C   UNL     1       6.512   1.607  25.636  0.00  0.00    +0.062 C 
ATOM     28  C   UNL     1       5.352   2.287  26.382  0.00  0.00    +0.022 C 
ATOM     29  C   UNL     1       7.769   2.495  25.656  0.00  0.00    +0.022 C 
BRANCH  27  30
ATOM     30  C   UNL     1       6.839   0.223  26.249  0.00  0.00    +0.014 C 
ATOM     31  C   UNL     1       8.331  -0.048  26.406  0.00  0.00    +0.005 C 
ENDBRANCH  27  30
ENDBRANCH  25  27
ENDBRANCH  24  25
ENDBRANCH  12  24
TORSDOF 8
ENDMDL
MODEL 5
REMARK VINA RESULT:      -6.5      2.447      7.272
REMARK  Name = 
REMARK  13 active torsions:
REMARK  status: ('A' for Active; 'I' for Inactive)
REMARK    1  A    between atoms: C_3  and  O_30
REMARK    2  A    between atoms: C_6  and  C_8
REMARK    3  A    between atoms: C_13  and  C_15
REMARK    4  A    between atoms: C_16  and  C_18
REMARK    5  A    between atoms: C_18  and  C_19
REMARK    6  A    between atoms: C_19  and  C_20
REMARK    7  A    between atoms: C_23  and  O_25
REMARK    8  A    between atoms: O_30  and  C_31
REMARK    9  A    between atoms: C_31  and  C_33
REMARK   10  A    between atoms: C_33  and  C_34
REMARK   11  A    between atoms: C_33  and  C_35
REMARK   12  A    between atoms: C_33  and  C_36
REMARK   13  A    between atoms: C_36  and  C_37
REMARK                            x       y       z     vdW  Elec       q    Type
REMARK                         _______ _______ _______ _____ _____    ______ ____
ROOT
ATOM      1  C   UNL     1       6.663   1.604  26.332  0.00  0.00    +0.063 C 
ATOM      2  C   UNL     1       5.692   0.346  26.265  0.00  0.00    +0.007 C 
ATOM      3  C   UNL     1       4.223   0.690  26.743  0.00  0.00    +0.012 C 
ATOM      4  C   UNL     1       3.895   0.771  28.245  0.00  0.00    +0.012 C 
ATOM      5  C   UNL     1       3.756   2.015  26.219  0.00  0.00    -0.023 C 
ATOM      6  C   UNL     1       4.569   3.023  25.899  0.00  0.00    -0.000 C 
ATOM      7  C   UNL     1       6.009   2.921  25.895  0.00  0.00    -0.044 C 
ATOM      8  C   UNL     1       6.709   3.997  25.484  0.00  0.00    -0.020 C 
ATOM      9  C   UNL     1       8.188   4.009  25.237  0.00  0.00    +0.012 C 
ATOM     10  C   UNL     1       8.527   4.946  24.063  0.00  0.00    +0.012 C 
ATOM     11  C   UNL     1       8.660   2.616  24.854  0.00  0.00    +0.052 C 
ATOM     12  C   UNL     1       8.085   1.450  25.679  0.00  0.00    +0.185 C 
ENDROOT
BRANCH   2  13
ATOM     13  C   UNL     1       6.266  -1.017  26.843  0.00  0.00    +0.008 C 
BRANCH  13  14
ATOM     14  C   UNL     1       6.112  -2.191  25.887  0.00  0.00    +0.045 C 
BRANCH  14  15
ATOM     15  C   UNL     1       7.091  -3.345  25.731  0.00  0.00    +0.179 C 
ATOM     16  O   UNL     1       7.388  -3.582  24.348  0.00  0.00    -0.461 OA
ATOM     17  C   UNL     1       7.916  -4.808  24.084  0.00  0.00    +0.310 C 
ATOM     18  O   UNL     1       7.586  -5.455  23.097  0.00  0.00    -0.251 OA
ATOM     19  C   UNL     1       9.064  -5.230  24.987  0.00  0.00    +0.152 C 
ATOM     20  C   UNL     1       8.974  -4.728  26.424  0.00  0.00    +0.129 C 
ATOM     21  C   UNL     1       8.372  -3.325  26.527  0.00  0.00    +0.076 C 
BRANCH  20  22
ATOM     22  O   UNL     1       8.253  -5.654  27.248  0.00  0.00    -0.391 OA
ATOM     23  H   UNL     1       8.843  -6.334  27.616  0.00  0.00    +0.210 HD
ENDBRANCH  20  22
ENDBRANCH  14  15
ENDBRANCH  13  14
ENDBRANCH   2  13
BRANCH  12  24
ATOM     24  O   UNL     1       8.285   0.240  24.912  0.00  0.00    -0.460 OA
BRANCH  24  25
ATOM     25  C   UNL     1       9.511  -0.015  24.383  0.00  0.00    +0.313 C 
ATOM     26  O   UNL     1      10.577   0.150  24.963  0.00  0.00    -0.250 OA
BRANCH  25  27
ATOM     27  C   UNL     1       9.423  -0.463  22.931  0.00  0.00    +0.062 C 
ATOM     28  C   UNL     1       7.924  -0.717  22.703  0.00  0.00    +0.022 C 
ATOM     29  C   UNL     1      10.241  -1.737  22.654  0.00  0.00    +0.022 C 
BRANCH  27  30
ATOM     30  C   UNL     1       9.939   0.695  22.041  0.00  0.00    +0.014 C 
ATOM     31  C   UNL     1       8.834   1.564  21.453  0.00  0.00    +0.005 C 
ENDBRANCH  27  30
ENDBRANCH  25  27
ENDBRANCH  24  25
ENDBRANCH  12  24
TORSDOF 8
ENDMDL
MODEL 6
REMARK VINA RESULT:      -6.5      2.850      6.941
REMARK  Name = 
REMARK  13 active torsions:
REMARK  status: ('A' for Active; 'I' for Inactive)
REMARK    1  A    between atoms: C_3  and  O_30
REMARK    2  A    between atoms: C_6  and  C_8
REMARK    3  A    between atoms: C_13  and  C_15
REMARK    4  A    between atoms: C_16  and  C_18
REMARK    5  A    between atoms: C_18  and  C_19
REMARK    6  A    between atoms: C_19  and  C_20
REMARK    7  A    between atoms: C_23  and  O_25
REMARK    8  A    between atoms: O_30  and  C_31
REMARK    9  A    between atoms: C_31  and  C_33
REMARK   10  A    between atoms: C_33  and  C_34
REMARK   11  A    between atoms: C_33  and  C_35
REMARK   12  A    between atoms: C_33  and  C_36
REMARK   13  A    between atoms: C_36  and  C_37
REMARK                            x       y       z     vdW  Elec       q    Type
REMARK                         _______ _______ _______ _____ _____    ______ ____
ROOT
ATOM      1  C   UNL     1       7.987   1.482  24.016  0.00  0.00    +0.063 C 
ATOM      2  C   UNL     1       8.139  -0.080  24.278  0.00  0.00    +0.007 C 
ATOM      3  C   UNL     1       9.403  -0.695  23.552  0.00  0.00    +0.012 C 
ATOM      4  C   UNL     1       9.350  -1.027  22.050  0.00  0.00    +0.012 C 
ATOM      5  C   UNL     1      10.605   0.196  23.663  0.00  0.00    -0.023 C 
ATOM      6  C   UNL     1      10.545   1.519  23.815  0.00  0.00    -0.000 C 
ATOM      7  C   UNL     1       9.315   2.248  24.022  0.00  0.00    -0.044 C 
ATOM      8  C   UNL     1       9.405   3.576  24.231  0.00  0.00    -0.020 C 
ATOM      9  C   UNL     1       8.263   4.453  24.646  0.00  0.00    +0.012 C 
ATOM     10  C   UNL     1       8.761   5.575  25.578  0.00  0.00    +0.012 C 
ATOM     11  C   UNL     1       7.242   3.640  25.424  0.00  0.00    +0.052 C 
ATOM     12  C   UNL     1       6.903   2.249  24.856  0.00  0.00    +0.185 C 
ENDROOT
BRANCH   2  13
ATOM     13  C   UNL     1       6.817  -0.949  24.139  0.00  0.00    +0.008 C 
BRANCH  13  14
ATOM     14  C   UNL     1       6.656  -1.985  25.240  0.00  0.00    +0.045 C 
BRANCH  14  15
ATOM     15  C   UNL     1       7.458  -3.271  25.376  0.00  0.00    +0.179 C 
ATOM     16  O   UNL     1       7.967  -3.695  24.105  0.00  0.00    -0.461 OA
ATOM     17  C   UNL     1       8.340  -5.003  24.052  0.00  0.00    +0.310 C 
ATOM     18  O   UNL     1       8.104  -5.703  23.075  0.00  0.00    -0.251 OA
ATOM     19  C   UNL     1       9.222  -5.474  25.198  0.00  0.00    +0.152 C 
ATOM     20  C   UNL     1       8.943  -4.812  26.542  0.00  0.00    +0.129 C 
ATOM     21  C   UNL     1       8.556  -3.337  26.409  0.00  0.00    +0.076 C 
BRANCH  20  22
ATOM     22  O   UNL     1       7.948  -5.536  27.278  0.00  0.00    -0.391 OA
ATOM     23  H   UNL     1       7.197  -5.779  26.712  0.00  0.00    +0.210 HD
ENDBRANCH  20  22
ENDBRANCH  14  15
ENDBRANCH  13  14
ENDBRANCH   2  13
BRANCH  12  24
ATOM     24  O   UNL     1       6.292   1.485  25.922  0.00  0.00    -0.460 OA
BRANCH  24  25
ATOM     25  C   UNL     1       4.938   1.468  26.033  0.00  0.00    +0.313 C 
ATOM     26  O   UNL     1       4.153   1.766  25.141  0.00  0.00    -0.250 OA
BRANCH  25  27
ATOM     27  C   UNL     1       4.486   1.107  27.441  0.00  0.00    +0.062 C 
ATOM     28  C   UNL     1       4.177   2.461  28.099  0.00  0.00    +0.022 C 
ATOM     29  C   UNL     1       5.566   0.348  28.233  0.00  0.00    +0.022 C 
BRANCH  27  30
ATOM     30  C   UNL     1       3.212   0.234  27.325  0.00  0.00    +0.014 C 
ATOM     31  C   UNL     1       3.493  -1.241  27.061  0.00  0.00    +0.005 C 
ENDBRANCH  27  30
ENDBRANCH  25  27
ENDBRANCH  24  25
ENDBRANCH  12  24
TORSDOF 8
ENDMDL
MODEL 7
REMARK VINA RESULT:      -6.4      2.808      7.362
REMARK  Name = 
REMARK  13 active torsions:
REMARK  status: ('A' for Active; 'I' for Inactive)
REMARK    1  A    between atoms: C_3  and  O_30
REMARK    2  A    between atoms: C_6  and  C_8
REMARK    3  A    between atoms: C_13  and  C_15
REMARK    4  A    between atoms: C_16  and  C_18
REMARK    5  A    between atoms: C_18  and  C_19
REMARK    6  A    between atoms: C_19  and  C_20
REMARK    7  A    between atoms: C_23  and  O_25
REMARK    8  A    between atoms: O_30  and  C_31
REMARK    9  A    between atoms: C_31  and  C_33
REMARK   10  A    between atoms: C_33  and  C_34
REMARK   11  A    between atoms: C_33  and  C_35
REMARK   12  A    between atoms: C_33  and  C_36
REMARK   13  A    between atoms: C_36  and  C_37
REMARK                            x       y       z     vdW  Elec       q    Type
REMARK                         _______ _______ _______ _____ _____    ______ ____
ROOT
ATOM      1  C   UNL     1       8.567   1.683  23.164  0.00  0.00    +0.063 C 
ATOM      2  C   UNL     1       8.153   0.225  23.646  0.00  0.00    +0.007 C 
ATOM      3  C   UNL     1       9.400  -0.737  23.803  0.00  0.00    +0.012 C 
ATOM      4  C   UNL     1      10.026  -1.403  22.565  0.00  0.00    +0.012 C 
ATOM      5  C   UNL     1      10.566  -0.047  24.446  0.00  0.00    -0.023 C 
ATOM      6  C   UNL     1      10.785   1.267  24.387  0.00  0.00    -0.000 C 
ATOM      7  C   UNL     1       9.858   2.209  23.804  0.00  0.00    -0.044 C 
ATOM      8  C   UNL     1      10.172   3.518  23.873  0.00  0.00    -0.020 C 
ATOM      9  C   UNL     1       9.251   4.638  23.494  0.00  0.00    +0.012 C 
ATOM     10  C   UNL     1       9.484   5.855  24.409  0.00  0.00    +0.012 C 
ATOM     11  C   UNL     1       7.807   4.204  23.678  0.00  0.00    +0.052 C 
ATOM     12  C   UNL     1       7.451   2.790  23.182  0.00  0.00    +0.185 C 
ENDROOT
BRANCH   2  13
ATOM     13  C   UNL     1       6.908  -0.432  22.910  0.00  0.00    +0.008 C 
BRANCH  13  14
ATOM     14  C   UNL     1       6.257  -1.551  23.708  0.00  0.00    +0.045 C 
BRANCH  14  15
ATOM     15  C   UNL     1       6.437  -3.042  23.462  0.00  0.00    +0.179 C 
ATOM     16  O   UNL     1       6.663  -3.308  22.072  0.00  0.00    -0.461 OA
ATOM     17  C   UNL     1       6.439  -4.598  21.699  0.00  0.00    +0.310 C 
ATOM     18  O   UNL     1       5.885  -4.879  20.642  0.00  0.00    -0.251 OA
ATOM     19  C   UNL     1       7.082  -5.652  22.586  0.00  0.00    +0.152 C 
ATOM     20  C   UNL     1       7.170  -5.287  24.064  0.00  0.00    +0.129 C 
ATOM     21  C   UNL     1       7.444  -3.798  24.292  0.00  0.00    +0.076 C 
BRANCH  20  22
ATOM     22  O   UNL     1       5.993  -5.703  24.768  0.00  0.00    -0.391 OA
ATOM     23  H   UNL     1       6.219  -6.184  25.582  0.00  0.00    +0.210 HD
ENDBRANCH  20  22
ENDBRANCH  14  15
ENDBRANCH  13  14
ENDBRANCH   2  13
BRANCH  12  24
ATOM     24  O   UNL     1       6.212   2.407  23.824  0.00  0.00    -0.460 OA
BRANCH  24  25
ATOM     25  C   UNL     1       5.714   3.185  24.821  0.00  0.00    +0.313 C 
ATOM     26  O   UNL     1       5.390   4.361  24.703  0.00  0.00    -0.250 OA
BRANCH  25  27
ATOM     27  C   UNL     1       5.673   2.449  26.152  0.00  0.00    +0.062 C 
ATOM     28  C   UNL     1       4.954   1.128  25.833  0.00  0.00    +0.022 C 
ATOM     29  C   UNL     1       4.917   3.234  27.240  0.00  0.00    +0.022 C 
BRANCH  27  30
ATOM     30  C   UNL     1       7.132   2.199  26.606  0.00  0.00    +0.014 C 
ATOM     31  C   UNL     1       7.396   0.779  27.091  0.00  0.00    +0.005 C 
ENDBRANCH  27  30
ENDBRANCH  25  27
ENDBRANCH  24  25
ENDBRANCH  12  24
TORSDOF 8
ENDMDL
MODEL 8
REMARK VINA RESULT:      -6.3      2.174      6.601
REMARK  Name = 
REMARK  13 active torsions:
REMARK  status: ('A' for Active; 'I' for Inactive)
REMARK    1  A    between atoms: C_3  and  O_30
REMARK    2  A    between atoms: C_6  and  C_8
REMARK    3  A    between atoms: C_13  and  C_15
REMARK    4  A    between atoms: C_16  and  C_18
REMARK    5  A    between atoms: C_18  and  C_19
REMARK    6  A    between atoms: C_19  and  C_20
REMARK    7  A    between atoms: C_23  and  O_25
REMARK    8  A    between atoms: O_30  and  C_31
REMARK    9  A    between atoms: C_31  and  C_33
REMARK   10  A    between atoms: C_33  and  C_34
REMARK   11  A    between atoms: C_33  and  C_35
REMARK   12  A    between atoms: C_33  and  C_36
REMARK   13  A    between atoms: C_36  and  C_37
REMARK                            x       y       z     vdW  Elec       q    Type
REMARK                         _______ _______ _______ _____ _____    ______ ____
ROOT
ATOM      1  C   UNL     1       7.613   0.588  23.792  0.00  0.00    +0.063 C 
ATOM      2  C   UNL     1       7.777  -0.992  23.882  0.00  0.00    +0.007 C 
ATOM      3  C   UNL     1       9.264  -1.461  23.613  0.00  0.00    +0.012 C 
ATOM      4  C   UNL     1       9.798  -1.561  22.172  0.00  0.00    +0.012 C 
ATOM      5  C   UNL     1      10.266  -0.572  24.287  0.00  0.00    -0.023 C 
ATOM      6  C   UNL     1      10.052   0.711  24.580  0.00  0.00    -0.000 C 
ATOM      7  C   UNL     1       8.780   1.373  24.401  0.00  0.00    -0.044 C 
ATOM      8  C   UNL     1       8.683   2.655  24.804  0.00  0.00    -0.020 C 
ATOM      9  C   UNL     1       7.404   3.434  24.870  0.00  0.00    +0.012 C 
ATOM     10  C   UNL     1       7.432   4.410  26.061  0.00  0.00    +0.012 C 
ATOM     11  C   UNL     1       6.234   2.489  25.088  0.00  0.00    +0.052 C 
ATOM     12  C   UNL     1       6.238   1.194  24.254  0.00  0.00    +0.185 C 
ENDROOT
BRANCH   2  13
ATOM     13  C   UNL     1       6.673  -1.858  23.138  0.00  0.00    +0.008 C 
BRANCH  13  14
ATOM     14  C   UNL     1       7.019  -3.337  23.057  0.00  0.00    +0.045 C 
BRANCH  14  15
ATOM     15  C   UNL     1       6.411  -4.441  23.909  0.00  0.00    +0.179 C 
ATOM     16  O   UNL     1       6.900  -4.379  25.256  0.00  0.00    -0.461 OA
ATOM     17  C   UNL     1       6.739  -5.526  25.970  0.00  0.00    +0.310 C 
ATOM     18  O   UNL     1       7.607  -5.942  26.729  0.00  0.00    -0.251 OA
ATOM     19  C   UNL     1       5.352  -6.144  25.903  0.00  0.00    +0.152 C 
ATOM     20  C   UNL     1       4.627  -5.962  24.574  0.00  0.00    +0.129 C 
ATOM     21  C   UNL     1       4.912  -4.607  23.923  0.00  0.00    +0.076 C 
BRANCH  20  22
ATOM     22  O   UNL     1       4.927  -7.035  23.672  0.00  0.00    -0.391 OA
ATOM     23  H   UNL     1       4.463  -6.927  22.826  0.00  0.00    +0.210 HD
ENDBRANCH  20  22
ENDBRANCH  14  15
ENDBRANCH  13  14
ENDBRANCH   2  13
BRANCH  12  24
ATOM     24  O   UNL     1       5.337   0.263  24.898  0.00  0.00    -0.460 OA
BRANCH  24  25
ATOM     25  C   UNL     1       4.898   0.529  26.157  0.00  0.00    +0.313 C 
ATOM     26  O   UNL     1       4.094   1.405  26.453  0.00  0.00    -0.250 OA
BRANCH  25  27
ATOM     27  C   UNL     1       5.586  -0.344  27.197  0.00  0.00    +0.062 C 
ATOM     28  C   UNL     1       4.723  -0.181  28.459  0.00  0.00    +0.022 C 
ATOM     29  C   UNL     1       7.038   0.092  27.468  0.00  0.00    +0.022 C 
BRANCH  27  30
ATOM     30  C   UNL     1       5.565  -1.805  26.685  0.00  0.00    +0.014 C 
ATOM     31  C   UNL     1       4.350  -2.603  27.142  0.00  0.00    +0.005 C 
ENDBRANCH  27  30
ENDBRANCH  25  27
ENDBRANCH  24  25
ENDBRANCH  12  24
TORSDOF 8
ENDMDL
MODEL 9
REMARK VINA RESULT:      -6.3      2.691      6.817
REMARK  Name = 
REMARK  13 active torsions:
REMARK  status: ('A' for Active; 'I' for Inactive)
REMARK    1  A    between atoms: C_3  and  O_30
REMARK    2  A    between atoms: C_6  and  C_8
REMARK    3  A    between atoms: C_13  and  C_15
REMARK    4  A    between atoms: C_16  and  C_18
REMARK    5  A    between atoms: C_18  and  C_19
REMARK    6  A    between atoms: C_19  and  C_20
REMARK    7  A    between atoms: C_23  and  O_25
REMARK    8  A    between atoms: O_30  and  C_31
REMARK    9  A    between atoms: C_31  and  C_33
REMARK   10  A    between atoms: C_33  and  C_34
REMARK   11  A    between atoms: C_33  and  C_35
REMARK   12  A    between atoms: C_33  and  C_36
REMARK   13  A    between atoms: C_36  and  C_37
REMARK                            x       y       z     vdW  Elec       q    Type
REMARK                         _______ _______ _______ _____ _____    ______ ____
ROOT
ATOM      1  C   UNL     1       7.728   0.896  23.665  0.00  0.00    +0.063 C 
ATOM      2  C   UNL     1       8.305  -0.047  24.809  0.00  0.00    +0.007 C 
ATOM      3  C   UNL     1       9.706  -0.675  24.426  0.00  0.00    +0.012 C 
ATOM      4  C   UNL     1       9.779  -1.893  23.487  0.00  0.00    +0.012 C 
ATOM      5  C   UNL     1      10.608   0.323  23.762  0.00  0.00    -0.023 C 
ATOM      6  C   UNL     1      10.177   1.378  23.069  0.00  0.00    -0.000 C 
ATOM      7  C   UNL     1       8.789   1.765  22.978  0.00  0.00    -0.044 C 
ATOM      8  C   UNL     1       8.499   2.894  22.301  0.00  0.00    -0.020 C 
ATOM      9  C   UNL     1       7.149   3.543  22.264  0.00  0.00    +0.012 C 
ATOM     10  C   UNL     1       7.294   5.076  22.204  0.00  0.00    +0.012 C 
ATOM     11  C   UNL     1       6.380   3.212  23.532  0.00  0.00    +0.052 C 
ATOM     12  C   UNL     1       6.455   1.751  24.013  0.00  0.00    +0.185 C 
ENDROOT
BRANCH   2  13
ATOM     13  C   UNL     1       7.282  -1.074  25.456  0.00  0.00    +0.008 C 
BRANCH  13  14
ATOM     14  C   UNL     1       6.256  -1.607  24.469  0.00  0.00    +0.045 C 
BRANCH  14  15
ATOM     15  C   UNL     1       6.320  -2.951  23.756  0.00  0.00    +0.179 C 
ATOM     16  O   UNL     1       7.113  -3.887  24.498  0.00  0.00    -0.461 OA
ATOM     17  C   UNL     1       7.555  -4.952  23.775  0.00  0.00    +0.310 C 
ATOM     18  O   UNL     1       8.687  -5.401  23.911  0.00  0.00    -0.251 OA
ATOM     19  C   UNL     1       6.498  -5.651  22.934  0.00  0.00    +0.152 C 
ATOM     20  C   UNL     1       5.415  -4.738  22.369  0.00  0.00    +0.129 C 
ATOM     21  C   UNL     1       5.031  -3.607  23.326  0.00  0.00    +0.076 C 
BRANCH  20  22
ATOM     22  O   UNL     1       5.797  -4.216  21.089  0.00  0.00    -0.391 OA
ATOM     23  H   UNL     1       6.568  -4.687  20.731  0.00  0.00    +0.210 HD
ENDBRANCH  20  22
ENDBRANCH  14  15
ENDBRANCH  13  14
ENDBRANCH   2  13
BRANCH  12  24
ATOM     24  O   UNL     1       6.060   1.734  25.404  0.00  0.00    -0.460 OA
BRANCH  24  25
ATOM     25  C   UNL     1       4.743   1.615  25.718  0.00  0.00    +0.313 C 
ATOM     26  O   UNL     1       3.812   1.914  24.979  0.00  0.00    -0.250 OA
BRANCH  25  27
ATOM     27  C   UNL     1       4.539   1.134  27.148  0.00  0.00    +0.062 C 
ATOM     28  C   UNL     1       3.514   2.118  27.736  0.00  0.00    +0.022 C 
ATOM     29  C   UNL     1       5.842   1.147  27.968  0.00  0.00    +0.022 C 
BRANCH  27  30
ATOM     30  C   UNL     1       3.968  -0.304  27.092  0.00  0.00    +0.014 C 
ATOM     31  C   UNL     1       4.513  -1.229  28.174  0.00  0.00    +0.005 C 
ENDBRANCH  27  30
ENDBRANCH  25  27
ENDBRANCH  24  25
ENDBRANCH  12  24
TORSDOF 8
ENDMDL
