MODEL 1
REMARK VINA RESULT:      -6.5      0.000      0.000
REMARK  Name = 
REMARK  7 active torsions:
REMARK  status: ('A' for Active; 'I' for Inactive)
REMARK    1  A    between atoms: N_4  and  C_5
REMARK    2  A    between atoms: C_5  and  C_6
REMARK    3  A    between atoms: C_6  and  C_7
REMARK    4  A    between atoms: C_7  and  C_8
REMARK    5  A    between atoms: C_8  and  N_9
REMARK    6  A    between atoms: C_10  and  C_12
REMARK    7  A    between atoms: C_15  and  C_17
REMARK                            x       y       z     vdW  Elec       q    Type
REMARK                         _______ _______ _______ _____ _____    ______ ____
ROOT
ATOM      1  N   UNL     1       8.795   2.752  24.467  0.00  0.00    -0.310 N 
ATOM      2  H   UNL     1       8.040   2.106  24.675  0.00  0.00    +0.149 HD
ATOM      3  C   UNL     1       9.889   2.242  23.805  0.00  0.00    +0.263 C 
ATOM      4  O   UNL     1      10.855   2.926  23.478  0.00  0.00    -0.269 OA
ENDROOT
BRANCH   3   5
ATOM      5  C   UNL     1       9.814   0.803  23.526  0.00  0.00    +0.133 A 
ATOM      6  N   UNL     1       9.542  -0.160  24.514  0.00  0.00    -0.233 NA
ATOM      7  C   UNL     1       9.549  -1.366  23.970  0.00  0.00    +0.128 A 
ATOM      8  S   UNL     1       9.878  -1.417  22.282  0.00  0.00    -0.073 S 
ATOM      9  C   UNL     1      10.014   0.284  22.261  0.00  0.00    +0.080 A 
BRANCH   7  10
ATOM     10  C   UNL     1       9.290  -2.630  24.751  0.00  0.00    +0.103 A 
ATOM     11  N   UNL     1       9.869  -3.845  24.404  0.00  0.00    -0.245 NA
ATOM     12  C   UNL     1       9.484  -4.778  25.247  0.00  0.00    +0.156 A 
ATOM     13  S   UNL     1       8.412  -4.273  26.486  0.00  0.00    -0.083 S 
ATOM     14  C   UNL     1       8.465  -2.676  25.857  0.00  0.00    +0.077 A 
ENDBRANCH   7  10
ENDBRANCH   3   5
BRANCH   1  15
ATOM     15  C   UNL     1       8.705   4.149  24.842  0.00  0.00    +0.104 C 
BRANCH  15  16
ATOM     16  C   UNL     1       7.920   4.986  23.833  0.00  0.00    +0.022 C 
BRANCH  16  17
ATOM     17  C   UNL     1       8.769   6.095  23.206  0.00  0.00    +0.038 C 
BRANCH  17  18
ATOM     18  C   UNL     1      10.050   6.327  24.008  0.00  0.00    +0.196 C 
BRANCH  18  23
ATOM     19  N   UNL     1      13.330   5.133  23.148  0.00  0.00    -0.289 N 
ATOM     20  H   UNL     1      13.159   5.120  22.150  0.00  0.00    +0.255 HD
ATOM     21  H   UNL     1      14.295   5.359  23.346  0.00  0.00    +0.255 HD
ATOM     22  C   UNL     1      12.432   5.871  23.830  0.00  0.00    +0.376 C 
ATOM     23  N   UNL     1      11.197   5.801  23.282  0.00  0.00    -0.276 N 
ATOM     24  H   UNL     1      11.017   4.918  22.822  0.00  0.00    +0.258 HD
ATOM     25  N   UNL     1      12.735   6.551  24.874  0.00  0.00    -0.130 NA
ATOM     26  H   UNL     1      13.718   6.416  25.102  0.00  0.00    +0.306 HD
ENDBRANCH  18  23
ENDBRANCH  17  18
ENDBRANCH  16  17
ENDBRANCH  15  16
ENDBRANCH   1  15
TORSDOF 7
ENDMDL
MODEL 2
REMARK VINA RESULT:      -6.1      2.517      3.577
REMARK  Name = 
REMARK  7 active torsions:
REMARK  status: ('A' for Active; 'I' for Inactive)
REMARK    1  A    between atoms: N_4  and  C_5
REMARK    2  A    between atoms: C_5  and  C_6
REMARK    3  A    between atoms: C_6  and  C_7
REMARK    4  A    between atoms: C_7  and  C_8
REMARK    5  A    between atoms: C_8  and  N_9
REMARK    6  A    between atoms: C_10  and  C_12
REMARK    7  A    between atoms: C_15  and  C_17
REMARK                            x       y       z     vdW  Elec       q    Type
REMARK                         _______ _______ _______ _____ _____    ______ ____
ROOT
ATOM      1  N   UNL     1       9.774  -0.800  24.485  0.00  0.00    -0.310 N 
ATOM      2  H   UNL     1       9.073  -0.848  25.217  0.00  0.00    +0.149 HD
ATOM      3  C   UNL     1       9.768  -1.807  23.547  0.00  0.00    +0.263 C 
ATOM      4  O   UNL     1      10.550  -1.848  22.601  0.00  0.00    -0.269 OA
ENDROOT
BRANCH   3   5
ATOM      5  C   UNL     1       8.751  -2.840  23.772  0.00  0.00    +0.133 A 
ATOM      6  N   UNL     1       8.412  -3.323  25.048  0.00  0.00    -0.233 NA
ATOM      7  C   UNL     1       7.477  -4.252  24.936  0.00  0.00    +0.128 A 
ATOM      8  S   UNL     1       6.963  -4.599  23.330  0.00  0.00    -0.073 S 
ATOM      9  C   UNL     1       8.051  -3.427  22.734  0.00  0.00    +0.080 A 
BRANCH   7  10
ATOM     10  C   UNL     1       6.882  -4.978  26.116  0.00  0.00    +0.103 A 
ATOM     11  N   UNL     1       7.650  -5.376  27.204  0.00  0.00    -0.245 NA
ATOM     12  C   UNL     1       6.888  -5.979  28.089  0.00  0.00    +0.156 A 
ATOM     13  S   UNL     1       5.229  -6.117  27.683  0.00  0.00    -0.083 S 
ATOM     14  C   UNL     1       5.543  -5.301  26.203  0.00  0.00    +0.077 A 
ENDBRANCH   7  10
ENDBRANCH   3   5
BRANCH   1  15
ATOM     15  C   UNL     1      10.723   0.295  24.433  0.00  0.00    +0.104 C 
BRANCH  15  16
ATOM     16  C   UNL     1      10.049   1.661  24.320  0.00  0.00    +0.022 C 
BRANCH  16  17
ATOM     17  C   UNL     1      10.611   2.498  23.169  0.00  0.00    +0.038 C 
BRANCH  17  18
ATOM     18  C   UNL     1      10.896   3.931  23.619  0.00  0.00    +0.196 C 
BRANCH  18  23
ATOM     19  N   UNL     1      13.679   5.764  22.268  0.00  0.00    -0.289 N 
ATOM     20  H   UNL     1      13.330   5.765  21.318  0.00  0.00    +0.255 HD
ATOM     21  H   UNL     1      14.195   6.611  22.464  0.00  0.00    +0.255 HD
ATOM     22  C   UNL     1      12.733   5.465  23.181  0.00  0.00    +0.376 C 
ATOM     23  N   UNL     1      11.842   4.561  22.708  0.00  0.00    -0.276 N 
ATOM     24  H   UNL     1      12.245   3.923  22.033  0.00  0.00    +0.258 HD
ATOM     25  N   UNL     1      12.701   5.984  24.352  0.00  0.00    -0.130 NA
ATOM     26  H   UNL     1      13.495   6.609  24.475  0.00  0.00    +0.306 HD
ENDBRANCH  18  23
ENDBRANCH  17  18
ENDBRANCH  16  17
ENDBRANCH  15  16
ENDBRANCH   1  15
TORSDOF 7
ENDMDL
MODEL 3
REMARK VINA RESULT:      -6.0      3.850      5.115
REMARK  Name = 
REMARK  7 active torsions:
REMARK  status: ('A' for Active; 'I' for Inactive)
REMARK    1  A    between atoms: N_4  and  C_5
REMARK    2  A    between atoms: C_5  and  C_6
REMARK    3  A    between atoms: C_6  and  C_7
REMARK    4  A    between atoms: C_7  and  C_8
REMARK    5  A    between atoms: C_8  and  N_9
REMARK    6  A    between atoms: C_10  and  C_12
REMARK    7  A    between atoms: C_15  and  C_17
REMARK                            x       y       z     vdW  Elec       q    Type
REMARK                         _______ _______ _______ _____ _____    ______ ____
ROOT
ATOM      1  N   UNL     1       9.633  -0.900  24.368  0.00  0.00    -0.310 N 
ATOM      2  H   UNL     1       8.879  -0.883  25.047  0.00  0.00    +0.149 HD
ATOM      3  C   UNL     1       9.678  -1.975  23.510  0.00  0.00    +0.263 C 
ATOM      4  O   UNL     1      10.526  -2.098  22.631  0.00  0.00    -0.269 OA
ENDROOT
BRANCH   3   5
ATOM      5  C   UNL     1       8.628  -2.975  23.734  0.00  0.00    +0.133 A 
ATOM      6  N   UNL     1       8.290  -3.465  25.008  0.00  0.00    -0.233 NA
ATOM      7  C   UNL     1       7.321  -4.359  24.896  0.00  0.00    +0.128 A 
ATOM      8  S   UNL     1       6.772  -4.662  23.293  0.00  0.00    -0.073 S 
ATOM      9  C   UNL     1       7.893  -3.521  22.698  0.00  0.00    +0.080 A 
BRANCH   7  10
ATOM     10  C   UNL     1       6.717  -5.081  26.074  0.00  0.00    +0.103 A 
ATOM     11  N   UNL     1       7.240  -4.969  27.357  0.00  0.00    -0.245 NA
ATOM     12  C   UNL     1       6.526  -5.692  28.192  0.00  0.00    +0.156 A 
ATOM     13  S   UNL     1       5.208  -6.548  27.508  0.00  0.00    -0.083 S 
ATOM     14  C   UNL     1       5.612  -5.902  25.968  0.00  0.00    +0.077 A 
ENDBRANCH   7  10
ENDBRANCH   3   5
BRANCH   1  15
ATOM     15  C   UNL     1      10.603   0.175  24.305  0.00  0.00    +0.104 C 
BRANCH  15  16
ATOM     16  C   UNL     1       9.983   1.513  23.907  0.00  0.00    +0.022 C 
BRANCH  16  17
ATOM     17  C   UNL     1      10.132   1.806  22.412  0.00  0.00    +0.038 C 
BRANCH  17  18
ATOM     18  C   UNL     1       9.028   1.124  21.605  0.00  0.00    +0.196 C 
BRANCH  18  23
ATOM     19  N   UNL     1       5.782   2.179  22.734  0.00  0.00    -0.289 N 
ATOM     20  H   UNL     1       5.638   2.840  21.981  0.00  0.00    +0.255 HD
ATOM     21  H   UNL     1       4.906   1.763  23.020  0.00  0.00    +0.255 HD
ATOM     22  C   UNL     1       6.765   1.293  22.481  0.00  0.00    +0.376 C 
ATOM     23  N   UNL     1       7.773   1.845  21.766  0.00  0.00    -0.276 N 
ATOM     24  H   UNL     1       7.892   2.834  21.947  0.00  0.00    +0.258 HD
ATOM     25  N   UNL     1       6.730   0.076  22.881  0.00  0.00    -0.130 NA
ATOM     26  H   UNL     1       5.883  -0.086  23.423  0.00  0.00    +0.306 HD
ENDBRANCH  18  23
ENDBRANCH  17  18
ENDBRANCH  16  17
ENDBRANCH  15  16
ENDBRANCH   1  15
TORSDOF 7
ENDMDL
MODEL 4
REMARK VINA RESULT:      -6.0      2.248      2.431
REMARK  Name = 
REMARK  7 active torsions:
REMARK  status: ('A' for Active; 'I' for Inactive)
REMARK    1  A    between atoms: N_4  and  C_5
REMARK    2  A    between atoms: C_5  and  C_6
REMARK    3  A    between atoms: C_6  and  C_7
REMARK    4  A    between atoms: C_7  and  C_8
REMARK    5  A    between atoms: C_8  and  N_9
REMARK    6  A    between atoms: C_10  and  C_12
REMARK    7  A    between atoms: C_15  and  C_17
REMARK                            x       y       z     vdW  Elec       q    Type
REMARK                         _______ _______ _______ _____ _____    ______ ____
ROOT
ATOM      1  N   UNL     1       7.808   3.933  22.259  0.00  0.00    -0.310 N 
ATOM      2  H   UNL     1       8.815   3.818  22.227  0.00  0.00    +0.149 HD
ATOM      3  C   UNL     1       7.048   2.786  22.279  0.00  0.00    +0.263 C 
ATOM      4  O   UNL     1       5.821   2.794  22.340  0.00  0.00    -0.269 OA
ENDROOT
BRANCH   3   5
ATOM      5  C   UNL     1       7.823   1.542  22.212  0.00  0.00    +0.133 A 
ATOM      6  N   UNL     1       7.345   0.310  22.691  0.00  0.00    -0.233 NA
ATOM      7  C   UNL     1       8.264  -0.624  22.505  0.00  0.00    +0.128 A 
ATOM      8  S   UNL     1       9.725  -0.091  21.768  0.00  0.00    -0.073 S 
ATOM      9  C   UNL     1       9.096   1.492  21.676  0.00  0.00    +0.080 A 
BRANCH   7  10
ATOM     10  C   UNL     1       8.075  -2.066  22.904  0.00  0.00    +0.103 A 
ATOM     11  N   UNL     1       7.230  -2.921  22.207  0.00  0.00    -0.245 NA
ATOM     12  C   UNL     1       7.254  -4.115  22.758  0.00  0.00    +0.156 A 
ATOM     13  S   UNL     1       8.264  -4.289  24.131  0.00  0.00    -0.083 S 
ATOM     14  C   UNL     1       8.718  -2.638  23.983  0.00  0.00    +0.077 A 
ENDBRANCH   7  10
ENDBRANCH   3   5
BRANCH   1  15
ATOM     15  C   UNL     1       7.210   5.253  22.299  0.00  0.00    +0.104 C 
BRANCH  15  16
ATOM     16  C   UNL     1       8.201   6.343  22.702  0.00  0.00    +0.022 C 
BRANCH  16  17
ATOM     17  C   UNL     1       8.500   6.336  24.203  0.00  0.00    +0.038 C 
BRANCH  17  18
ATOM     18  C   UNL     1      10.006   6.328  24.464  0.00  0.00    +0.196 C 
BRANCH  18  23
ATOM     19  N   UNL     1      12.516   5.109  22.196  0.00  0.00    -0.289 N 
ATOM     20  H   UNL     1      12.017   5.382  21.359  0.00  0.00    +0.255 HD
ATOM     21  H   UNL     1      13.515   5.182  22.061  0.00  0.00    +0.255 HD
ATOM     22  C   UNL     1      12.058   5.716  23.309  0.00  0.00    +0.376 C 
ATOM     23  N   UNL     1      10.719   5.912  23.264  0.00  0.00    -0.276 N 
ATOM     24  H   UNL     1      10.233   5.206  22.726  0.00  0.00    +0.258 HD
ATOM     25  N   UNL     1      12.817   6.058  24.283  0.00  0.00    -0.130 NA
ATOM     26  H   UNL     1      13.777   5.776  24.089  0.00  0.00    +0.306 HD
ENDBRANCH  18  23
ENDBRANCH  17  18
ENDBRANCH  16  17
ENDBRANCH  15  16
ENDBRANCH   1  15
TORSDOF 7
ENDMDL
MODEL 5
REMARK VINA RESULT:      -5.9      3.611      8.460
REMARK  Name = 
REMARK  7 active torsions:
REMARK  status: ('A' for Active; 'I' for Inactive)
REMARK    1  A    between atoms: N_4  and  C_5
REMARK    2  A    between atoms: C_5  and  C_6
REMARK    3  A    between atoms: C_6  and  C_7
REMARK    4  A    between atoms: C_7  and  C_8
REMARK    5  A    between atoms: C_8  and  N_9
REMARK    6  A    between atoms: C_10  and  C_12
REMARK    7  A    between atoms: C_15  and  C_17
REMARK                            x       y       z     vdW  Elec       q    Type
REMARK                         _______ _______ _______ _____ _____    ______ ____
ROOT
ATOM      1  N   UNL     1       7.718  -2.571  22.612  0.00  0.00    -0.310 N 
ATOM      2  H   UNL     1       7.255  -1.732  22.276  0.00  0.00    +0.149 HD
ATOM      3  C   UNL     1       8.826  -2.395  23.409  0.00  0.00    +0.263 C 
ATOM      4  O   UNL     1       9.459  -3.328  23.895  0.00  0.00    -0.269 OA
ENDROOT
BRANCH   3   5
ATOM      5  C   UNL     1       9.201  -0.993  23.628  0.00  0.00    +0.133 A 
ATOM      6  N   UNL     1       8.414   0.090  23.200  0.00  0.00    -0.233 NA
ATOM      7  C   UNL     1       9.009   1.226  23.526  0.00  0.00    +0.128 A 
ATOM      8  S   UNL     1      10.516   1.067  24.343  0.00  0.00    -0.073 S 
ATOM      9  C   UNL     1      10.371  -0.632  24.270  0.00  0.00    +0.080 A 
BRANCH   7  10
ATOM     10  C   UNL     1       8.432   2.585  23.217  0.00  0.00    +0.103 A 
ATOM     11  N   UNL     1       7.507   2.781  22.199  0.00  0.00    -0.245 NA
ATOM     12  C   UNL     1       7.166   4.050  22.147  0.00  0.00    +0.156 A 
ATOM     13  S   UNL     1       7.925   5.079  23.287  0.00  0.00    -0.083 S 
ATOM     14  C   UNL     1       8.779   3.725  23.913  0.00  0.00    +0.077 A 
ENDBRANCH   7  10
ENDBRANCH   3   5
BRANCH   1  15
ATOM     15  C   UNL     1       7.215  -3.887  22.273  0.00  0.00    +0.104 C 
BRANCH  15  16
ATOM     16  C   UNL     1       5.921  -4.236  23.007  0.00  0.00    +0.022 C 
BRANCH  16  17
ATOM     17  C   UNL     1       6.030  -5.543  23.795  0.00  0.00    +0.038 C 
BRANCH  17  18
ATOM     18  C   UNL     1       6.146  -5.273  25.295  0.00  0.00    +0.196 C 
BRANCH  18  23
ATOM     19  N   UNL     1       9.418  -4.844  26.723  0.00  0.00    -0.289 N 
ATOM     20  H   UNL     1       9.571  -3.929  26.317  0.00  0.00    +0.255 HD
ATOM     21  H   UNL     1       9.867  -4.917  27.625  0.00  0.00    +0.255 HD
ATOM     22  C   UNL     1       8.124  -5.220  26.711  0.00  0.00    +0.376 C 
ATOM     23  N   UNL     1       7.476  -4.770  25.611  0.00  0.00    -0.276 N 
ATOM     24  H   UNL     1       8.080  -4.682  24.803  0.00  0.00    +0.258 HD
ATOM     25  N   UNL     1       7.591  -5.922  27.641  0.00  0.00    -0.130 NA
ATOM     26  H   UNL     1       8.291  -6.159  28.341  0.00  0.00    +0.306 HD
ENDBRANCH  18  23
ENDBRANCH  17  18
ENDBRANCH  16  17
ENDBRANCH  15  16
ENDBRANCH   1  15
TORSDOF 7
ENDMDL
MODEL 6
REMARK VINA RESULT:      -5.9      3.486      5.016
REMARK  Name = 
REMARK  7 active torsions:
REMARK  status: ('A' for Active; 'I' for Inactive)
REMARK    1  A    between atoms: N_4  and  C_5
REMARK    2  A    between atoms: C_5  and  C_6
REMARK    3  A    between atoms: C_6  and  C_7
REMARK    4  A    between atoms: C_7  and  C_8
REMARK    5  A    between atoms: C_8  and  N_9
REMARK    6  A    between atoms: C_10  and  C_12
REMARK    7  A    between atoms: C_15  and  C_17
REMARK                            x       y       z     vdW  Elec       q    Type
REMARK                         _______ _______ _______ _____ _____    ______ ____
ROOT
ATOM      1  N   UNL     1       8.722  -1.288  22.095  0.00  0.00    -0.310 N 
ATOM      2  H   UNL     1       7.746  -1.393  21.840  0.00  0.00    +0.149 HD
ATOM      3  C   UNL     1       9.221  -2.169  23.028  0.00  0.00    +0.263 C 
ATOM      4  O   UNL     1      10.391  -2.159  23.402  0.00  0.00    -0.269 OA
ENDROOT
BRANCH   3   5
ATOM      5  C   UNL     1       8.237  -3.123  23.550  0.00  0.00    +0.133 A 
ATOM      6  N   UNL     1       7.957  -3.268  24.920  0.00  0.00    -0.233 NA
ATOM      7  C   UNL     1       7.039  -4.207  25.088  0.00  0.00    +0.128 A 
ATOM      8  S   UNL     1       6.473  -4.957  23.646  0.00  0.00    -0.073 S 
ATOM      9  C   UNL     1       7.511  -3.963  22.726  0.00  0.00    +0.080 A 
BRANCH   7  10
ATOM     10  C   UNL     1       6.506  -4.615  26.438  0.00  0.00    +0.103 A 
ATOM     11  N   UNL     1       6.959  -5.749  27.101  0.00  0.00    -0.245 NA
ATOM     12  C   UNL     1       6.337  -5.869  28.253  0.00  0.00    +0.156 A 
ATOM     13  S   UNL     1       5.179  -4.658  28.611  0.00  0.00    -0.083 S 
ATOM     14  C   UNL     1       5.534  -3.900  27.110  0.00  0.00    +0.077 A 
ENDBRANCH   7  10
ENDBRANCH   3   5
BRANCH   1  15
ATOM     15  C   UNL     1       9.547  -0.264  21.486  0.00  0.00    +0.104 C 
BRANCH  15  16
ATOM     16  C   UNL     1       8.974   1.142  21.661  0.00  0.00    +0.022 C 
BRANCH  16  17
ATOM     17  C   UNL     1       9.812   2.001  22.611  0.00  0.00    +0.038 C 
BRANCH  17  18
ATOM     18  C   UNL     1       9.040   2.320  23.891  0.00  0.00    +0.196 C 
BRANCH  18  23
ATOM     19  N   UNL     1       9.352  -0.465  26.142  0.00  0.00    -0.289 N 
ATOM     20  H   UNL     1       9.971   0.011  26.785  0.00  0.00    +0.255 HD
ATOM     21  H   UNL     1       8.752  -1.114  26.633  0.00  0.00    +0.255 HD
ATOM     22  C   UNL     1       8.704   0.373  25.310  0.00  0.00    +0.376 C 
ATOM     23  N   UNL     1       9.468   1.436  24.966  0.00  0.00    -0.276 N 
ATOM     24  H   UNL     1      10.458   1.224  24.949  0.00  0.00    +0.258 HD
ATOM     25  N   UNL     1       7.506   0.168  24.903  0.00  0.00    -0.130 NA
ATOM     26  H   UNL     1       7.159  -0.713  25.278  0.00  0.00    +0.306 HD
ENDBRANCH  18  23
ENDBRANCH  17  18
ENDBRANCH  16  17
ENDBRANCH  15  16
ENDBRANCH   1  15
TORSDOF 7
ENDMDL
MODEL 7
REMARK VINA RESULT:      -5.9      4.131      6.250
REMARK  Name = 
REMARK  7 active torsions:
REMARK  status: ('A' for Active; 'I' for Inactive)
REMARK    1  A    between atoms: N_4  and  C_5
REMARK    2  A    between atoms: C_5  and  C_6
REMARK    3  A    between atoms: C_6  and  C_7
REMARK    4  A    between atoms: C_7  and  C_8
REMARK    5  A    between atoms: C_8  and  N_9
REMARK    6  A    between atoms: C_10  and  C_12
REMARK    7  A    between atoms: C_15  and  C_17
REMARK                            x       y       z     vdW  Elec       q    Type
REMARK                         _______ _______ _______ _____ _____    ______ ____
ROOT
ATOM      1  N   UNL     1       8.764  -3.074  24.041  0.00  0.00    -0.310 N 
ATOM      2  H   UNL     1       7.816  -2.725  23.948  0.00  0.00    +0.149 HD
ATOM      3  C   UNL     1       8.924  -4.286  24.674  0.00  0.00    +0.263 C 
ATOM      4  O   UNL     1      10.017  -4.825  24.828  0.00  0.00    -0.269 OA
ENDROOT
BRANCH   3   5
ATOM      5  C   UNL     1       7.677  -4.885  25.163  0.00  0.00    +0.133 A 
ATOM      6  N   UNL     1       6.621  -5.264  24.316  0.00  0.00    -0.233 NA
ATOM      7  C   UNL     1       5.630  -5.761  25.039  0.00  0.00    +0.128 A 
ATOM      8  S   UNL     1       5.898  -5.800  26.738  0.00  0.00    -0.073 S 
ATOM      9  C   UNL     1       7.444  -5.116  26.506  0.00  0.00    +0.080 A 
BRANCH   7  10
ATOM     10  C   UNL     1       4.340  -6.268  24.442  0.00  0.00    +0.103 A 
ATOM     11  N   UNL     1       3.805  -7.505  24.781  0.00  0.00    -0.245 NA
ATOM     12  C   UNL     1       2.681  -7.696  24.126  0.00  0.00    +0.156 A 
ATOM     13  S   UNL     1       2.202  -6.434  23.071  0.00  0.00    -0.083 S 
ATOM     14  C   UNL     1       3.604  -5.549  23.523  0.00  0.00    +0.077 A 
ENDBRANCH   7  10
ENDBRANCH   3   5
BRANCH   1  15
ATOM     15  C   UNL     1       9.889  -2.329  23.511  0.00  0.00    +0.104 C 
BRANCH  15  16
ATOM     16  C   UNL     1       9.610  -0.831  23.400  0.00  0.00    +0.022 C 
BRANCH  16  17
ATOM     17  C   UNL     1       9.966  -0.270  22.022  0.00  0.00    +0.038 C 
BRANCH  17  18
ATOM     18  C   UNL     1       9.196   1.020  21.737  0.00  0.00    +0.196 C 
BRANCH  18  23
ATOM     19  N   UNL     1      11.215   3.702  23.024  0.00  0.00    -0.289 N 
ATOM     20  H   UNL     1      11.374   4.131  22.122  0.00  0.00    +0.255 HD
ATOM     21  H   UNL     1      11.171   4.400  23.754  0.00  0.00    +0.255 HD
ATOM     22  C   UNL     1      10.185   2.832  23.023  0.00  0.00    +0.376 C 
ATOM     23  N   UNL     1      10.085   2.168  21.848  0.00  0.00    -0.276 N 
ATOM     24  H   UNL     1      10.978   2.037  21.389  0.00  0.00    +0.258 HD
ATOM     25  N   UNL     1       9.406   2.669  24.027  0.00  0.00    -0.130 NA
ATOM     26  H   UNL     1       9.706   3.261  24.799  0.00  0.00    +0.306 HD
ENDBRANCH  18  23
ENDBRANCH  17  18
ENDBRANCH  16  17
ENDBRANCH  15  16
ENDBRANCH   1  15
TORSDOF 7
ENDMDL
MODEL 8
REMARK VINA RESULT:      -5.9      2.984      4.136
REMARK  Name = 
REMARK  7 active torsions:
REMARK  status: ('A' for Active; 'I' for Inactive)
REMARK    1  A    between atoms: N_4  and  C_5
REMARK    2  A    between atoms: C_5  and  C_6
REMARK    3  A    between atoms: C_6  and  C_7
REMARK    4  A    between atoms: C_7  and  C_8
REMARK    5  A    between atoms: C_8  and  N_9
REMARK    6  A    between atoms: C_10  and  C_12
REMARK    7  A    between atoms: C_15  and  C_17
REMARK                            x       y       z     vdW  Elec       q    Type
REMARK                         _______ _______ _______ _____ _____    ______ ____
ROOT
ATOM      1  N   UNL     1       9.845  -0.896  24.312  0.00  0.00    -0.310 N 
ATOM      2  H   UNL     1       9.244  -0.836  25.127  0.00  0.00    +0.149 HD
ATOM      3  C   UNL     1       9.832  -2.081  23.613  0.00  0.00    +0.263 C 
ATOM      4  O   UNL     1      10.497  -2.269  22.597  0.00  0.00    -0.269 OA
ENDROOT
BRANCH   3   5
ATOM      5  C   UNL     1       8.961  -3.114  24.184  0.00  0.00    +0.133 A 
ATOM      6  N   UNL     1       7.660  -3.369  23.716  0.00  0.00    -0.233 NA
ATOM      7  C   UNL     1       7.117  -4.344  24.428  0.00  0.00    +0.128 A 
ATOM      8  S   UNL     1       8.108  -4.994  25.674  0.00  0.00    -0.073 S 
ATOM      9  C   UNL     1       9.356  -3.915  25.239  0.00  0.00    +0.080 A 
BRANCH   7  10
ATOM     10  C   UNL     1       5.723  -4.870  24.188  0.00  0.00    +0.103 A 
ATOM     11  N   UNL     1       5.324  -6.129  24.619  0.00  0.00    -0.245 NA
ATOM     12  C   UNL     1       4.068  -6.335  24.288  0.00  0.00    +0.156 A 
ATOM     13  S   UNL     1       3.297  -5.060  23.442  0.00  0.00    -0.083 S 
ATOM     14  C   UNL     1       4.751  -4.148  23.525  0.00  0.00    +0.077 A 
ENDBRANCH   7  10
ENDBRANCH   3   5
BRANCH   1  15
ATOM     15  C   UNL     1      10.662   0.229  23.904  0.00  0.00    +0.104 C 
BRANCH  15  16
ATOM     16  C   UNL     1       9.940   1.569  24.038  0.00  0.00    +0.022 C 
BRANCH  16  17
ATOM     17  C   UNL     1      10.408   2.592  23.001  0.00  0.00    +0.038 C 
BRANCH  17  18
ATOM     18  C   UNL     1      11.064   3.798  23.675  0.00  0.00    +0.196 C 
BRANCH  18  23
ATOM     19  N   UNL     1      13.646   5.835  22.223  0.00  0.00    -0.289 N 
ATOM     20  H   UNL     1      13.279   5.784  21.282  0.00  0.00    +0.255 HD
ATOM     21  H   UNL     1      14.091   6.727  22.389  0.00  0.00    +0.255 HD
ATOM     22  C   UNL     1      12.750   5.475  23.163  0.00  0.00    +0.376 C 
ATOM     23  N   UNL     1      11.931   4.487  22.730  0.00  0.00    -0.276 N 
ATOM     24  H   UNL     1      12.373   3.872  22.059  0.00  0.00    +0.258 HD
ATOM     25  N   UNL     1      12.697   6.016  24.324  0.00  0.00    -0.130 NA
ATOM     26  H   UNL     1      13.436   6.710  24.416  0.00  0.00    +0.306 HD
ENDBRANCH  18  23
ENDBRANCH  17  18
ENDBRANCH  16  17
ENDBRANCH  15  16
ENDBRANCH   1  15
TORSDOF 7
ENDMDL
MODEL 9
REMARK VINA RESULT:      -5.8      3.264      5.229
REMARK  Name = 
REMARK  7 active torsions:
REMARK  status: ('A' for Active; 'I' for Inactive)
REMARK    1  A    between atoms: N_4  and  C_5
REMARK    2  A    between atoms: C_5  and  C_6
REMARK    3  A    between atoms: C_6  and  C_7
REMARK    4  A    between atoms: C_7  and  C_8
REMARK    5  A    between atoms: C_8  and  N_9
REMARK    6  A    between atoms: C_10  and  C_12
REMARK    7  A    between atoms: C_15  and  C_17
REMARK                            x       y       z     vdW  Elec       q    Type
REMARK                         _______ _______ _______ _____ _____    ______ ____
ROOT
ATOM      1  N   UNL     1       8.837  -1.484  21.943  0.00  0.00    -0.310 N 
ATOM      2  H   UNL     1       7.971  -1.924  21.650  0.00  0.00    +0.149 HD
ATOM      3  C   UNL     1       9.439  -1.986  23.075  0.00  0.00    +0.263 C 
ATOM      4  O   UNL     1      10.500  -1.555  23.518  0.00  0.00    -0.269 OA
ENDROOT
BRANCH   3   5
ATOM      5  C   UNL     1       8.704  -3.078  23.721  0.00  0.00    +0.133 A 
ATOM      6  N   UNL     1       7.398  -3.450  23.355  0.00  0.00    -0.233 NA
ATOM      7  C   UNL     1       6.994  -4.454  24.116  0.00  0.00    +0.128 A 
ATOM      8  S   UNL     1       8.127  -4.998  25.292  0.00  0.00    -0.073 S 
ATOM      9  C   UNL     1       9.243  -3.825  24.753  0.00  0.00    +0.080 A 
BRANCH   7  10
ATOM     10  C   UNL     1       5.637  -5.100  23.987  0.00  0.00    +0.103 A 
ATOM     11  N   UNL     1       5.299  -6.256  24.680  0.00  0.00    -0.245 NA
ATOM     12  C   UNL     1       4.063  -6.601  24.392  0.00  0.00    +0.156 A 
ATOM     13  S   UNL     1       3.239  -5.587  23.285  0.00  0.00    -0.083 S 
ATOM     14  C   UNL     1       4.639  -4.597  23.177  0.00  0.00    +0.077 A 
ENDBRANCH   7  10
ENDBRANCH   3   5
BRANCH   1  15
ATOM     15  C   UNL     1       9.412  -0.390  21.187  0.00  0.00    +0.104 C 
BRANCH  15  16
ATOM     16  C   UNL     1       8.939   0.980  21.670  0.00  0.00    +0.022 C 
BRANCH  16  17
ATOM     17  C   UNL     1      10.054   1.776  22.354  0.00  0.00    +0.038 C 
BRANCH  17  18
ATOM     18  C   UNL     1       9.576   2.362  23.683  0.00  0.00    +0.196 C 
BRANCH  18  23
ATOM     19  N   UNL     1       9.304  -0.218  26.172  0.00  0.00    -0.289 N 
ATOM     20  H   UNL     1      10.172   0.018  26.637  0.00  0.00    +0.255 HD
ATOM     21  H   UNL     1       8.623  -0.563  26.834  0.00  0.00    +0.255 HD
ATOM     22  C   UNL     1       8.851   0.763  25.367  0.00  0.00    +0.376 C 
ATOM     23  N   UNL     1       9.863   1.436  24.769  0.00  0.00    -0.276 N 
ATOM     24  H   UNL     1      10.680   0.861  24.609  0.00  0.00    +0.258 HD
ATOM     25  N   UNL     1       7.605   1.011  25.199  0.00  0.00    -0.130 NA
ATOM     26  H   UNL     1       7.045   0.349  25.733  0.00  0.00    +0.306 HD
ENDBRANCH  18  23
ENDBRANCH  17  18
ENDBRANCH  16  17
ENDBRANCH  15  16
ENDBRANCH   1  15
TORSDOF 7
ENDMDL
