MODEL 1
REMARK VINA RESULT:      -7.8      0.000      0.000
REMARK  Name = 
REMARK  17 active torsions:
REMARK  status: ('A' for Active; 'I' for Inactive)
REMARK    1  A    between atoms: O_1  and  C_2
REMARK    2  A    between atoms: C_2  and  C_3
REMARK    3  A    between atoms: C_6  and  O_8
REMARK    4  A    between atoms: O_8  and  P_9
REMARK    5  A    between atoms: P_9  and  O_10
REMARK    6  A    between atoms: P_9  and  O_12
REMARK    7  A    between atoms: O_12  and  P_13
REMARK    8  A    between atoms: P_13  and  O_14
REMARK    9  A    between atoms: P_13  and  O_16
REMARK   10  A    between atoms: O_16  and  C_17
REMARK   11  A    between atoms: C_17  and  C_18
REMARK   12  A    between atoms: C_21  and  N_29
REMARK   13  A    between atoms: C_23  and  O_25
REMARK   14  A    between atoms: C_26  and  O_28
REMARK   15  A    between atoms: C_37  and  O_39
REMARK   16  A    between atoms: C_40  and  O_42
REMARK   17  A    between atoms: C_43  and  O_45
REMARK                            x       y       z     vdW  Elec       q    Type
REMARK                         _______ _______ _______ _____ _____    ______ ____
ROOT
ATOM      1  P   UNL     1       9.384  -1.226  22.844  0.00  0.00    +0.483 P 
ATOM      2  O   UNL     1      10.056  -2.542  23.235  0.00  0.00    -0.227 OA
ENDROOT
BRANCH   1   3
ATOM      3  O   UNL     1      10.015  -0.770  21.401  0.00  0.00    -0.302 OA
ATOM      4  H   UNL     1      10.983  -0.865  21.333  0.00  0.00    +0.222 HD
ENDBRANCH   1   3
BRANCH   1   5
ATOM      5  O   UNL     1      10.655  -0.363  23.640  0.00  0.00    -0.186 OA
BRANCH   5   6
ATOM      6  P   UNL     1       9.998   1.061  24.020  0.00  0.00    +0.486 P 
ATOM      7  O   UNL     1      10.948   2.213  23.950  0.00  0.00    -0.227 OA
BRANCH   6   8
ATOM      8  O   UNL     1       9.483   0.842  25.519  0.00  0.00    -0.302 OA
ATOM      9  H   UNL     1       8.815   0.129  25.570  0.00  0.00    +0.222 HD
ENDBRANCH   6   8
BRANCH   6  10
ATOM     10  O   UNL     1       8.670   1.214  23.170  0.00  0.00    -0.254 OA
BRANCH  10  15
ATOM     11  C   UNL     1       7.441   4.598  23.175  0.00  0.00    +0.178 C 
ATOM     12  C   UNL     1       6.024   4.378  22.613  0.00  0.00    +0.177 C 
ATOM     13  C   UNL     1       5.450   3.047  23.136  0.00  0.00    +0.179 C 
ATOM     14  C   UNL     1       6.428   1.900  22.894  0.00  0.00    +0.202 C 
ATOM     15  C   UNL     1       7.800   2.281  23.458  0.00  0.00    +0.293 C 
ATOM     16  O   UNL     1       8.276   3.472  22.857  0.00  0.00    -0.340 OA
BRANCH  12  17
ATOM     17  O   UNL     1       5.182   5.479  22.963  0.00  0.00    -0.386 OA
ATOM     18  H   UNL     1       4.585   5.204  23.680  0.00  0.00    +0.210 HD
ENDBRANCH  12  17
BRANCH  13  19
ATOM     19  O   UNL     1       4.206   2.731  22.502  0.00  0.00    -0.386 OA
ATOM     20  H   UNL     1       3.967   1.833  22.807  0.00  0.00    +0.210 HD
ENDBRANCH  13  19
BRANCH  14  21
ATOM     21  O   UNL     1       5.888   0.702  23.484  0.00  0.00    -0.384 OA
ATOM     22  H   UNL     1       6.482   0.399  24.193  0.00  0.00    +0.210 HD
ENDBRANCH  14  21
BRANCH  11  23
ATOM     23  C   UNL     1       8.081   5.869  22.602  0.00  0.00    +0.190 C 
BRANCH  23  24
ATOM     24  O   UNL     1       7.485   6.175  21.339  0.00  0.00    -0.392 OA
ATOM     25  H   UNL     1       8.200   6.172  20.679  0.00  0.00    +0.210 HD
ENDBRANCH  23  24
ENDBRANCH  11  23
ENDBRANCH  10  15
ENDBRANCH   6  10
ENDBRANCH   5   6
ENDBRANCH   1   5
BRANCH   1  26
ATOM     26  O   UNL     1       8.113  -2.089  22.047  0.00  0.00    -0.284 OA
BRANCH  26  27
ATOM     27  C   UNL     1       6.981  -2.260  22.914  0.00  0.00    +0.206 C 
BRANCH  27  28
ATOM     28  C   UNL     1       6.398  -3.676  22.848  0.00  0.00    +0.178 C 
ATOM     29  C   UNL     1       7.484  -4.716  22.545  0.00  0.00    +0.178 C 
ATOM     30  C   UNL     1       7.831  -5.349  23.897  0.00  0.00    +0.195 C 
ATOM     31  C   UNL     1       6.926  -4.610  24.898  0.00  0.00    +0.255 C 
ATOM     32  O   UNL     1       5.857  -4.052  24.124  0.00  0.00    -0.346 OA
BRANCH  31  33
ATOM     33  N   UNL     1       6.403  -5.448  25.971  0.00  0.00    -0.271 N 
ATOM     34  C   UNL     1       7.137  -5.495  27.158  0.00  0.00    +0.331 A 
ATOM     35  O   UNL     1       8.239  -4.960  27.293  0.00  0.00    -0.246 OA
ATOM     36  N   UNL     1       6.563  -6.193  28.189  0.00  0.00    -0.275 N 
ATOM     37  H   UNL     1       7.063  -6.218  29.064  0.00  0.00    +0.173 HD
ATOM     38  C   UNL     1       5.340  -6.796  28.169  0.00  0.00    +0.254 A 
ATOM     39  O   UNL     1       4.853  -7.349  29.143  0.00  0.00    -0.268 OA
ATOM     40  C   UNL     1       4.622  -6.737  26.886  0.00  0.00    +0.088 A 
ATOM     41  C   UNL     1       5.176  -6.074  25.868  0.00  0.00    +0.098 A 
ENDBRANCH  31  33
BRANCH  30  42
ATOM     42  O   UNL     1       9.218  -5.167  24.195  0.00  0.00    -0.385 OA
ATOM     43  H   UNL     1       9.489  -4.332  23.751  0.00  0.00    +0.210 HD
ENDBRANCH  30  42
BRANCH  29  44
ATOM     44  O   UNL     1       6.971  -5.718  21.655  0.00  0.00    -0.386 OA
ATOM     45  H   UNL     1       6.077  -5.962  21.951  0.00  0.00    +0.210 HD
ENDBRANCH  29  44
ENDBRANCH  27  28
ENDBRANCH  26  27
ENDBRANCH   1  26
TORSDOF 17
ENDMDL
MODEL 2
REMARK VINA RESULT:      -7.6      1.995      2.900
REMARK  Name = 
REMARK  17 active torsions:
REMARK  status: ('A' for Active; 'I' for Inactive)
REMARK    1  A    between atoms: O_1  and  C_2
REMARK    2  A    between atoms: C_2  and  C_3
REMARK    3  A    between atoms: C_6  and  O_8
REMARK    4  A    between atoms: O_8  and  P_9
REMARK    5  A    between atoms: P_9  and  O_10
REMARK    6  A    between atoms: P_9  and  O_12
REMARK    7  A    between atoms: O_12  and  P_13
REMARK    8  A    between atoms: P_13  and  O_14
REMARK    9  A    between atoms: P_13  and  O_16
REMARK   10  A    between atoms: O_16  and  C_17
REMARK   11  A    between atoms: C_17  and  C_18
REMARK   12  A    between atoms: C_21  and  N_29
REMARK   13  A    between atoms: C_23  and  O_25
REMARK   14  A    between atoms: C_26  and  O_28
REMARK   15  A    between atoms: C_37  and  O_39
REMARK   16  A    between atoms: C_40  and  O_42
REMARK   17  A    between atoms: C_43  and  O_45
REMARK                            x       y       z     vdW  Elec       q    Type
REMARK                         _______ _______ _______ _____ _____    ______ ____
ROOT
ATOM      1  P   UNL     1       7.873  -1.326  23.283  0.00  0.00    +0.483 P 
ATOM      2  O   UNL     1       6.456  -1.025  23.773  0.00  0.00    -0.227 OA
ENDROOT
BRANCH   1   3
ATOM      3  O   UNL     1       8.526  -2.409  24.325  0.00  0.00    -0.302 OA
ATOM      4  H   UNL     1       7.894  -2.794  24.961  0.00  0.00    +0.222 HD
ENDBRANCH   1   3
BRANCH   1   5
ATOM      5  O   UNL     1       8.469  -0.047  24.284  0.00  0.00    -0.186 OA
BRANCH   5   6
ATOM      6  P   UNL     1       9.980   0.195  23.772  0.00  0.00    +0.486 P 
ATOM      7  O   UNL     1      10.584  -0.976  23.067  0.00  0.00    -0.227 OA
BRANCH   6   8
ATOM      8  O   UNL     1      10.780   0.518  25.120  0.00  0.00    -0.302 OA
ATOM      9  H   UNL     1      11.381   1.282  25.008  0.00  0.00    +0.222 HD
ENDBRANCH   6   8
BRANCH   6  10
ATOM     10  O   UNL     1       9.998   1.562  22.972  0.00  0.00    -0.254 OA
BRANCH  10  15
ATOM     11  C   UNL     1      11.740   4.654  23.577  0.00  0.00    +0.178 C 
ATOM     12  C   UNL     1      10.548   5.606  23.787  0.00  0.00    +0.177 C 
ATOM     13  C   UNL     1       9.412   4.873  24.527  0.00  0.00    +0.179 C 
ATOM     14  C   UNL     1       9.074   3.554  23.836  0.00  0.00    +0.202 C 
ATOM     15  C   UNL     1      10.357   2.740  23.649  0.00  0.00    +0.293 C 
ATOM     16  O   UNL     1      11.307   3.468  22.889  0.00  0.00    -0.340 OA
BRANCH  12  17
ATOM     17  O   UNL     1      10.969   6.768  24.505  0.00  0.00    -0.386 OA
ATOM     18  H   UNL     1      10.714   7.559  24.000  0.00  0.00    +0.210 HD
ENDBRANCH  12  17
BRANCH  13  19
ATOM     19  O   UNL     1       8.228   5.675  24.590  0.00  0.00    -0.386 OA
ATOM     20  H   UNL     1       8.521   6.601  24.472  0.00  0.00    +0.210 HD
ENDBRANCH  13  19
BRANCH  14  21
ATOM     21  O   UNL     1       8.079   2.867  24.618  0.00  0.00    -0.384 OA
ATOM     22  H   UNL     1       7.265   2.774  24.091  0.00  0.00    +0.210 HD
ENDBRANCH  14  21
BRANCH  11  23
ATOM     23  C   UNL     1      12.854   5.322  22.759  0.00  0.00    +0.190 C 
BRANCH  23  24
ATOM     24  O   UNL     1      14.127   4.890  23.247  0.00  0.00    -0.392 OA
ATOM     25  H   UNL     1      13.978   4.056  23.727  0.00  0.00    +0.210 HD
ENDBRANCH  23  24
ENDBRANCH  11  23
ENDBRANCH  10  15
ENDBRANCH   6  10
ENDBRANCH   5   6
ENDBRANCH   1   5
BRANCH   1  26
ATOM     26  O   UNL     1       7.277  -2.605  22.283  0.00  0.00    -0.284 OA
BRANCH  26  27
ATOM     27  C   UNL     1       5.851  -2.733  22.399  0.00  0.00    +0.206 C 
BRANCH  27  28
ATOM     28  C   UNL     1       5.404  -4.188  22.576  0.00  0.00    +0.178 C 
ATOM     29  C   UNL     1       6.522  -5.168  22.199  0.00  0.00    +0.178 C 
ATOM     30  C   UNL     1       7.139  -5.613  23.529  0.00  0.00    +0.195 C 
ATOM     31  C   UNL     1       6.340  -4.837  24.590  0.00  0.00    +0.255 C 
ATOM     32  O   UNL     1       5.113  -4.457  23.956  0.00  0.00    -0.346 OA
BRANCH  31  33
ATOM     33  N   UNL     1       6.078  -5.584  25.815  0.00  0.00    -0.271 N 
ATOM     34  C   UNL     1       7.013  -5.466  26.846  0.00  0.00    +0.331 A 
ATOM     35  O   UNL     1       8.079  -4.860  26.724  0.00  0.00    -0.246 OA
ATOM     36  N   UNL     1       6.683  -6.081  28.025  0.00  0.00    -0.275 N 
ATOM     37  H   UNL     1       7.331  -5.986  28.792  0.00  0.00    +0.173 HD
ATOM     38  C   UNL     1       5.523  -6.748  28.287  0.00  0.00    +0.254 A 
ATOM     39  O   UNL     1       5.258  -7.221  29.382  0.00  0.00    -0.268 OA
ATOM     40  C   UNL     1       4.586  -6.864  27.159  0.00  0.00    +0.088 A 
ATOM     41  C   UNL     1       4.901  -6.284  25.998  0.00  0.00    +0.098 A 
ENDBRANCH  31  33
BRANCH  30  42
ATOM     42  O   UNL     1       8.533  -5.291  23.569  0.00  0.00    -0.385 OA
ATOM     43  H   UNL     1       8.725  -5.010  24.492  0.00  0.00    +0.210 HD
ENDBRANCH  30  42
BRANCH  29  44
ATOM     44  O   UNL     1       5.971  -6.303  21.514  0.00  0.00    -0.386 OA
ATOM     45  H   UNL     1       6.296  -6.294  20.596  0.00  0.00    +0.210 HD
ENDBRANCH  29  44
ENDBRANCH  27  28
ENDBRANCH  26  27
ENDBRANCH   1  26
TORSDOF 17
ENDMDL
MODEL 3
REMARK VINA RESULT:      -7.6      0.938      2.135
REMARK  Name = 
REMARK  17 active torsions:
REMARK  status: ('A' for Active; 'I' for Inactive)
REMARK    1  A    between atoms: O_1  and  C_2
REMARK    2  A    between atoms: C_2  and  C_3
REMARK    3  A    between atoms: C_6  and  O_8
REMARK    4  A    between atoms: O_8  and  P_9
REMARK    5  A    between atoms: P_9  and  O_10
REMARK    6  A    between atoms: P_9  and  O_12
REMARK    7  A    between atoms: O_12  and  P_13
REMARK    8  A    between atoms: P_13  and  O_14
REMARK    9  A    between atoms: P_13  and  O_16
REMARK   10  A    between atoms: O_16  and  C_17
REMARK   11  A    between atoms: C_17  and  C_18
REMARK   12  A    between atoms: C_21  and  N_29
REMARK   13  A    between atoms: C_23  and  O_25
REMARK   14  A    between atoms: C_26  and  O_28
REMARK   15  A    between atoms: C_37  and  O_39
REMARK   16  A    between atoms: C_40  and  O_42
REMARK   17  A    between atoms: C_43  and  O_45
REMARK                            x       y       z     vdW  Elec       q    Type
REMARK                         _______ _______ _______ _____ _____    ______ ____
ROOT
ATOM      1  P   UNL     1       9.127  -1.553  22.839  0.00  0.00    +0.483 P 
ATOM      2  O   UNL     1       9.591  -2.666  23.780  0.00  0.00    -0.227 OA
ENDROOT
BRANCH   1   3
ATOM      3  O   UNL     1      10.181  -1.508  21.585  0.00  0.00    -0.302 OA
ATOM      4  H   UNL     1      10.917  -0.877  21.695  0.00  0.00    +0.222 HD
ENDBRANCH   1   3
BRANCH   1   5
ATOM      5  O   UNL     1      10.138  -0.438  23.692  0.00  0.00    -0.186 OA
BRANCH   5   6
ATOM      6  P   UNL     1       9.185   0.170  24.843  0.00  0.00    +0.486 P 
ATOM      7  O   UNL     1       9.483  -0.334  26.218  0.00  0.00    -0.227 OA
BRANCH   6   8
ATOM      8  O   UNL     1       7.718  -0.275  24.382  0.00  0.00    -0.302 OA
ATOM      9  H   UNL     1       7.749  -0.864  23.601  0.00  0.00    +0.222 HD
ENDBRANCH   6   8
BRANCH   6  10
ATOM     10  O   UNL     1       9.183   1.746  24.676  0.00  0.00    -0.254 OA
BRANCH  10  15
ATOM     11  C   UNL     1       5.984   2.927  23.522  0.00  0.00    +0.178 C 
ATOM     12  C   UNL     1       6.337   4.384  23.171  0.00  0.00    +0.177 C 
ATOM     13  C   UNL     1       7.762   4.454  22.586  0.00  0.00    +0.179 C 
ATOM     14  C   UNL     1       8.761   3.747  23.498  0.00  0.00    +0.202 C 
ATOM     15  C   UNL     1       8.253   2.335  23.800  0.00  0.00    +0.293 C 
ATOM     16  O   UNL     1       6.974   2.380  24.409  0.00  0.00    -0.340 OA
BRANCH  12  17
ATOM     17  O   UNL     1       5.375   4.915  22.258  0.00  0.00    -0.386 OA
ATOM     18  H   UNL     1       4.492   4.858  22.662  0.00  0.00    +0.210 HD
ENDBRANCH  12  17
BRANCH  13  19
ATOM     19  O   UNL     1       8.184   5.810  22.406  0.00  0.00    -0.386 OA
ATOM     20  H   UNL     1       8.786   6.008  23.152  0.00  0.00    +0.210 HD
ENDBRANCH  13  19
BRANCH  14  21
ATOM     21  O   UNL     1      10.053   3.758  22.862  0.00  0.00    -0.384 OA
ATOM     22  H   UNL     1      10.747   3.749  23.545  0.00  0.00    +0.210 HD
ENDBRANCH  14  21
BRANCH  11  23
ATOM     23  C   UNL     1       4.608   2.829  24.194  0.00  0.00    +0.190 C 
BRANCH  23  24
ATOM     24  O   UNL     1       3.600   2.657  23.195  0.00  0.00    -0.392 OA
ATOM     25  H   UNL     1       3.501   1.699  23.055  0.00  0.00    +0.210 HD
ENDBRANCH  23  24
ENDBRANCH  11  23
ENDBRANCH  10  15
ENDBRANCH   6  10
ENDBRANCH   5   6
ENDBRANCH   1   5
BRANCH   1  26
ATOM     26  O   UNL     1       8.116  -2.668  21.986  0.00  0.00    -0.284 OA
BRANCH  26  27
ATOM     27  C   UNL     1       6.810  -2.741  22.578  0.00  0.00    +0.206 C 
BRANCH  27  28
ATOM     28  C   UNL     1       6.280  -4.177  22.663  0.00  0.00    +0.178 C 
ATOM     29  C   UNL     1       7.407  -5.201  22.475  0.00  0.00    +0.178 C 
ATOM     30  C   UNL     1       7.769  -5.672  23.888  0.00  0.00    +0.195 C 
ATOM     31  C   UNL     1       6.831  -4.865  24.803  0.00  0.00    +0.255 C 
ATOM     32  O   UNL     1       5.747  -4.435  23.971  0.00  0.00    -0.346 OA
BRANCH  31  33
ATOM     33  N   UNL     1       6.334  -5.603  25.958  0.00  0.00    -0.271 N 
ATOM     34  C   UNL     1       7.081  -5.522  27.135  0.00  0.00    +0.331 A 
ATOM     35  O   UNL     1       8.175  -4.959  27.204  0.00  0.00    -0.246 OA
ATOM     36  N   UNL     1       6.530  -6.125  28.236  0.00  0.00    -0.275 N 
ATOM     37  H   UNL     1       7.040  -6.056  29.103  0.00  0.00    +0.173 HD
ATOM     38  C   UNL     1       5.317  -6.747  28.290  0.00  0.00    +0.254 A 
ATOM     39  O   UNL     1       4.850  -7.209  29.319  0.00  0.00    -0.268 OA
ATOM     40  C   UNL     1       4.585  -6.824  27.016  0.00  0.00    +0.088 A 
ATOM     41  C   UNL     1       5.117  -6.256  25.931  0.00  0.00    +0.098 A 
ENDBRANCH  31  33
BRANCH  30  42
ATOM     42  O   UNL     1       9.147  -5.408  24.167  0.00  0.00    -0.385 OA
ATOM     43  H   UNL     1       9.258  -4.431  24.108  0.00  0.00    +0.210 HD
ENDBRANCH  30  42
BRANCH  29  44
ATOM     44  O   UNL     1       6.937  -6.311  21.696  0.00  0.00    -0.386 OA
ATOM     45  H   UNL     1       6.286  -5.980  21.053  0.00  0.00    +0.210 HD
ENDBRANCH  29  44
ENDBRANCH  27  28
ENDBRANCH  26  27
ENDBRANCH   1  26
TORSDOF 17
ENDMDL
MODEL 4
REMARK VINA RESULT:      -7.4      1.393      2.021
REMARK  Name = 
REMARK  17 active torsions:
REMARK  status: ('A' for Active; 'I' for Inactive)
REMARK    1  A    between atoms: O_1  and  C_2
REMARK    2  A    between atoms: C_2  and  C_3
REMARK    3  A    between atoms: C_6  and  O_8
REMARK    4  A    between atoms: O_8  and  P_9
REMARK    5  A    between atoms: P_9  and  O_10
REMARK    6  A    between atoms: P_9  and  O_12
REMARK    7  A    between atoms: O_12  and  P_13
REMARK    8  A    between atoms: P_13  and  O_14
REMARK    9  A    between atoms: P_13  and  O_16
REMARK   10  A    between atoms: O_16  and  C_17
REMARK   11  A    between atoms: C_17  and  C_18
REMARK   12  A    between atoms: C_21  and  N_29
REMARK   13  A    between atoms: C_23  and  O_25
REMARK   14  A    between atoms: C_26  and  O_28
REMARK   15  A    between atoms: C_37  and  O_39
REMARK   16  A    between atoms: C_40  and  O_42
REMARK   17  A    between atoms: C_43  and  O_45
REMARK                            x       y       z     vdW  Elec       q    Type
REMARK                         _______ _______ _______ _____ _____    ______ ____
ROOT
ATOM      1  P   UNL     1       9.372  -1.599  22.964  0.00  0.00    +0.483 P 
ATOM      2  O   UNL     1       9.789  -2.878  23.689  0.00  0.00    -0.227 OA
ENDROOT
BRANCH   1   3
ATOM      3  O   UNL     1      10.197  -1.553  21.548  0.00  0.00    -0.302 OA
ATOM      4  H   UNL     1      11.165  -1.619  21.640  0.00  0.00    +0.222 HD
ENDBRANCH   1   3
BRANCH   1   5
ATOM      5  O   UNL     1      10.684  -0.764  23.722  0.00  0.00    -0.186 OA
BRANCH   5   6
ATOM      6  P   UNL     1      10.039   0.626  24.227  0.00  0.00    +0.486 P 
ATOM      7  O   UNL     1      10.944   1.808  24.094  0.00  0.00    -0.227 OA
BRANCH   6   8
ATOM      8  O   UNL     1       9.703   0.340  25.766  0.00  0.00    -0.302 OA
ATOM      9  H   UNL     1      10.269  -0.369  26.132  0.00  0.00    +0.222 HD
ENDBRANCH   6   8
BRANCH   6  10
ATOM     10  O   UNL     1       8.619   0.769  23.539  0.00  0.00    -0.254 OA
BRANCH  10  15
ATOM     11  C   UNL     1       7.136   3.471  25.400  0.00  0.00    +0.178 C 
ATOM     12  C   UNL     1       7.683   4.679  24.618  0.00  0.00    +0.177 C 
ATOM     13  C   UNL     1       7.751   4.346  23.114  0.00  0.00    +0.179 C 
ATOM     14  C   UNL     1       8.493   3.032  22.880  0.00  0.00    +0.202 C 
ATOM     15  C   UNL     1       7.873   1.941  23.759  0.00  0.00    +0.293 C 
ATOM     16  O   UNL     1       7.932   2.305  25.127  0.00  0.00    -0.340 OA
BRANCH  12  17
ATOM     17  O   UNL     1       6.868   5.828  24.858  0.00  0.00    -0.386 OA
ATOM     18  H   UNL     1       7.276   6.361  25.562  0.00  0.00    +0.210 HD
ENDBRANCH  12  17
BRANCH  13  19
ATOM     19  O   UNL     1       8.410   5.383  22.380  0.00  0.00    -0.386 OA
ATOM     20  H   UNL     1       8.067   6.227  22.736  0.00  0.00    +0.210 HD
ENDBRANCH  13  19
BRANCH  14  21
ATOM     21  O   UNL     1       8.444   2.720  21.475  0.00  0.00    -0.384 OA
ATOM     22  H   UNL     1       8.264   1.770  21.364  0.00  0.00    +0.210 HD
ENDBRANCH  14  21
BRANCH  11  23
ATOM     23  C   UNL     1       7.142   3.732  26.913  0.00  0.00    +0.190 C 
BRANCH  23  24
ATOM     24  O   UNL     1       7.888   4.921  27.188  0.00  0.00    -0.392 OA
ATOM     25  H   UNL     1       8.824   4.712  27.024  0.00  0.00    +0.210 HD
ENDBRANCH  23  24
ENDBRANCH  11  23
ENDBRANCH  10  15
ENDBRANCH   6  10
ENDBRANCH   5   6
ENDBRANCH   1   5
BRANCH   1  26
ATOM     26  O   UNL     1       8.060  -2.433  22.205  0.00  0.00    -0.284 OA
BRANCH  26  27
ATOM     27  C   UNL     1       6.820  -2.174  22.882  0.00  0.00    +0.206 C 
BRANCH  27  28
ATOM     28  C   UNL     1       5.903  -3.401  22.921  0.00  0.00    +0.178 C 
ATOM     29  C   UNL     1       6.575  -4.624  22.284  0.00  0.00    +0.178 C 
ATOM     30  C   UNL     1       7.090  -5.464  23.458  0.00  0.00    +0.195 C 
ATOM     31  C   UNL     1       6.693  -4.650  24.703  0.00  0.00    +0.255 C 
ATOM     32  O   UNL     1       5.636  -3.780  24.281  0.00  0.00    -0.346 OA
BRANCH  31  33
ATOM     33  N   UNL     1       6.273  -5.457  25.842  0.00  0.00    -0.271 N 
ATOM     34  C   UNL     1       7.053  -5.381  26.999  0.00  0.00    +0.331 A 
ATOM     35  O   UNL     1       8.117  -4.762  27.056  0.00  0.00    -0.246 OA
ATOM     36  N   UNL     1       6.570  -6.054  28.090  0.00  0.00    -0.275 N 
ATOM     37  H   UNL     1       7.103  -5.991  28.944  0.00  0.00    +0.173 HD
ATOM     38  C   UNL     1       5.394  -6.742  28.156  0.00  0.00    +0.254 A 
ATOM     39  O   UNL     1       4.986  -7.268  29.180  0.00  0.00    -0.268 OA
ATOM     40  C   UNL     1       4.627  -6.811  26.903  0.00  0.00    +0.088 A 
ATOM     41  C   UNL     1       5.092  -6.174  25.826  0.00  0.00    +0.098 A 
ENDBRANCH  31  33
BRANCH  30  42
ATOM     42  O   UNL     1       8.507  -5.641  23.365  0.00  0.00    -0.385 OA
ATOM     43  H   UNL     1       8.904  -5.050  24.045  0.00  0.00    +0.210 HD
ENDBRANCH  30  42
BRANCH  29  44
ATOM     44  O   UNL     1       5.613  -5.377  21.531  0.00  0.00    -0.386 OA
ATOM     45  H   UNL     1       4.741  -4.962  21.647  0.00  0.00    +0.210 HD
ENDBRANCH  29  44
ENDBRANCH  27  28
ENDBRANCH  26  27
ENDBRANCH   1  26
TORSDOF 17
ENDMDL
MODEL 5
REMARK VINA RESULT:      -7.4      1.980      3.059
REMARK  Name = 
REMARK  17 active torsions:
REMARK  status: ('A' for Active; 'I' for Inactive)
REMARK    1  A    between atoms: O_1  and  C_2
REMARK    2  A    between atoms: C_2  and  C_3
REMARK    3  A    between atoms: C_6  and  O_8
REMARK    4  A    between atoms: O_8  and  P_9
REMARK    5  A    between atoms: P_9  and  O_10
REMARK    6  A    between atoms: P_9  and  O_12
REMARK    7  A    between atoms: O_12  and  P_13
REMARK    8  A    between atoms: P_13  and  O_14
REMARK    9  A    between atoms: P_13  and  O_16
REMARK   10  A    between atoms: O_16  and  C_17
REMARK   11  A    between atoms: C_17  and  C_18
REMARK   12  A    between atoms: C_21  and  N_29
REMARK   13  A    between atoms: C_23  and  O_25
REMARK   14  A    between atoms: C_26  and  O_28
REMARK   15  A    between atoms: C_37  and  O_39
REMARK   16  A    between atoms: C_40  and  O_42
REMARK   17  A    between atoms: C_43  and  O_45
REMARK                            x       y       z     vdW  Elec       q    Type
REMARK                         _______ _______ _______ _____ _____    ______ ____
ROOT
ATOM      1  P   UNL     1       9.736  -0.971  23.306  0.00  0.00    +0.483 P 
ATOM      2  O   UNL     1      10.520  -2.202  22.850  0.00  0.00    -0.227 OA
ENDROOT
BRANCH   1   3
ATOM      3  O   UNL     1       8.173  -1.201  22.868  0.00  0.00    -0.302 OA
ATOM      4  H   UNL     1       7.879  -0.661  22.111  0.00  0.00    +0.222 HD
ENDBRANCH   1   3
BRANCH   1   5
ATOM      5  O   UNL     1      10.029  -0.239  21.766  0.00  0.00    -0.186 OA
BRANCH   5   6
ATOM      6  P   UNL     1       9.222   1.157  21.823  0.00  0.00    +0.486 P 
ATOM      7  O   UNL     1       8.137   1.282  20.803  0.00  0.00    -0.227 OA
BRANCH   6   8
ATOM      8  O   UNL     1      10.362   2.253  21.575  0.00  0.00    -0.302 OA
ATOM      9  H   UNL     1      11.256   1.877  21.697  0.00  0.00    +0.222 HD
ENDBRANCH   6   8
BRANCH   6  10
ATOM     10  O   UNL     1       8.780   1.390  23.326  0.00  0.00    -0.254 OA
BRANCH  10  15
ATOM     11  C   UNL     1       7.404   4.716  23.292  0.00  0.00    +0.178 C 
ATOM     12  C   UNL     1       5.984   4.423  22.772  0.00  0.00    +0.177 C 
ATOM     13  C   UNL     1       5.483   3.080  23.338  0.00  0.00    +0.179 C 
ATOM     14  C   UNL     1       6.504   1.971  23.095  0.00  0.00    +0.202 C 
ATOM     15  C   UNL     1       7.871   2.424  23.614  0.00  0.00    +0.293 C 
ATOM     16  O   UNL     1       8.280   3.621  22.976  0.00  0.00    -0.340 OA
BRANCH  12  17
ATOM     17  O   UNL     1       5.104   5.494  23.120  0.00  0.00    -0.386 OA
ATOM     18  H   UNL     1       4.452   5.168  23.765  0.00  0.00    +0.210 HD
ENDBRANCH  12  17
BRANCH  13  19
ATOM     19  O   UNL     1       4.238   2.697  22.744  0.00  0.00    -0.386 OA
ATOM     20  H   UNL     1       4.465   2.108  21.995  0.00  0.00    +0.210 HD
ENDBRANCH  13  19
BRANCH  14  21
ATOM     21  O   UNL     1       6.032   0.765  23.724  0.00  0.00    -0.384 OA
ATOM     22  H   UNL     1       5.930   0.921  24.680  0.00  0.00    +0.210 HD
ENDBRANCH  14  21
BRANCH  11  23
ATOM     23  C   UNL     1       7.973   6.001  22.675  0.00  0.00    +0.190 C 
BRANCH  23  24
ATOM     24  O   UNL     1       7.480   6.148  21.341  0.00  0.00    -0.392 OA
ATOM     25  H   UNL     1       7.528   5.271  20.923  0.00  0.00    +0.210 HD
ENDBRANCH  23  24
ENDBRANCH  11  23
ENDBRANCH  10  15
ENDBRANCH   6  10
ENDBRANCH   5   6
ENDBRANCH   1   5
BRANCH   1  26
ATOM     26  O   UNL     1       9.443  -1.703  24.845  0.00  0.00    -0.284 OA
BRANCH  26  27
ATOM     27  C   UNL     1       8.903  -3.025  24.696  0.00  0.00    +0.206 C 
BRANCH  27  28
ATOM     28  C   UNL     1       7.816  -3.337  25.730  0.00  0.00    +0.178 C 
ATOM     29  C   UNL     1       6.723  -2.261  25.737  0.00  0.00    +0.178 C 
ATOM     30  C   UNL     1       5.564  -2.850  24.926  0.00  0.00    +0.195 C 
ATOM     31  C   UNL     1       6.081  -4.232  24.486  0.00  0.00    +0.255 C 
ATOM     32  O   UNL     1       7.142  -4.560  25.392  0.00  0.00    -0.346 OA
BRANCH  31  33
ATOM     33  N   UNL     1       5.067  -5.280  24.479  0.00  0.00    -0.271 N 
ATOM     34  C   UNL     1       4.359  -5.473  23.290  0.00  0.00    +0.331 A 
ATOM     35  O   UNL     1       4.475  -4.737  22.308  0.00  0.00    -0.246 OA
ATOM     36  N   UNL     1       3.500  -6.540  23.272  0.00  0.00    -0.275 N 
ATOM     37  H   UNL     1       2.998  -6.714  22.415  0.00  0.00    +0.173 HD
ATOM     38  C   UNL     1       3.313  -7.439  24.281  0.00  0.00    +0.254 A 
ATOM     39  O   UNL     1       2.578  -8.410  24.180  0.00  0.00    -0.268 OA
ATOM     40  C   UNL     1       4.064  -7.173  25.517  0.00  0.00    +0.088 A 
ATOM     41  C   UNL     1       4.893  -6.128  25.555  0.00  0.00    +0.098 A 
ENDBRANCH  31  33
BRANCH  30  42
ATOM     42  O   UNL     1       5.258  -2.014  23.807  0.00  0.00    -0.385 OA
ATOM     43  H   UNL     1       5.254  -2.601  23.016  0.00  0.00    +0.210 HD
ENDBRANCH  30  42
BRANCH  29  44
ATOM     44  O   UNL     1       6.295  -2.003  27.082  0.00  0.00    -0.386 OA
ATOM     45  H   UNL     1       6.781  -2.600  27.678  0.00  0.00    +0.210 HD
ENDBRANCH  29  44
ENDBRANCH  27  28
ENDBRANCH  26  27
ENDBRANCH   1  26
TORSDOF 17
ENDMDL
MODEL 6
REMARK VINA RESULT:      -7.4      3.191      9.298
REMARK  Name = 
REMARK  17 active torsions:
REMARK  status: ('A' for Active; 'I' for Inactive)
REMARK    1  A    between atoms: O_1  and  C_2
REMARK    2  A    between atoms: C_2  and  C_3
REMARK    3  A    between atoms: C_6  and  O_8
REMARK    4  A    between atoms: O_8  and  P_9
REMARK    5  A    between atoms: P_9  and  O_10
REMARK    6  A    between atoms: P_9  and  O_12
REMARK    7  A    between atoms: O_12  and  P_13
REMARK    8  A    between atoms: P_13  and  O_14
REMARK    9  A    between atoms: P_13  and  O_16
REMARK   10  A    between atoms: O_16  and  C_17
REMARK   11  A    between atoms: C_17  and  C_18
REMARK   12  A    between atoms: C_21  and  N_29
REMARK   13  A    between atoms: C_23  and  O_25
REMARK   14  A    between atoms: C_26  and  O_28
REMARK   15  A    between atoms: C_37  and  O_39
REMARK   16  A    between atoms: C_40  and  O_42
REMARK   17  A    between atoms: C_43  and  O_45
REMARK                            x       y       z     vdW  Elec       q    Type
REMARK                         _______ _______ _______ _____ _____    ______ ____
ROOT
ATOM      1  P   UNL     1       7.234  -2.126  23.595  0.00  0.00    +0.483 P 
ATOM      2  O   UNL     1       6.585  -0.865  24.166  0.00  0.00    -0.227 OA
ENDROOT
BRANCH   1   3
ATOM      3  O   UNL     1       7.777  -1.754  22.093  0.00  0.00    -0.302 OA
ATOM      4  H   UNL     1       7.784  -2.502  21.467  0.00  0.00    +0.222 HD
ENDBRANCH   1   3
BRANCH   1   5
ATOM      5  O   UNL     1       5.712  -2.572  22.903  0.00  0.00    -0.186 OA
BRANCH   5   6
ATOM      6  P   UNL     1       5.991  -3.999  22.204  0.00  0.00    +0.486 P 
ATOM      7  O   UNL     1       7.395  -4.490  22.348  0.00  0.00    -0.227 OA
BRANCH   6   8
ATOM      8  O   UNL     1       5.640  -3.731  20.665  0.00  0.00    -0.302 OA
ATOM      9  H   UNL     1       5.405  -2.795  20.507  0.00  0.00    +0.222 HD
ENDBRANCH   6   8
BRANCH   6  10
ATOM     10  O   UNL     1       4.862  -4.997  22.692  0.00  0.00    -0.254 OA
BRANCH  10  15
ATOM     11  C   UNL     1       6.041  -5.926  25.964  0.00  0.00    +0.178 C 
ATOM     12  C   UNL     1       4.766  -6.561  26.548  0.00  0.00    +0.177 C 
ATOM     13  C   UNL     1       4.004  -7.323  25.446  0.00  0.00    +0.179 C 
ATOM     14  C   UNL     1       3.785  -6.436  24.222  0.00  0.00    +0.202 C 
ATOM     15  C   UNL     1       5.126  -5.837  23.789  0.00  0.00    +0.293 C 
ATOM     16  O   UNL     1       5.706  -5.090  24.844  0.00  0.00    -0.340 OA
BRANCH  12  17
ATOM     17  O   UNL     1       5.102  -7.424  27.637  0.00  0.00    -0.386 OA
ATOM     18  H   UNL     1       4.958  -6.947  28.472  0.00  0.00    +0.210 HD
ENDBRANCH  12  17
BRANCH  13  19
ATOM     19  O   UNL     1       2.732  -7.782  25.914  0.00  0.00    -0.386 OA
ATOM     20  H   UNL     1       2.079  -7.505  25.240  0.00  0.00    +0.210 HD
ENDBRANCH  13  19
BRANCH  14  21
ATOM     21  O   UNL     1       3.158  -7.222  23.191  0.00  0.00    -0.384 OA
ATOM     22  H   UNL     1       2.565  -7.875  23.602  0.00  0.00    +0.210 HD
ENDBRANCH  14  21
BRANCH  11  23
ATOM     23  C   UNL     1       6.778  -5.080  27.012  0.00  0.00    +0.190 C 
BRANCH  23  24
ATOM     24  O   UNL     1       7.663  -5.916  27.762  0.00  0.00    -0.392 OA
ATOM     25  H   UNL     1       8.078  -6.529  27.131  0.00  0.00    +0.210 HD
ENDBRANCH  23  24
ENDBRANCH  11  23
ENDBRANCH  10  15
ENDBRANCH   6  10
ENDBRANCH   5   6
ENDBRANCH   1   5
BRANCH   1  26
ATOM     26  O   UNL     1       8.756  -1.679  24.286  0.00  0.00    -0.284 OA
BRANCH  26  27
ATOM     27  C   UNL     1       8.581  -0.757  25.373  0.00  0.00    +0.206 C 
BRANCH  27  28
ATOM     28  C   UNL     1       9.552   0.426  25.304  0.00  0.00    +0.178 C 
ATOM     29  C   UNL     1      10.546   0.268  24.145  0.00  0.00    +0.178 C 
ATOM     30  C   UNL     1      10.006   1.157  23.021  0.00  0.00    +0.195 C 
ATOM     31  C   UNL     1       8.715   1.757  23.605  0.00  0.00    +0.255 C 
ATOM     32  O   UNL     1       8.839   1.642  25.028  0.00  0.00    -0.346 OA
BRANCH  31  33
ATOM     33  N   UNL     1       8.465   3.142  23.221  0.00  0.00    -0.271 N 
ATOM     34  C   UNL     1       7.613   3.356  22.135  0.00  0.00    +0.331 A 
ATOM     35  O   UNL     1       7.165   2.445  21.437  0.00  0.00    -0.246 OA
ATOM     36  N   UNL     1       7.300   4.664  21.870  0.00  0.00    -0.275 N 
ATOM     37  H   UNL     1       6.665   4.841  21.106  0.00  0.00    +0.173 HD
ATOM     38  C   UNL     1       7.706   5.750  22.589  0.00  0.00    +0.254 A 
ATOM     39  O   UNL     1       7.340   6.888  22.341  0.00  0.00    -0.268 OA
ATOM     40  C   UNL     1       8.622   5.467  23.705  0.00  0.00    +0.088 A 
ATOM     41  C   UNL     1       8.948   4.200  23.966  0.00  0.00    +0.098 A 
ENDBRANCH  31  33
BRANCH  30  42
ATOM     42  O   UNL     1       9.750   0.382  21.846  0.00  0.00    -0.385 OA
ATOM     43  H   UNL     1       8.783   0.195  21.844  0.00  0.00    +0.210 HD
ENDBRANCH  30  42
BRANCH  29  44
ATOM     44  O   UNL     1      11.846   0.726  24.547  0.00  0.00    -0.386 OA
ATOM     45  H   UNL     1      11.868   1.695  24.465  0.00  0.00    +0.210 HD
ENDBRANCH  29  44
ENDBRANCH  27  28
ENDBRANCH  26  27
ENDBRANCH   1  26
TORSDOF 17
ENDMDL
MODEL 7
REMARK VINA RESULT:      -7.2      3.356      8.683
REMARK  Name = 
REMARK  17 active torsions:
REMARK  status: ('A' for Active; 'I' for Inactive)
REMARK    1  A    between atoms: O_1  and  C_2
REMARK    2  A    between atoms: C_2  and  C_3
REMARK    3  A    between atoms: C_6  and  O_8
REMARK    4  A    between atoms: O_8  and  P_9
REMARK    5  A    between atoms: P_9  and  O_10
REMARK    6  A    between atoms: P_9  and  O_12
REMARK    7  A    between atoms: O_12  and  P_13
REMARK    8  A    between atoms: P_13  and  O_14
REMARK    9  A    between atoms: P_13  and  O_16
REMARK   10  A    between atoms: O_16  and  C_17
REMARK   11  A    between atoms: C_17  and  C_18
REMARK   12  A    between atoms: C_21  and  N_29
REMARK   13  A    between atoms: C_23  and  O_25
REMARK   14  A    between atoms: C_26  and  O_28
REMARK   15  A    between atoms: C_37  and  O_39
REMARK   16  A    between atoms: C_40  and  O_42
REMARK   17  A    between atoms: C_43  and  O_45
REMARK                            x       y       z     vdW  Elec       q    Type
REMARK                         _______ _______ _______ _____ _____    ______ ____
ROOT
ATOM      1  P   UNL     1       8.591  -4.692  24.803  0.00  0.00    +0.483 P 
ATOM      2  O   UNL     1       8.321  -5.293  23.423  0.00  0.00    -0.227 OA
ENDROOT
BRANCH   1   3
ATOM      3  O   UNL     1       9.684  -5.661  25.548  0.00  0.00    -0.302 OA
ATOM      4  H   UNL     1      10.087  -6.337  24.972  0.00  0.00    +0.222 HD
ENDBRANCH   1   3
BRANCH   1   5
ATOM      5  O   UNL     1       7.322  -5.671  25.455  0.00  0.00    -0.186 OA
BRANCH   5   6
ATOM      6  P   UNL     1       7.061  -5.063  26.927  0.00  0.00    +0.486 P 
ATOM      7  O   UNL     1       7.674  -3.719  27.154  0.00  0.00    -0.227 OA
BRANCH   6   8
ATOM      8  O   UNL     1       7.715  -6.154  27.898  0.00  0.00    -0.302 OA
ATOM      9  H   UNL     1       8.666  -6.284  27.707  0.00  0.00    +0.222 HD
ENDBRANCH   6   8
BRANCH   6  10
ATOM     10  O   UNL     1       5.507  -5.167  27.216  0.00  0.00    -0.254 OA
BRANCH  10  15
ATOM     11  C   UNL     1       4.299  -4.667  23.862  0.00  0.00    +0.178 C 
ATOM     12  C   UNL     1       3.968  -6.119  23.469  0.00  0.00    +0.177 C 
ATOM     13  C   UNL     1       3.412  -6.882  24.687  0.00  0.00    +0.179 C 
ATOM     14  C   UNL     1       4.338  -6.732  25.892  0.00  0.00    +0.202 C 
ATOM     15  C   UNL     1       4.618  -5.246  26.129  0.00  0.00    +0.293 C 
ATOM     16  O   UNL     1       5.202  -4.655  24.981  0.00  0.00    -0.340 OA
BRANCH  12  17
ATOM     17  O   UNL     1       3.040  -6.132  22.381  0.00  0.00    -0.386 OA
ATOM     18  H   UNL     1       2.183  -5.795  22.694  0.00  0.00    +0.210 HD
ENDBRANCH  12  17
BRANCH  13  19
ATOM     19  O   UNL     1       3.252  -8.275  24.401  0.00  0.00    -0.386 OA
ATOM     20  H   UNL     1       3.373  -8.369  23.435  0.00  0.00    +0.210 HD
ENDBRANCH  13  19
BRANCH  14  21
ATOM     21  O   UNL     1       3.728  -7.379  27.024  0.00  0.00    -0.384 OA
ATOM     22  H   UNL     1       4.307  -7.279  27.801  0.00  0.00    +0.210 HD
ENDBRANCH  14  21
BRANCH  11  23
ATOM     23  C   UNL     1       4.943  -3.903  22.697  0.00  0.00    +0.190 C 
BRANCH  23  24
ATOM     24  O   UNL     1       5.635  -4.823  21.849  0.00  0.00    -0.392 OA
ATOM     25  H   UNL     1       6.583  -4.736  22.050  0.00  0.00    +0.210 HD
ENDBRANCH  23  24
ENDBRANCH  11  23
ENDBRANCH  10  15
ENDBRANCH   6  10
ENDBRANCH   5   6
ENDBRANCH   1   5
BRANCH   1  26
ATOM     26  O   UNL     1       9.861  -3.714  24.151  0.00  0.00    -0.284 OA
BRANCH  26  27
ATOM     27  C   UNL     1       9.647  -2.325  24.444  0.00  0.00    +0.206 C 
BRANCH  27  28
ATOM     28  C   UNL     1      10.107  -1.406  23.307  0.00  0.00    +0.178 C 
ATOM     29  C   UNL     1       9.003  -1.215  22.258  0.00  0.00    +0.178 C 
ATOM     30  C   UNL     1       8.374   0.147  22.572  0.00  0.00    +0.195 C 
ATOM     31  C   UNL     1       9.152   0.644  23.803  0.00  0.00    +0.255 C 
ATOM     32  O   UNL     1      10.384  -0.089  23.811  0.00  0.00    -0.346 OA
BRANCH  31  33
ATOM     33  N   UNL     1       9.407   2.079  23.817  0.00  0.00    -0.271 N 
ATOM     34  C   UNL     1       8.450   2.890  24.432  0.00  0.00    +0.331 A 
ATOM     35  O   UNL     1       7.374   2.463  24.854  0.00  0.00    -0.246 OA
ATOM     36  N   UNL     1       8.770   4.218  24.537  0.00  0.00    -0.275 N 
ATOM     37  H   UNL     1       8.106   4.818  25.002  0.00  0.00    +0.173 HD
ATOM     38  C   UNL     1       9.939   4.798  24.139  0.00  0.00    +0.254 A 
ATOM     39  O   UNL     1      10.193   5.979  24.319  0.00  0.00    -0.268 OA
ATOM     40  C   UNL     1      10.899   3.903  23.475  0.00  0.00    +0.088 A 
ATOM     41  C   UNL     1      10.595   2.609  23.351  0.00  0.00    +0.098 A 
ENDBRANCH  31  33
BRANCH  30  42
ATOM     42  O   UNL     1       6.977   0.004  22.844  0.00  0.00    -0.385 OA
ATOM     43  H   UNL     1       6.734  -0.910  22.568  0.00  0.00    +0.210 HD
ENDBRANCH  30  42
BRANCH  29  44
ATOM     44  O   UNL     1       9.574  -1.197  20.942  0.00  0.00    -0.386 OA
ATOM     45  H   UNL     1      10.250  -1.895  20.891  0.00  0.00    +0.210 HD
ENDBRANCH  29  44
ENDBRANCH  27  28
ENDBRANCH  26  27
ENDBRANCH   1  26
TORSDOF 17
ENDMDL
MODEL 8
REMARK VINA RESULT:      -7.2      2.761      8.503
REMARK  Name = 
REMARK  17 active torsions:
REMARK  status: ('A' for Active; 'I' for Inactive)
REMARK    1  A    between atoms: O_1  and  C_2
REMARK    2  A    between atoms: C_2  and  C_3
REMARK    3  A    between atoms: C_6  and  O_8
REMARK    4  A    between atoms: O_8  and  P_9
REMARK    5  A    between atoms: P_9  and  O_10
REMARK    6  A    between atoms: P_9  and  O_12
REMARK    7  A    between atoms: O_12  and  P_13
REMARK    8  A    between atoms: P_13  and  O_14
REMARK    9  A    between atoms: P_13  and  O_16
REMARK   10  A    between atoms: O_16  and  C_17
REMARK   11  A    between atoms: C_17  and  C_18
REMARK   12  A    between atoms: C_21  and  N_29
REMARK   13  A    between atoms: C_23  and  O_25
REMARK   14  A    between atoms: C_26  and  O_28
REMARK   15  A    between atoms: C_37  and  O_39
REMARK   16  A    between atoms: C_40  and  O_42
REMARK   17  A    between atoms: C_43  and  O_45
REMARK                            x       y       z     vdW  Elec       q    Type
REMARK                         _______ _______ _______ _____ _____    ______ ____
ROOT
ATOM      1  P   UNL     1       9.066  -1.843  23.395  0.00  0.00    +0.483 P 
ATOM      2  O   UNL     1      10.000  -1.195  22.373  0.00  0.00    -0.227 OA
ENDROOT
BRANCH   1   3
ATOM      3  O   UNL     1       9.853  -3.139  24.017  0.00  0.00    -0.302 OA
ATOM      4  H   UNL     1      10.794  -2.983  24.224  0.00  0.00    +0.222 HD
ENDBRANCH   1   3
BRANCH   1   5
ATOM      5  O   UNL     1       8.437  -2.861  22.145  0.00  0.00    -0.186 OA
BRANCH   5   6
ATOM      6  P   UNL     1       7.483  -3.907  22.919  0.00  0.00    +0.486 P 
ATOM      7  O   UNL     1       8.120  -5.230  23.196  0.00  0.00    -0.227 OA
BRANCH   6   8
ATOM      8  O   UNL     1       6.238  -4.074  21.928  0.00  0.00    -0.302 OA
ATOM      9  H   UNL     1       5.587  -4.717  22.272  0.00  0.00    +0.222 HD
ENDBRANCH   6   8
BRANCH   6  10
ATOM     10  O   UNL     1       6.880  -3.159  24.179  0.00  0.00    -0.254 OA
BRANCH  10  15
ATOM     11  C   UNL     1       4.687  -5.666  25.544  0.00  0.00    +0.178 C 
ATOM     12  C   UNL     1       5.668  -6.421  26.461  0.00  0.00    +0.177 C 
ATOM     13  C   UNL     1       6.663  -5.431  27.097  0.00  0.00    +0.179 C 
ATOM     14  C   UNL     1       7.317  -4.555  26.030  0.00  0.00    +0.202 C 
ATOM     15  C   UNL     1       6.227  -3.915  25.168  0.00  0.00    +0.293 C 
ATOM     16  O   UNL     1       5.416  -4.907  24.564  0.00  0.00    -0.340 OA
BRANCH  12  17
ATOM     17  O   UNL     1       4.946  -7.144  27.460  0.00  0.00    -0.386 OA
ATOM     18  H   UNL     1       4.274  -7.697  27.025  0.00  0.00    +0.210 HD
ENDBRANCH  12  17
BRANCH  13  19
ATOM     19  O   UNL     1       7.690  -6.117  27.820  0.00  0.00    -0.386 OA
ATOM     20  H   UNL     1       8.521  -5.633  27.637  0.00  0.00    +0.210 HD
ENDBRANCH  13  19
BRANCH  14  21
ATOM     21  O   UNL     1       8.162  -3.589  26.683  0.00  0.00    -0.384 OA
ATOM     22  H   UNL     1       7.853  -2.692  26.462  0.00  0.00    +0.210 HD
ENDBRANCH  14  21
BRANCH  11  23
ATOM     23  C   UNL     1       3.739  -6.632  24.820  0.00  0.00    +0.190 C 
BRANCH  23  24
ATOM     24  O   UNL     1       4.497  -7.492  23.966  0.00  0.00    -0.392 OA
ATOM     25  H   UNL     1       4.039  -7.514  23.107  0.00  0.00    +0.210 HD
ENDBRANCH  23  24
ENDBRANCH  11  23
ENDBRANCH  10  15
ENDBRANCH   6  10
ENDBRANCH   5   6
ENDBRANCH   1   5
BRANCH   1  26
ATOM     26  O   UNL     1       9.695  -0.826  24.645  0.00  0.00    -0.284 OA
BRANCH  26  27
ATOM     27  C   UNL     1      10.717   0.047  24.138  0.00  0.00    +0.206 C 
BRANCH  27  28
ATOM     28  C   UNL     1      10.320   1.525  24.214  0.00  0.00    +0.178 C 
ATOM     29  C   UNL     1      10.422   2.204  22.842  0.00  0.00    +0.178 C 
ATOM     30  C   UNL     1       8.988   2.256  22.305  0.00  0.00    +0.195 C 
ATOM     31  C   UNL     1       8.152   1.579  23.406  0.00  0.00    +0.255 C 
ATOM     32  O   UNL     1       8.942   1.652  24.599  0.00  0.00    -0.346 OA
BRANCH  31  33
ATOM     33  N   UNL     1       6.839   2.177  23.620  0.00  0.00    -0.271 N 
ATOM     34  C   UNL     1       5.840   1.351  24.141  0.00  0.00    +0.331 A 
ATOM     35  O   UNL     1       5.989   0.140  24.317  0.00  0.00    -0.246 OA
ATOM     36  N   UNL     1       4.654   1.965  24.444  0.00  0.00    -0.275 N 
ATOM     37  H   UNL     1       3.927   1.393  24.846  0.00  0.00    +0.173 HD
ATOM     38  C   UNL     1       4.384   3.297  24.324  0.00  0.00    +0.254 A 
ATOM     39  O   UNL     1       3.325   3.797  24.673  0.00  0.00    -0.268 OA
ATOM     40  C   UNL     1       5.462   4.115  23.746  0.00  0.00    +0.088 A 
ATOM     41  C   UNL     1       6.618   3.528  23.431  0.00  0.00    +0.098 A 
ENDBRANCH  31  33
BRANCH  30  42
ATOM     42  O   UNL     1       8.893   1.561  21.058  0.00  0.00    -0.385 OA
ATOM     43  H   UNL     1       7.999   1.149  21.039  0.00  0.00    +0.210 HD
ENDBRANCH  30  42
BRANCH  29  44
ATOM     44  O   UNL     1      10.936   3.536  22.990  0.00  0.00    -0.386 OA
ATOM     45  H   UNL     1      11.701   3.637  22.398  0.00  0.00    +0.210 HD
ENDBRANCH  29  44
ENDBRANCH  27  28
ENDBRANCH  26  27
ENDBRANCH   1  26
TORSDOF 17
ENDMDL
MODEL 9
REMARK VINA RESULT:      -7.1      1.874      3.424
REMARK  Name = 
REMARK  17 active torsions:
REMARK  status: ('A' for Active; 'I' for Inactive)
REMARK    1  A    between atoms: O_1  and  C_2
REMARK    2  A    between atoms: C_2  and  C_3
REMARK    3  A    between atoms: C_6  and  O_8
REMARK    4  A    between atoms: O_8  and  P_9
REMARK    5  A    between atoms: P_9  and  O_10
REMARK    6  A    between atoms: P_9  and  O_12
REMARK    7  A    between atoms: O_12  and  P_13
REMARK    8  A    between atoms: P_13  and  O_14
REMARK    9  A    between atoms: P_13  and  O_16
REMARK   10  A    between atoms: O_16  and  C_17
REMARK   11  A    between atoms: C_17  and  C_18
REMARK   12  A    between atoms: C_21  and  N_29
REMARK   13  A    between atoms: C_23  and  O_25
REMARK   14  A    between atoms: C_26  and  O_28
REMARK   15  A    between atoms: C_37  and  O_39
REMARK   16  A    between atoms: C_40  and  O_42
REMARK   17  A    between atoms: C_43  and  O_45
REMARK                            x       y       z     vdW  Elec       q    Type
REMARK                         _______ _______ _______ _____ _____    ______ ____
ROOT
ATOM      1  P   UNL     1       9.729  -0.462  23.583  0.00  0.00    +0.483 P 
ATOM      2  O   UNL     1      10.526  -1.286  22.570  0.00  0.00    -0.227 OA
ENDROOT
BRANCH   1   3
ATOM      3  O   UNL     1       8.153  -0.546  23.143  0.00  0.00    -0.302 OA
ATOM      4  H   UNL     1       7.897  -1.378  22.703  0.00  0.00    +0.222 HD
ENDBRANCH   1   3
BRANCH   1   5
ATOM      5  O   UNL     1       9.910   0.925  22.565  0.00  0.00    -0.186 OA
BRANCH   5   6
ATOM      6  P   UNL     1      10.076   2.159  23.591  0.00  0.00    +0.486 P 
ATOM      7  O   UNL     1      11.485   2.627  23.766  0.00  0.00    -0.227 OA
BRANCH   6   8
ATOM      8  O   UNL     1       9.499   1.576  24.966  0.00  0.00    -0.302 OA
ATOM      9  H   UNL     1       9.743   0.636  25.089  0.00  0.00    +0.222 HD
ENDBRANCH   6   8
BRANCH   6  10
ATOM     10  O   UNL     1       9.030   3.272  23.172  0.00  0.00    -0.254 OA
BRANCH  10  15
ATOM     11  C   UNL     1       5.848   1.769  23.931  0.00  0.00    +0.178 C 
ATOM     12  C   UNL     1       4.918   2.982  23.745  0.00  0.00    +0.177 C 
ATOM     13  C   UNL     1       5.420   3.858  22.580  0.00  0.00    +0.179 C 
ATOM     14  C   UNL     1       6.899   4.195  22.751  0.00  0.00    +0.202 C 
ATOM     15  C   UNL     1       7.687   2.902  22.977  0.00  0.00    +0.293 C 
ATOM     16  O   UNL     1       7.203   2.211  24.115  0.00  0.00    -0.340 OA
BRANCH  12  17
ATOM     17  O   UNL     1       3.576   2.542  23.523  0.00  0.00    -0.386 OA
ATOM     18  H   UNL     1       3.025   2.821  24.274  0.00  0.00    +0.210 HD
ENDBRANCH  12  17
BRANCH  13  19
ATOM     19  O   UNL     1       4.678   5.078  22.489  0.00  0.00    -0.386 OA
ATOM     20  H   UNL     1       3.745   4.819  22.350  0.00  0.00    +0.210 HD
ENDBRANCH  13  19
BRANCH  14  21
ATOM     21  O   UNL     1       7.339   4.930  21.593  0.00  0.00    -0.384 OA
ATOM     22  H   UNL     1       8.230   5.286  21.759  0.00  0.00    +0.210 HD
ENDBRANCH  14  21
BRANCH  11  23
ATOM     23  C   UNL     1       5.433   0.923  25.143  0.00  0.00    +0.190 C 
BRANCH  23  24
ATOM     24  O   UNL     1       6.556   0.168  25.604  0.00  0.00    -0.392 OA
ATOM     25  H   UNL     1       6.280  -0.279  26.422  0.00  0.00    +0.210 HD
ENDBRANCH  23  24
ENDBRANCH  11  23
ENDBRANCH  10  15
ENDBRANCH   6  10
ENDBRANCH   5   6
ENDBRANCH   1   5
BRANCH   1  26
ATOM     26  O   UNL     1       9.549  -1.850  24.600  0.00  0.00    -0.284 OA
BRANCH  26  27
ATOM     27  C   UNL     1       9.274  -3.028  23.826  0.00  0.00    +0.206 C 
BRANCH  27  28
ATOM     28  C   UNL     1       8.979  -4.251  24.701  0.00  0.00    +0.178 C 
ATOM     29  C   UNL     1       8.568  -3.839  26.121  0.00  0.00    +0.178 C 
ATOM     30  C   UNL     1       7.040  -3.945  26.150  0.00  0.00    +0.195 C 
ATOM     31  C   UNL     1       6.669  -4.395  24.726  0.00  0.00    +0.255 C 
ATOM     32  O   UNL     1       7.857  -4.980  24.178  0.00  0.00    -0.346 OA
BRANCH  31  33
ATOM     33  N   UNL     1       5.555  -5.335  24.661  0.00  0.00    -0.271 N 
ATOM     34  C   UNL     1       4.886  -5.446  23.440  0.00  0.00    +0.331 A 
ATOM     35  O   UNL     1       5.121  -4.720  22.473  0.00  0.00    -0.246 OA
ATOM     36  N   UNL     1       3.925  -6.420  23.372  0.00  0.00    -0.275 N 
ATOM     37  H   UNL     1       3.447  -6.536  22.491  0.00  0.00    +0.173 HD
ATOM     38  C   UNL     1       3.601  -7.301  24.361  0.00  0.00    +0.254 A 
ATOM     39  O   UNL     1       2.777  -8.192  24.218  0.00  0.00    -0.268 OA
ATOM     40  C   UNL     1       4.318  -7.122  25.633  0.00  0.00    +0.088 A 
ATOM     41  C   UNL     1       5.247  -6.167  25.720  0.00  0.00    +0.098 A 
ENDBRANCH  31  33
BRANCH  30  42
ATOM     42  O   UNL     1       6.455  -2.681  26.479  0.00  0.00    -0.385 OA
ATOM     43  H   UNL     1       6.541  -2.583  27.455  0.00  0.00    +0.210 HD
ENDBRANCH  30  42
BRANCH  29  44
ATOM     44  O   UNL     1       9.137  -4.743  27.079  0.00  0.00    -0.386 OA
ATOM     45  H   UNL     1       8.463  -4.940  27.753  0.00  0.00    +0.210 HD
ENDBRANCH  29  44
ENDBRANCH  27  28
ENDBRANCH  26  27
ENDBRANCH   1  26
TORSDOF 17
ENDMDL
