MODEL 1
REMARK VINA RESULT:      -7.6      0.000      0.000
REMARK  Name = 
REMARK  10 active torsions:
REMARK  status: ('A' for Active; 'I' for Inactive)
REMARK    1  A    between atoms: C_2  and  C_3
REMARK    2  A    between atoms: N_5  and  C_6
REMARK    3  A    between atoms: C_6  and  C_7
REMARK    4  A    between atoms: C_7  and  C_10
REMARK    5  A    between atoms: N_15  and  S_16
REMARK    6  A    between atoms: S_16  and  C_19
REMARK    7  A    between atoms: C_22  and  C_25
REMARK    8  A    between atoms: C_25  and  C_26
REMARK    9  A    between atoms: C_25  and  O_27
REMARK   10  A    between atoms: C_25  and  C_28
REMARK                            x       y       z     vdW  Elec       q    Type
REMARK                         _______ _______ _______ _____ _____    ______ ____
ROOT
ATOM      1  S   UNL     1       7.630  -0.063  23.955  0.00  0.00    +0.061 S 
ATOM      2  O   UNL     1       6.327   0.178  24.538  0.00  0.00    -0.153 OA
ATOM      3  O   UNL     1       7.752  -0.628  22.631  0.00  0.00    -0.153 OA
ENDROOT
BRANCH   1   5
ATOM      4  C   UNL     1       9.206  -2.257  24.494  0.00  0.00    +0.091 C 
ATOM      5  N   UNL     1       8.576  -0.997  25.045  0.00  0.00    -0.171 NA
ATOM      6  C   UNL     1       7.901  -1.382  26.333  0.00  0.00    +0.125 C 
ATOM      7  C   UNL     1       6.833  -2.471  26.117  0.00  0.00    +0.101 C 
ATOM      8  N   UNL     1       7.353  -3.663  25.419  0.00  0.00    -0.299 NA
ATOM      9  C   UNL     1       8.117  -3.309  24.195  0.00  0.00    +0.104 C 
ATOM     10  C   UNL     1      10.141  -2.025  23.318  0.00  0.00    +0.027 C 
BRANCH   8  11
ATOM     11  C   UNL     1       6.275  -4.603  25.116  0.00  0.00    +0.100 C 
BRANCH  11  12
ATOM     12  C   UNL     1       5.861  -5.411  26.338  0.00  0.00    +0.059 C 
ATOM     13  C   UNL     1       4.938  -6.603  26.097  0.00  0.00    +0.018 C 
ATOM     14  C   UNL     1       4.385  -5.355  26.710  0.00  0.00    +0.018 C 
BRANCH  12  15
ATOM     15  C   UNL     1       6.837  -5.534  27.478  0.00  0.00    +0.218 C 
ATOM     16  O   UNL     1       6.522  -5.284  28.633  0.00  0.00    -0.275 OA
ATOM     17  N   UNL     1       8.093  -5.929  27.135  0.00  0.00    -0.329 N 
ATOM     18  H   UNL     1       8.724  -6.135  27.896  0.00  0.00    +0.145 HD
ATOM     19  H   UNL     1       8.306  -6.276  26.212  0.00  0.00    +0.145 HD
ENDBRANCH  12  15
ENDBRANCH  11  12
ENDBRANCH   8  11
ENDBRANCH   1   5
BRANCH   1  20
ATOM     20  C   UNL     1       8.490   1.491  23.941  0.00  0.00    +0.106 A 
ATOM     21  C   UNL     1       9.433   1.773  22.949  0.00  0.00    +0.029 A 
ATOM     22  C   UNL     1      10.027   3.036  22.911  0.00  0.00    +0.008 A 
ATOM     23  C   UNL     1       9.684   4.029  23.849  0.00  0.00    -0.008 A 
ATOM     24  C   UNL     1       8.739   3.703  24.842  0.00  0.00    +0.008 A 
ATOM     25  C   UNL     1       8.147   2.443  24.894  0.00  0.00    +0.029 A 
BRANCH  23  26
ATOM     26  C   UNL     1      10.340   5.414  23.807  0.00  0.00    +0.183 C 
ATOM     27  C   UNL     1      10.054   6.142  25.129  0.00  0.00    +0.056 C 
BRANCH  26  28
ATOM     28  C   UNL     1      11.881   5.369  23.523  0.00  0.00    +0.422 C 
ATOM     29  F   UNL     1      12.397   4.130  23.707  0.00  0.00    -0.167 F 
ATOM     30  F   UNL     1      12.535   6.189  24.390  0.00  0.00    -0.167 F 
ATOM     31  F   UNL     1      12.226   5.764  22.277  0.00  0.00    -0.167 F 
ENDBRANCH  26  28
BRANCH  26  32
ATOM     32  O   UNL     1       9.663   6.215  22.800  0.00  0.00    -0.376 OA
ATOM     33  H   UNL     1       8.733   5.921  22.768  0.00  0.00    +0.211 HD
ENDBRANCH  26  32
ENDBRANCH  23  26
ENDBRANCH   1  20
TORSDOF 8
ENDMDL
MODEL 2
REMARK VINA RESULT:      -7.6      2.625      3.598
REMARK  Name = 
REMARK  10 active torsions:
REMARK  status: ('A' for Active; 'I' for Inactive)
REMARK    1  A    between atoms: C_2  and  C_3
REMARK    2  A    between atoms: N_5  and  C_6
REMARK    3  A    between atoms: C_6  and  C_7
REMARK    4  A    between atoms: C_7  and  C_10
REMARK    5  A    between atoms: N_15  and  S_16
REMARK    6  A    between atoms: S_16  and  C_19
REMARK    7  A    between atoms: C_22  and  C_25
REMARK    8  A    between atoms: C_25  and  C_26
REMARK    9  A    between atoms: C_25  and  O_27
REMARK   10  A    between atoms: C_25  and  C_28
REMARK                            x       y       z     vdW  Elec       q    Type
REMARK                         _______ _______ _______ _____ _____    ______ ____
ROOT
ATOM      1  S   UNL     1       6.035  -3.192  22.701  0.00  0.00    +0.061 S 
ATOM      2  O   UNL     1       4.800  -2.914  23.404  0.00  0.00    -0.153 OA
ATOM      3  O   UNL     1       6.017  -3.640  21.328  0.00  0.00    -0.153 OA
ENDROOT
BRANCH   1   5
ATOM      4  C   UNL     1       6.453  -5.698  23.766  0.00  0.00    +0.091 C 
ATOM      5  N   UNL     1       6.982  -4.287  23.628  0.00  0.00    -0.171 NA
ATOM      6  C   UNL     1       7.345  -3.828  25.013  0.00  0.00    +0.125 C 
ATOM      7  C   UNL     1       6.134  -3.861  25.965  0.00  0.00    +0.101 C 
ATOM      8  N   UNL     1       5.465  -5.176  26.005  0.00  0.00    -0.299 NA
ATOM      9  C   UNL     1       5.186  -5.707  24.646  0.00  0.00    +0.104 C 
ATOM     10  C   UNL     1       6.259  -6.424  22.444  0.00  0.00    +0.027 C 
BRANCH   8  11
ATOM     11  C   UNL     1       4.246  -5.117  26.811  0.00  0.00    +0.100 C 
BRANCH  11  12
ATOM     12  C   UNL     1       4.537  -5.255  28.298  0.00  0.00    +0.059 C 
ATOM     13  C   UNL     1       3.363  -5.045  29.254  0.00  0.00    +0.018 C 
ATOM     14  C   UNL     1       4.409  -3.983  29.127  0.00  0.00    +0.018 C 
BRANCH  12  15
ATOM     15  C   UNL     1       5.592  -6.238  28.733  0.00  0.00    +0.218 C 
ATOM     16  O   UNL     1       6.542  -5.906  29.428  0.00  0.00    -0.275 OA
ATOM     17  N   UNL     1       5.423  -7.513  28.290  0.00  0.00    -0.329 N 
ATOM     18  H   UNL     1       6.050  -8.208  28.671  0.00  0.00    +0.145 HD
ATOM     19  H   UNL     1       4.568  -7.812  27.849  0.00  0.00    +0.145 HD
ENDBRANCH  12  15
ENDBRANCH  11  12
ENDBRANCH   8  11
ENDBRANCH   1   5
BRANCH   1  20
ATOM     20  C   UNL     1       7.010  -1.709  22.755  0.00  0.00    +0.106 A 
ATOM     21  C   UNL     1       8.249  -1.647  22.110  0.00  0.00    +0.029 A 
ATOM     22  C   UNL     1       8.950  -0.441  22.093  0.00  0.00    +0.008 A 
ATOM     23  C   UNL     1       8.427   0.714  22.705  0.00  0.00    -0.008 A 
ATOM     24  C   UNL     1       7.181   0.611  23.356  0.00  0.00    +0.008 A 
ATOM     25  C   UNL     1       6.476  -0.591  23.386  0.00  0.00    +0.029 A 
BRANCH  23  26
ATOM     26  C   UNL     1       9.201   2.037  22.687  0.00  0.00    +0.183 C 
ATOM     27  C   UNL     1       8.211   3.192  22.471  0.00  0.00    +0.056 C 
BRANCH  26  28
ATOM     28  C   UNL     1      10.059   2.277  23.976  0.00  0.00    +0.422 C 
ATOM     29  F   UNL     1      10.246   1.138  24.684  0.00  0.00    -0.167 F 
ATOM     30  F   UNL     1       9.414   3.142  24.807  0.00  0.00    -0.167 F 
ATOM     31  F   UNL     1      11.281   2.804  23.738  0.00  0.00    -0.167 F 
ENDBRANCH  26  28
BRANCH  26  32
ATOM     32  O   UNL     1      10.046   2.060  21.504  0.00  0.00    -0.376 OA
ATOM     33  H   UNL     1      10.843   2.579  21.724  0.00  0.00    +0.211 HD
ENDBRANCH  26  32
ENDBRANCH  23  26
ENDBRANCH   1  20
TORSDOF 8
ENDMDL
MODEL 3
REMARK VINA RESULT:      -7.5      2.978      4.142
REMARK  Name = 
REMARK  10 active torsions:
REMARK  status: ('A' for Active; 'I' for Inactive)
REMARK    1  A    between atoms: C_2  and  C_3
REMARK    2  A    between atoms: N_5  and  C_6
REMARK    3  A    between atoms: C_6  and  C_7
REMARK    4  A    between atoms: C_7  and  C_10
REMARK    5  A    between atoms: N_15  and  S_16
REMARK    6  A    between atoms: S_16  and  C_19
REMARK    7  A    between atoms: C_22  and  C_25
REMARK    8  A    between atoms: C_25  and  C_26
REMARK    9  A    between atoms: C_25  and  O_27
REMARK   10  A    between atoms: C_25  and  C_28
REMARK                            x       y       z     vdW  Elec       q    Type
REMARK                         _______ _______ _______ _____ _____    ______ ____
ROOT
ATOM      1  S   UNL     1       8.093  -3.740  23.739  0.00  0.00    +0.061 S 
ATOM      2  O   UNL     1       7.508  -4.261  22.522  0.00  0.00    -0.153 OA
ATOM      3  O   UNL     1       9.228  -4.392  24.350  0.00  0.00    -0.153 OA
ENDROOT
BRANCH   1   5
ATOM      4  C   UNL     1       6.512  -4.766  25.748  0.00  0.00    +0.091 C 
ATOM      5  N   UNL     1       6.862  -3.546  24.924  0.00  0.00    -0.171 NA
ATOM      6  C   UNL     1       5.562  -2.975  24.430  0.00  0.00    +0.125 C 
ATOM      7  C   UNL     1       4.773  -3.991  23.583  0.00  0.00    +0.101 C 
ATOM      8  N   UNL     1       4.553  -5.276  24.276  0.00  0.00    -0.299 NA
ATOM      9  C   UNL     1       5.804  -5.817  24.868  0.00  0.00    +0.104 C 
ATOM     10  C   UNL     1       7.678  -5.344  26.535  0.00  0.00    +0.027 C 
BRANCH   8  11
ATOM     11  C   UNL     1       3.925  -6.250  23.384  0.00  0.00    +0.100 C 
BRANCH  11  12
ATOM     12  C   UNL     1       2.607  -6.767  23.940  0.00  0.00    +0.059 C 
ATOM     13  C   UNL     1       1.409  -6.766  22.992  0.00  0.00    +0.018 C 
ATOM     14  C   UNL     1       1.489  -5.742  24.080  0.00  0.00    +0.018 C 
BRANCH  12  15
ATOM     15  C   UNL     1       2.648  -7.863  24.972  0.00  0.00    +0.218 C 
ATOM     16  O   UNL     1       2.411  -9.030  24.691  0.00  0.00    -0.275 OA
ATOM     17  N   UNL     1       2.953  -7.467  26.237  0.00  0.00    -0.329 N 
ATOM     18  H   UNL     1       3.105  -8.201  26.914  0.00  0.00    +0.145 HD
ATOM     19  H   UNL     1       3.292  -6.538  26.434  0.00  0.00    +0.145 HD
ENDBRANCH  12  15
ENDBRANCH  11  12
ENDBRANCH   8  11
ENDBRANCH   1   5
BRANCH   1  20
ATOM     20  C   UNL     1       8.570  -2.061  23.411  0.00  0.00    +0.106 A 
ATOM     21  C   UNL     1       9.103  -1.702  22.169  0.00  0.00    +0.029 A 
ATOM     22  C   UNL     1       9.384  -0.360  21.909  0.00  0.00    +0.008 A 
ATOM     23  C   UNL     1       9.129   0.636  22.872  0.00  0.00    -0.008 A 
ATOM     24  C   UNL     1       8.603   0.235  24.116  0.00  0.00    +0.008 A 
ATOM     25  C   UNL     1       8.328  -1.103  24.389  0.00  0.00    +0.029 A 
BRANCH  23  26
ATOM     26  C   UNL     1       9.441   2.110  22.584  0.00  0.00    +0.183 C 
ATOM     27  C   UNL     1       8.132   2.841  22.249  0.00  0.00    +0.056 C 
BRANCH  26  28
ATOM     28  C   UNL     1      10.193   2.830  23.755  0.00  0.00    +0.422 C 
ATOM     29  F   UNL     1      10.856   3.934  23.332  0.00  0.00    -0.167 F 
ATOM     30  F   UNL     1      11.133   1.999  24.283  0.00  0.00    -0.167 F 
ATOM     31  F   UNL     1       9.393   3.213  24.775  0.00  0.00    -0.167 F 
ENDBRANCH  26  28
BRANCH  26  32
ATOM     32  O   UNL     1      10.221   2.185  21.359  0.00  0.00    -0.376 OA
ATOM     33  H   UNL     1       9.793   1.604  20.703  0.00  0.00    +0.211 HD
ENDBRANCH  26  32
ENDBRANCH  23  26
ENDBRANCH   1  20
TORSDOF 8
ENDMDL
MODEL 4
REMARK VINA RESULT:      -7.5      2.175      2.877
REMARK  Name = 
REMARK  10 active torsions:
REMARK  status: ('A' for Active; 'I' for Inactive)
REMARK    1  A    between atoms: C_2  and  C_3
REMARK    2  A    between atoms: N_5  and  C_6
REMARK    3  A    between atoms: C_6  and  C_7
REMARK    4  A    between atoms: C_7  and  C_10
REMARK    5  A    between atoms: N_15  and  S_16
REMARK    6  A    between atoms: S_16  and  C_19
REMARK    7  A    between atoms: C_22  and  C_25
REMARK    8  A    between atoms: C_25  and  C_26
REMARK    9  A    between atoms: C_25  and  O_27
REMARK   10  A    between atoms: C_25  and  C_28
REMARK                            x       y       z     vdW  Elec       q    Type
REMARK                         _______ _______ _______ _____ _____    ______ ____
ROOT
ATOM      1  S   UNL     1       9.055  -1.573  23.724  0.00  0.00    +0.061 S 
ATOM      2  O   UNL     1      10.187  -2.011  22.935  0.00  0.00    -0.153 OA
ATOM      3  O   UNL     1       8.944  -1.931  25.119  0.00  0.00    -0.153 OA
ENDROOT
BRANCH   1   5
ATOM      4  C   UNL     1       6.328  -1.968  23.742  0.00  0.00    +0.091 C 
ATOM      5  N   UNL     1       7.599  -2.015  22.922  0.00  0.00    -0.171 NA
ATOM      6  C   UNL     1       7.613  -3.348  22.227  0.00  0.00    +0.125 C 
ATOM      7  C   UNL     1       7.574  -4.518  23.229  0.00  0.00    +0.101 C 
ATOM      8  N   UNL     1       6.446  -4.431  24.177  0.00  0.00    -0.299 NA
ATOM      9  C   UNL     1       6.340  -3.089  24.804  0.00  0.00    +0.104 C 
ATOM     10  C   UNL     1       6.012  -0.602  24.329  0.00  0.00    +0.027 C 
BRANCH   8  11
ATOM     11  C   UNL     1       6.532  -5.483  25.189  0.00  0.00    +0.100 C 
BRANCH  11  12
ATOM     12  C   UNL     1       5.174  -6.100  25.489  0.00  0.00    +0.059 C 
ATOM     13  C   UNL     1       4.261  -5.331  26.443  0.00  0.00    +0.018 C 
ATOM     14  C   UNL     1       4.952  -6.569  26.921  0.00  0.00    +0.018 C 
BRANCH  12  15
ATOM     15  C   UNL     1       4.497  -6.899  24.407  0.00  0.00    +0.218 C 
ATOM     16  O   UNL     1       3.859  -7.914  24.652  0.00  0.00    -0.275 OA
ATOM     17  N   UNL     1       4.652  -6.424  23.142  0.00  0.00    -0.329 N 
ATOM     18  H   UNL     1       4.106  -6.875  22.422  0.00  0.00    +0.145 HD
ATOM     19  H   UNL     1       5.046  -5.513  22.962  0.00  0.00    +0.145 HD
ENDBRANCH  12  15
ENDBRANCH  11  12
ENDBRANCH   8  11
ENDBRANCH   1   5
BRANCH   1  20
ATOM     20  C   UNL     1       9.012   0.201  23.635  0.00  0.00    +0.106 A 
ATOM     21  C   UNL     1       8.865   0.848  22.405  0.00  0.00    +0.029 A 
ATOM     22  C   UNL     1       8.744   2.238  22.376  0.00  0.00    +0.008 A 
ATOM     23  C   UNL     1       8.760   2.995  23.564  0.00  0.00    -0.008 A 
ATOM     24  C   UNL     1       8.923   2.308  24.784  0.00  0.00    +0.008 A 
ATOM     25  C   UNL     1       9.053   0.922  24.823  0.00  0.00    +0.029 A 
BRANCH  23  26
ATOM     26  C   UNL     1       8.630   4.522  23.529  0.00  0.00    +0.183 C 
ATOM     27  C   UNL     1       7.551   4.955  24.534  0.00  0.00    +0.056 C 
BRANCH  26  28
ATOM     28  C   UNL     1       9.978   5.271  23.807  0.00  0.00    +0.422 C 
ATOM     29  F   UNL     1      10.083   5.669  25.098  0.00  0.00    -0.167 F 
ATOM     30  F   UNL     1      10.043   6.403  23.052  0.00  0.00    -0.167 F 
ATOM     31  F   UNL     1      11.083   4.548  23.521  0.00  0.00    -0.167 F 
ENDBRANCH  26  28
BRANCH  26  32
ATOM     32  O   UNL     1       8.093   4.910  22.234  0.00  0.00    -0.376 OA
ATOM     33  H   UNL     1       7.129   4.764  22.262  0.00  0.00    +0.211 HD
ENDBRANCH  26  32
ENDBRANCH  23  26
ENDBRANCH   1  20
TORSDOF 8
ENDMDL
MODEL 5
REMARK VINA RESULT:      -7.3      1.856      2.412
REMARK  Name = 
REMARK  10 active torsions:
REMARK  status: ('A' for Active; 'I' for Inactive)
REMARK    1  A    between atoms: C_2  and  C_3
REMARK    2  A    between atoms: N_5  and  C_6
REMARK    3  A    between atoms: C_6  and  C_7
REMARK    4  A    between atoms: C_7  and  C_10
REMARK    5  A    between atoms: N_15  and  S_16
REMARK    6  A    between atoms: S_16  and  C_19
REMARK    7  A    between atoms: C_22  and  C_25
REMARK    8  A    between atoms: C_25  and  C_26
REMARK    9  A    between atoms: C_25  and  O_27
REMARK   10  A    between atoms: C_25  and  C_28
REMARK                            x       y       z     vdW  Elec       q    Type
REMARK                         _______ _______ _______ _____ _____    ______ ____
ROOT
ATOM      1  S   UNL     1       9.049  -1.328  23.314  0.00  0.00    +0.061 S 
ATOM      2  O   UNL     1       9.963  -1.703  22.256  0.00  0.00    -0.153 OA
ATOM      3  O   UNL     1       9.289  -1.740  24.677  0.00  0.00    -0.153 OA
ENDROOT
BRANCH   1   5
ATOM      4  C   UNL     1       6.416  -1.798  23.975  0.00  0.00    +0.091 C 
ATOM      5  N   UNL     1       7.451  -1.784  22.871  0.00  0.00    -0.171 NA
ATOM      6  C   UNL     1       7.321  -3.095  22.145  0.00  0.00    +0.125 C 
ATOM      7  C   UNL     1       7.548  -4.295  23.084  0.00  0.00    +0.101 C 
ATOM      8  N   UNL     1       6.681  -4.268  24.279  0.00  0.00    -0.299 NA
ATOM      9  C   UNL     1       6.705  -2.949  24.961  0.00  0.00    +0.104 C 
ATOM     10  C   UNL     1       6.225  -0.459  24.669  0.00  0.00    +0.027 C 
BRANCH   8  11
ATOM     11  C   UNL     1       7.029  -5.348  25.201  0.00  0.00    +0.100 C 
BRANCH  11  12
ATOM     12  C   UNL     1       5.923  -5.616  26.211  0.00  0.00    +0.059 C 
ATOM     13  C   UNL     1       4.933  -6.728  25.871  0.00  0.00    +0.018 C 
ATOM     14  C   UNL     1       4.505  -5.300  25.752  0.00  0.00    +0.018 C 
BRANCH  12  15
ATOM     15  C   UNL     1       6.220  -5.402  27.672  0.00  0.00    +0.218 C 
ATOM     16  O   UNL     1       7.111  -6.010  28.249  0.00  0.00    -0.275 OA
ATOM     17  N   UNL     1       5.426  -4.498  28.306  0.00  0.00    -0.329 N 
ATOM     18  H   UNL     1       5.689  -4.252  29.249  0.00  0.00    +0.145 HD
ATOM     19  H   UNL     1       4.799  -3.894  27.797  0.00  0.00    +0.145 HD
ENDBRANCH  12  15
ENDBRANCH  11  12
ENDBRANCH   8  11
ENDBRANCH   1   5
BRANCH   1  20
ATOM     20  C   UNL     1       8.950   0.445  23.313  0.00  0.00    +0.106 A 
ATOM     21  C   UNL     1       8.542   1.135  22.168  0.00  0.00    +0.029 A 
ATOM     22  C   UNL     1       8.387   2.521  22.225  0.00  0.00    +0.008 A 
ATOM     23  C   UNL     1       8.626   3.231  23.418  0.00  0.00    -0.008 A 
ATOM     24  C   UNL     1       9.048   2.503  24.548  0.00  0.00    +0.008 A 
ATOM     25  C   UNL     1       9.214   1.121  24.500  0.00  0.00    +0.029 A 
BRANCH  23  26
ATOM     26  C   UNL     1       8.458   4.754  23.477  0.00  0.00    +0.183 C 
ATOM     27  C   UNL     1       7.353   5.095  24.489  0.00  0.00    +0.056 C 
BRANCH  26  28
ATOM     28  C   UNL     1       9.782   5.517  23.824  0.00  0.00    +0.422 C 
ATOM     29  F   UNL     1      10.884   4.809  23.477  0.00  0.00    -0.167 F 
ATOM     30  F   UNL     1       9.862   5.715  25.168  0.00  0.00    -0.167 F 
ATOM     31  F   UNL     1       9.889   6.733  23.243  0.00  0.00    -0.167 F 
ENDBRANCH  26  28
BRANCH  26  32
ATOM     32  O   UNL     1       7.931   5.209  22.200  0.00  0.00    -0.376 OA
ATOM     33  H   UNL     1       6.958   5.226  22.274  0.00  0.00    +0.211 HD
ENDBRANCH  26  32
ENDBRANCH  23  26
ENDBRANCH   1  20
TORSDOF 8
ENDMDL
MODEL 6
REMARK VINA RESULT:      -7.0      2.519      3.114
REMARK  Name = 
REMARK  10 active torsions:
REMARK  status: ('A' for Active; 'I' for Inactive)
REMARK    1  A    between atoms: C_2  and  C_3
REMARK    2  A    between atoms: N_5  and  C_6
REMARK    3  A    between atoms: C_6  and  C_7
REMARK    4  A    between atoms: C_7  and  C_10
REMARK    5  A    between atoms: N_15  and  S_16
REMARK    6  A    between atoms: S_16  and  C_19
REMARK    7  A    between atoms: C_22  and  C_25
REMARK    8  A    between atoms: C_25  and  C_26
REMARK    9  A    between atoms: C_25  and  O_27
REMARK   10  A    between atoms: C_25  and  C_28
REMARK                            x       y       z     vdW  Elec       q    Type
REMARK                         _______ _______ _______ _____ _____    ______ ____
ROOT
ATOM      1  S   UNL     1       9.138  -2.358  23.540  0.00  0.00    +0.061 S 
ATOM      2  O   UNL     1       8.111  -2.879  22.662  0.00  0.00    -0.153 OA
ATOM      3  O   UNL     1      10.528  -2.687  23.326  0.00  0.00    -0.153 OA
ENDROOT
BRANCH   1   5
ATOM      4  C   UNL     1       8.601  -4.184  25.531  0.00  0.00    +0.091 C 
ATOM      5  N   UNL     1       8.727  -2.720  25.170  0.00  0.00    -0.171 NA
ATOM      6  C   UNL     1       7.497  -2.039  25.702  0.00  0.00    +0.125 C 
ATOM      7  C   UNL     1       6.208  -2.634  25.105  0.00  0.00    +0.101 C 
ATOM      8  N   UNL     1       6.113  -4.097  25.273  0.00  0.00    -0.299 NA
ATOM      9  C   UNL     1       7.356  -4.794  24.853  0.00  0.00    +0.104 C 
ATOM     10  C   UNL     1       9.862  -4.998  25.291  0.00  0.00    +0.027 C 
BRANCH   8  11
ATOM     11  C   UNL     1       4.945  -4.629  24.571  0.00  0.00    +0.100 C 
BRANCH  11  12
ATOM     12  C   UNL     1       4.041  -5.434  25.494  0.00  0.00    +0.059 C 
ATOM     13  C   UNL     1       2.572  -5.021  25.553  0.00  0.00    +0.018 C 
ATOM     14  C   UNL     1       3.477  -4.690  26.697  0.00  0.00    +0.018 C 
BRANCH  12  15
ATOM     15  C   UNL     1       4.338  -6.898  25.687  0.00  0.00    +0.218 C 
ATOM     16  O   UNL     1       4.024  -7.739  24.857  0.00  0.00    -0.275 OA
ATOM     17  N   UNL     1       4.967  -7.220  26.849  0.00  0.00    -0.329 N 
ATOM     18  H   UNL     1       5.283  -8.175  26.940  0.00  0.00    +0.145 HD
ATOM     19  H   UNL     1       5.356  -6.514  27.455  0.00  0.00    +0.145 HD
ENDBRANCH  12  15
ENDBRANCH  11  12
ENDBRANCH   8  11
ENDBRANCH   1   5
BRANCH   1  20
ATOM     20  C   UNL     1       9.007  -0.587  23.501  0.00  0.00    +0.106 A 
ATOM     21  C   UNL     1       7.900   0.032  22.915  0.00  0.00    +0.029 A 
ATOM     22  C   UNL     1       7.782   1.421  22.980  0.00  0.00    +0.008 A 
ATOM     23  C   UNL     1       8.753   2.205  23.633  0.00  0.00    -0.008 A 
ATOM     24  C   UNL     1       9.861   1.546  24.202  0.00  0.00    +0.008 A 
ATOM     25  C   UNL     1       9.994   0.161  24.135  0.00  0.00    +0.029 A 
BRANCH  23  26
ATOM     26  C   UNL     1       8.622   3.730  23.700  0.00  0.00    +0.183 C 
ATOM     27  C   UNL     1       7.645   4.196  22.609  0.00  0.00    +0.056 C 
BRANCH  26  28
ATOM     28  C   UNL     1       8.174   4.260  25.105  0.00  0.00    +0.422 C 
ATOM     29  F   UNL     1       7.939   3.251  25.979  0.00  0.00    -0.167 F 
ATOM     30  F   UNL     1       7.004   4.946  24.990  0.00  0.00    -0.167 F 
ATOM     31  F   UNL     1       9.060   5.095  25.691  0.00  0.00    -0.167 F 
ENDBRANCH  26  28
BRANCH  26  32
ATOM     32  O   UNL     1       9.895   4.320  23.320  0.00  0.00    -0.376 OA
ATOM     33  H   UNL     1      10.600   3.722  23.632  0.00  0.00    +0.211 HD
ENDBRANCH  26  32
ENDBRANCH  23  26
ENDBRANCH   1  20
TORSDOF 8
ENDMDL
MODEL 7
REMARK VINA RESULT:      -7.0      4.830      9.519
REMARK  Name = 
REMARK  10 active torsions:
REMARK  status: ('A' for Active; 'I' for Inactive)
REMARK    1  A    between atoms: C_2  and  C_3
REMARK    2  A    between atoms: N_5  and  C_6
REMARK    3  A    between atoms: C_6  and  C_7
REMARK    4  A    between atoms: C_7  and  C_10
REMARK    5  A    between atoms: N_15  and  S_16
REMARK    6  A    between atoms: S_16  and  C_19
REMARK    7  A    between atoms: C_22  and  C_25
REMARK    8  A    between atoms: C_25  and  C_26
REMARK    9  A    between atoms: C_25  and  O_27
REMARK   10  A    between atoms: C_25  and  C_28
REMARK                            x       y       z     vdW  Elec       q    Type
REMARK                         _______ _______ _______ _____ _____    ______ ____
ROOT
ATOM      1  S   UNL     1       9.124  -1.324  23.093  0.00  0.00    +0.061 S 
ATOM      2  O   UNL     1      10.429  -1.929  22.933  0.00  0.00    -0.153 OA
ATOM      3  O   UNL     1       8.571  -0.480  22.060  0.00  0.00    -0.153 OA
ENDROOT
BRANCH   1   5
ATOM      4  C   UNL     1       7.931   0.502  24.777  0.00  0.00    +0.091 C 
ATOM      5  N   UNL     1       9.070  -0.476  24.588  0.00  0.00    -0.171 NA
ATOM      6  C   UNL     1      10.328   0.251  24.974  0.00  0.00    +0.125 C 
ATOM      7  C   UNL     1      10.550   1.510  24.115  0.00  0.00    +0.101 C 
ATOM      8  N   UNL     1       9.392   2.425  24.119  0.00  0.00    -0.299 NA
ATOM      9  C   UNL     1       8.115   1.718  23.844  0.00  0.00    +0.104 C 
ATOM     10  C   UNL     1       6.549  -0.121  24.670  0.00  0.00    +0.027 C 
BRANCH   8  11
ATOM     11  C   UNL     1       9.597   3.531  23.184  0.00  0.00    +0.100 C 
BRANCH  11  12
ATOM     12  C   UNL     1       8.889   4.800  23.636  0.00  0.00    +0.059 C 
ATOM     13  C   UNL     1       9.769   6.015  23.925  0.00  0.00    +0.018 C 
ATOM     14  C   UNL     1       9.169   5.252  25.063  0.00  0.00    +0.018 C 
BRANCH  12  15
ATOM     15  C   UNL     1       7.510   5.079  23.100  0.00  0.00    +0.218 C 
ATOM     16  O   UNL     1       6.521   5.078  23.820  0.00  0.00    -0.275 OA
ATOM     17  N   UNL     1       7.437   5.320  21.763  0.00  0.00    -0.329 N 
ATOM     18  H   UNL     1       6.543   5.629  21.410  0.00  0.00    +0.145 HD
ATOM     19  H   UNL     1       8.264   5.468  21.206  0.00  0.00    +0.145 HD
ENDBRANCH  12  15
ENDBRANCH  11  12
ENDBRANCH   8  11
ENDBRANCH   1   5
BRANCH   1  20
ATOM     20  C   UNL     1       7.967  -2.644  23.365  0.00  0.00    +0.106 A 
ATOM     21  C   UNL     1       7.976  -3.363  24.563  0.00  0.00    +0.029 A 
ATOM     22  C   UNL     1       6.997  -4.333  24.785  0.00  0.00    +0.008 A 
ATOM     23  C   UNL     1       5.999  -4.592  23.825  0.00  0.00    -0.008 A 
ATOM     24  C   UNL     1       6.030  -3.856  22.624  0.00  0.00    +0.008 A 
ATOM     25  C   UNL     1       7.007  -2.891  22.389  0.00  0.00    +0.029 A 
BRANCH  23  26
ATOM     26  C   UNL     1       4.928  -5.660  24.070  0.00  0.00    +0.183 C 
ATOM     27  C   UNL     1       5.215  -6.358  25.409  0.00  0.00    +0.056 C 
BRANCH  26  28
ATOM     28  C   UNL     1       3.465  -5.099  24.041  0.00  0.00    +0.422 C 
ATOM     29  F   UNL     1       3.403  -3.816  24.471  0.00  0.00    -0.167 F 
ATOM     30  F   UNL     1       2.675  -5.822  24.881  0.00  0.00    -0.167 F 
ATOM     31  F   UNL     1       2.880  -5.141  22.823  0.00  0.00    -0.167 F 
ENDBRANCH  26  28
BRANCH  26  32
ATOM     32  O   UNL     1       5.087  -6.709  23.075  0.00  0.00    -0.376 OA
ATOM     33  H   UNL     1       5.995  -7.058  23.160  0.00  0.00    +0.211 HD
ENDBRANCH  26  32
ENDBRANCH  23  26
ENDBRANCH   1  20
TORSDOF 8
ENDMDL
MODEL 8
REMARK VINA RESULT:      -6.9      2.480      3.076
REMARK  Name = 
REMARK  10 active torsions:
REMARK  status: ('A' for Active; 'I' for Inactive)
REMARK    1  A    between atoms: C_2  and  C_3
REMARK    2  A    between atoms: N_5  and  C_6
REMARK    3  A    between atoms: C_6  and  C_7
REMARK    4  A    between atoms: C_7  and  C_10
REMARK    5  A    between atoms: N_15  and  S_16
REMARK    6  A    between atoms: S_16  and  C_19
REMARK    7  A    between atoms: C_22  and  C_25
REMARK    8  A    between atoms: C_25  and  C_26
REMARK    9  A    between atoms: C_25  and  O_27
REMARK   10  A    between atoms: C_25  and  C_28
REMARK                            x       y       z     vdW  Elec       q    Type
REMARK                         _______ _______ _______ _____ _____    ______ ____
ROOT
ATOM      1  S   UNL     1       9.024  -2.545  23.924  0.00  0.00    +0.061 S 
ATOM      2  O   UNL     1       7.974  -3.090  23.090  0.00  0.00    -0.153 OA
ATOM      3  O   UNL     1      10.412  -2.827  23.642  0.00  0.00    -0.153 OA
ENDROOT
BRANCH   1   5
ATOM      4  C   UNL     1       8.658  -4.405  25.923  0.00  0.00    +0.091 C 
ATOM      5  N   UNL     1       8.703  -2.935  25.568  0.00  0.00    -0.171 NA
ATOM      6  C   UNL     1       7.469  -2.312  26.159  0.00  0.00    +0.125 C 
ATOM      7  C   UNL     1       6.181  -2.960  25.614  0.00  0.00    +0.101 C 
ATOM      8  N   UNL     1       6.159  -4.427  25.775  0.00  0.00    -0.299 NA
ATOM      9  C   UNL     1       7.412  -5.065  25.295  0.00  0.00    +0.104 C 
ATOM     10  C   UNL     1       9.942  -5.160  25.621  0.00  0.00    +0.027 C 
BRANCH   8  11
ATOM     11  C   UNL     1       4.986  -5.007  25.121  0.00  0.00    +0.100 C 
BRANCH  11  12
ATOM     12  C   UNL     1       4.310  -6.059  25.987  0.00  0.00    +0.059 C 
ATOM     13  C   UNL     1       3.798  -7.312  25.279  0.00  0.00    +0.018 C 
ATOM     14  C   UNL     1       2.822  -6.276  25.742  0.00  0.00    +0.018 C 
BRANCH  12  15
ATOM     15  C   UNL     1       4.790  -6.236  27.404  0.00  0.00    +0.218 C 
ATOM     16  O   UNL     1       5.536  -7.150  27.728  0.00  0.00    -0.275 OA
ATOM     17  N   UNL     1       4.330  -5.319  28.298  0.00  0.00    -0.329 N 
ATOM     18  H   UNL     1       4.737  -5.348  29.222  0.00  0.00    +0.145 HD
ATOM     19  H   UNL     1       3.843  -4.488  28.001  0.00  0.00    +0.145 HD
ENDBRANCH  12  15
ENDBRANCH  11  12
ENDBRANCH   8  11
ENDBRANCH   1   5
BRANCH   1  20
ATOM     20  C   UNL     1       8.836  -0.779  23.911  0.00  0.00    +0.106 A 
ATOM     21  C   UNL     1       9.787   0.043  24.522  0.00  0.00    +0.029 A 
ATOM     22  C   UNL     1       9.660   1.429  24.417  0.00  0.00    +0.008 A 
ATOM     23  C   UNL     1       8.597   2.010  23.699  0.00  0.00    -0.008 A 
ATOM     24  C   UNL     1       7.651   1.150  23.106  0.00  0.00    +0.008 A 
ATOM     25  C   UNL     1       7.764  -0.235  23.212  0.00  0.00    +0.029 A 
BRANCH  23  26
ATOM     26  C   UNL     1       8.459   3.532  23.587  0.00  0.00    +0.183 C 
ATOM     27  C   UNL     1       7.502   3.864  22.431  0.00  0.00    +0.056 C 
BRANCH  26  28
ATOM     28  C   UNL     1       7.981   4.216  24.914  0.00  0.00    +0.422 C 
ATOM     29  F   UNL     1       7.427   3.328  25.774  0.00  0.00    -0.167 F 
ATOM     30  F   UNL     1       7.015   5.135  24.639  0.00  0.00    -0.167 F 
ATOM     31  F   UNL     1       8.957   4.866  25.585  0.00  0.00    -0.167 F 
ENDBRANCH  26  28
BRANCH  26  32
ATOM     32  O   UNL     1       9.737   4.082  23.167  0.00  0.00    -0.376 OA
ATOM     33  H   UNL     1      10.249   3.357  22.761  0.00  0.00    +0.211 HD
ENDBRANCH  26  32
ENDBRANCH  23  26
ENDBRANCH   1  20
TORSDOF 8
ENDMDL
MODEL 9
REMARK VINA RESULT:      -6.9      4.739      9.661
REMARK  Name = 
REMARK  10 active torsions:
REMARK  status: ('A' for Active; 'I' for Inactive)
REMARK    1  A    between atoms: C_2  and  C_3
REMARK    2  A    between atoms: N_5  and  C_6
REMARK    3  A    between atoms: C_6  and  C_7
REMARK    4  A    between atoms: C_7  and  C_10
REMARK    5  A    between atoms: N_15  and  S_16
REMARK    6  A    between atoms: S_16  and  C_19
REMARK    7  A    between atoms: C_22  and  C_25
REMARK    8  A    between atoms: C_25  and  C_26
REMARK    9  A    between atoms: C_25  and  O_27
REMARK   10  A    between atoms: C_25  and  C_28
REMARK                            x       y       z     vdW  Elec       q    Type
REMARK                         _______ _______ _______ _____ _____    ______ ____
ROOT
ATOM      1  S   UNL     1       8.763  -0.512  23.052  0.00  0.00    +0.061 S 
ATOM      2  O   UNL     1       9.886  -0.996  22.278  0.00  0.00    -0.153 OA
ATOM      3  O   UNL     1       7.789   0.377  22.463  0.00  0.00    -0.153 OA
ENDROOT
BRANCH   1   5
ATOM      4  C   UNL     1       8.407   1.145  25.224  0.00  0.00    +0.091 C 
ATOM      5  N   UNL     1       9.340   0.189  24.513  0.00  0.00    -0.171 NA
ATOM      6  C   UNL     1      10.675   0.875  24.427  0.00  0.00    +0.125 C 
ATOM      7  C   UNL     1      10.586   2.211  23.664  0.00  0.00    +0.101 C 
ATOM      8  N   UNL     1       9.560   3.122  24.209  0.00  0.00    -0.299 NA
ATOM      9  C   UNL     1       8.253   2.445  24.405  0.00  0.00    +0.104 C 
ATOM     10  C   UNL     1       7.073   0.537  25.623  0.00  0.00    +0.027 C 
BRANCH   8  11
ATOM     11  C   UNL     1       9.420   4.312  23.371  0.00  0.00    +0.100 C 
BRANCH  11  12
ATOM     12  C   UNL     1      10.103   5.526  23.982  0.00  0.00    +0.059 C 
ATOM     13  C   UNL     1       9.565   6.018  25.325  0.00  0.00    +0.018 C 
ATOM     14  C   UNL     1       9.259   6.791  24.081  0.00  0.00    +0.018 C 
BRANCH  12  15
ATOM     15  C   UNL     1      11.576   5.718  23.736  0.00  0.00    +0.218 C 
ATOM     16  O   UNL     1      12.312   6.228  24.569  0.00  0.00    -0.275 OA
ATOM     17  N   UNL     1      12.028   5.298  22.524  0.00  0.00    -0.329 N 
ATOM     18  H   UNL     1      13.029   5.305  22.390  0.00  0.00    +0.145 HD
ATOM     19  H   UNL     1      11.453   4.746  21.906  0.00  0.00    +0.145 HD
ENDBRANCH  12  15
ENDBRANCH  11  12
ENDBRANCH   8  11
ENDBRANCH   1   5
BRANCH   1  20
ATOM     20  C   UNL     1       7.881  -1.938  23.639  0.00  0.00    +0.106 A 
ATOM     21  C   UNL     1       8.497  -2.851  24.499  0.00  0.00    +0.029 A 
ATOM     22  C   UNL     1       7.752  -3.912  25.015  0.00  0.00    +0.008 A 
ATOM     23  C   UNL     1       6.391  -4.070  24.691  0.00  0.00    -0.008 A 
ATOM     24  C   UNL     1       5.807  -3.137  23.811  0.00  0.00    +0.008 A 
ATOM     25  C   UNL     1       6.544  -2.079  23.283  0.00  0.00    +0.029 A 
BRANCH  23  26
ATOM     26  C   UNL     1       5.575  -5.239  25.257  0.00  0.00    +0.183 C 
ATOM     27  C   UNL     1       4.464  -4.680  26.161  0.00  0.00    +0.056 C 
BRANCH  26  28
ATOM     28  C   UNL     1       4.972  -6.174  24.154  0.00  0.00    +0.422 C 
ATOM     29  F   UNL     1       4.675  -7.405  24.636  0.00  0.00    -0.167 F 
ATOM     30  F   UNL     1       5.883  -6.363  23.159  0.00  0.00    -0.167 F 
ATOM     31  F   UNL     1       3.852  -5.693  23.570  0.00  0.00    -0.167 F 
ENDBRANCH  26  28
BRANCH  26  32
ATOM     32  O   UNL     1       6.425  -6.000  26.158  0.00  0.00    -0.376 OA
ATOM     33  H   UNL     1       6.506  -6.901  25.792  0.00  0.00    +0.211 HD
ENDBRANCH  26  32
ENDBRANCH  23  26
ENDBRANCH   1  20
TORSDOF 8
ENDMDL
