MODEL 1
REMARK VINA RESULT:      -6.5      0.000      0.000
REMARK  Name = 
REMARK  17 active torsions:
REMARK  status: ('A' for Active; 'I' for Inactive)
REMARK    1  A    between atoms: N_1  and  CA_2
REMARK    2  A    between atoms: CA_2  and  C_4
REMARK    3  A    between atoms: CA_2  and  C_7
REMARK    4  A    between atoms: C_4  and  O_5
REMARK    5  A    between atoms: C_10  and  O_11
REMARK    6  A    between atoms: O_11  and  C_12
REMARK    7  A    between atoms: C_15  and  C_17
REMARK    8  A    between atoms: C_17  and  O_18
REMARK    9  A    between atoms: C_19  and  O_21
REMARK   10  A    between atoms: C_22  and  O_24
REMARK   11  A    between atoms: C_25  and  O_27
REMARK   12  A    between atoms: O_27  and  C_28
REMARK   13  A    between atoms: C_31  and  C_33
REMARK   14  A    between atoms: C_33  and  O_34
REMARK   15  A    between atoms: C_35  and  O_37
REMARK   16  A    between atoms: C_38  and  O_40
REMARK   17  A    between atoms: C_41  and  O_43
REMARK                            x       y       z     vdW  Elec       q    Type
REMARK                         _______ _______ _______ _____ _____    ______ ____
ROOT
ATOM      1  C   UNL     1       8.416  -2.933  23.627  0.00  0.00    +0.340 C 
ATOM      2  C   UNL     1       7.102  -2.521  24.353  0.00  0.00    +0.221 C 
ATOM      3  C   UNL     1       6.598  -3.583  25.348  0.00  0.00    +0.180 C 
ATOM      4  C   UNL     1       6.752  -4.986  24.748  0.00  0.00    +0.177 C 
ATOM      5  C   UNL     1       8.211  -5.248  24.343  0.00  0.00    +0.179 C 
ATOM      6  O   UNL     1       8.591  -4.319  23.324  0.00  0.00    -0.331 OA
ENDROOT
BRANCH   4   7
ATOM      7  O   UNL     1       5.907  -5.069  23.587  0.00  0.00    -0.386 OA
ATOM      8  H   UNL     1       4.986  -5.188  23.884  0.00  0.00    +0.210 HD
ENDBRANCH   4   7
BRANCH   3   9
ATOM      9  O   UNL     1       7.243  -3.515  26.619  0.00  0.00    -0.386 OA
ATOM     10  H   UNL     1       7.555  -2.603  26.746  0.00  0.00    +0.210 HD
ENDBRANCH   3   9
BRANCH   5  11
ATOM     11  C   UNL     1       9.190  -5.331  25.533  0.00  0.00    +0.190 C 
BRANCH  11  12
ATOM     12  O   UNL     1      10.558  -5.260  25.135  0.00  0.00    -0.392 OA
ATOM     13  H   UNL     1      10.824  -6.115  24.754  0.00  0.00    +0.210 HD
ENDBRANCH  11  12
ENDBRANCH   5  11
BRANCH   2  14
ATOM     14  O   UNL     1       7.116  -1.195  24.950  0.00  0.00    -0.337 OA
BRANCH  14  15
ATOM     15  C   UNL     1       6.120  -0.316  24.384  0.00  0.00    +0.282 C 
ATOM     16  C   UNL     1       6.683   1.078  23.978  0.00  0.00    +0.201 C 
ATOM     17  C   UNL     1       6.389   2.213  24.965  0.00  0.00    +0.179 C 
ATOM     18  C   UNL     1       5.013   2.037  25.620  0.00  0.00    +0.177 C 
ATOM     19  C   UNL     1       4.902   0.644  26.249  0.00  0.00    +0.178 C 
ATOM     20  O   UNL     1       4.938  -0.318  25.186  0.00  0.00    -0.341 OA
BRANCH  18  21
ATOM     21  O   UNL     1       4.016   2.192  24.591  0.00  0.00    -0.386 OA
ATOM     22  H   UNL     1       3.407   2.904  24.876  0.00  0.00    +0.210 HD
ENDBRANCH  18  21
BRANCH  17  23
ATOM     23  O   UNL     1       7.391   2.339  25.967  0.00  0.00    -0.386 OA
ATOM     24  H   UNL     1       7.203   3.137  26.493  0.00  0.00    +0.210 HD
ENDBRANCH  17  23
BRANCH  16  25
ATOM     25  O   UNL     1       6.147   1.460  22.688  0.00  0.00    -0.384 OA
ATOM     26  H   UNL     1       5.375   2.038  22.851  0.00  0.00    +0.210 HD
ENDBRANCH  16  25
BRANCH  19  27
ATOM     27  C   UNL     1       5.911   0.372  27.379  0.00  0.00    +0.190 C 
BRANCH  27  28
ATOM     28  O   UNL     1       5.929  -1.025  27.708  0.00  0.00    -0.392 OA
ATOM     29  H   UNL     1       6.371  -1.099  28.567  0.00  0.00    +0.210 HD
ENDBRANCH  27  28
ENDBRANCH  19  27
ENDBRANCH  14  15
ENDBRANCH   2  14
BRANCH   1  30
ATOM     30  O   UNL     1       9.579  -2.378  24.250  0.00  0.00    -0.461 OA
BRANCH  30  34
ATOM     31  C   UNL     1      10.131   1.637  23.155  0.00  0.00    -0.020 A 
ATOM     32  C   UNL     1       9.843   0.633  22.218  0.00  0.00    +0.009 A 
ATOM     33  C   UNL     1       9.691  -0.701  22.618  0.00  0.00    +0.046 A 
ATOM     34  C   UNL     1       9.835  -1.057  23.958  0.00  0.00    +0.124 A 
ATOM     35  C   UNL     1      10.219  -0.074  24.873  0.00  0.00    +0.046 A 
ATOM     36  C   UNL     1      10.353   1.257  24.482  0.00  0.00    +0.009 A 
BRANCH  31  37
ATOM     37  CA  UNL     1      10.232   3.108  22.790  0.00  0.00    +0.191 C 
BRANCH  37  38
ATOM     38  N   UNL     1      11.499   3.699  23.281  0.00  0.00    -0.315 NA
ATOM     39  H1  UNL     1      12.185   2.940  23.331  0.00  0.00    +0.119 HD
ATOM     40  H2  UNL     1      11.874   4.308  22.554  0.00  0.00    +0.119 HD
ENDBRANCH  37  38
BRANCH  37  41
ATOM     41  C   UNL     1       9.029   3.963  23.229  0.00  0.00    +0.326 C 
ATOM     42  OXT UNL     1       9.002   4.580  24.288  0.00  0.00    -0.249 OA
BRANCH  41  43
ATOM     43  O   UNL     1       8.019   4.068  22.333  0.00  0.00    -0.479 OA
ATOM     44  H   UNL     1       7.125   4.107  22.723  0.00  0.00    +0.295 HD
ENDBRANCH  41  43
ENDBRANCH  37  41
ENDBRANCH  31  37
ENDBRANCH  30  34
ENDBRANCH   1  30
TORSDOF 17
ENDMDL
MODEL 2
REMARK VINA RESULT:      -6.3      2.751      5.520
REMARK  Name = 
REMARK  17 active torsions:
REMARK  status: ('A' for Active; 'I' for Inactive)
REMARK    1  A    between atoms: N_1  and  CA_2
REMARK    2  A    between atoms: CA_2  and  C_4
REMARK    3  A    between atoms: CA_2  and  C_7
REMARK    4  A    between atoms: C_4  and  O_5
REMARK    5  A    between atoms: C_10  and  O_11
REMARK    6  A    between atoms: O_11  and  C_12
REMARK    7  A    between atoms: C_15  and  C_17
REMARK    8  A    between atoms: C_17  and  O_18
REMARK    9  A    between atoms: C_19  and  O_21
REMARK   10  A    between atoms: C_22  and  O_24
REMARK   11  A    between atoms: C_25  and  O_27
REMARK   12  A    between atoms: O_27  and  C_28
REMARK   13  A    between atoms: C_31  and  C_33
REMARK   14  A    between atoms: C_33  and  O_34
REMARK   15  A    between atoms: C_35  and  O_37
REMARK   16  A    between atoms: C_38  and  O_40
REMARK   17  A    between atoms: C_41  and  O_43
REMARK                            x       y       z     vdW  Elec       q    Type
REMARK                         _______ _______ _______ _____ _____    ______ ____
ROOT
ATOM      1  C   UNL     1       6.370  -4.247  26.993  0.00  0.00    +0.340 C 
ATOM      2  C   UNL     1       5.333  -4.885  26.023  0.00  0.00    +0.221 C 
ATOM      3  C   UNL     1       4.061  -5.385  26.735  0.00  0.00    +0.180 C 
ATOM      4  C   UNL     1       4.430  -6.078  28.052  0.00  0.00    +0.177 C 
ATOM      5  C   UNL     1       5.243  -5.137  28.956  0.00  0.00    +0.179 C 
ATOM      6  O   UNL     1       6.473  -4.805  28.304  0.00  0.00    -0.331 OA
ENDROOT
BRANCH   4   7
ATOM      7  O   UNL     1       5.215  -7.242  27.739  0.00  0.00    -0.386 OA
ATOM      8  H   UNL     1       5.574  -7.605  28.569  0.00  0.00    +0.210 HD
ENDBRANCH   4   7
BRANCH   3   9
ATOM      9  O   UNL     1       3.105  -4.351  26.972  0.00  0.00    -0.386 OA
ATOM     10  H   UNL     1       2.444  -4.391  26.261  0.00  0.00    +0.210 HD
ENDBRANCH   3   9
BRANCH   5  11
ATOM     11  C   UNL     1       4.447  -3.923  29.478  0.00  0.00    +0.190 C 
BRANCH  11  12
ATOM     12  O   UNL     1       3.151  -4.273  29.962  0.00  0.00    -0.392 OA
ATOM     13  H   UNL     1       2.728  -4.881  29.330  0.00  0.00    +0.210 HD
ENDBRANCH  11  12
ENDBRANCH   5  11
BRANCH   2  14
ATOM     14  O   UNL     1       5.009  -4.087  24.852  0.00  0.00    -0.337 OA
BRANCH  14  15
ATOM     15  C   UNL     1       4.845  -4.884  23.660  0.00  0.00    +0.282 C 
ATOM     16  C   UNL     1       5.895  -6.029  23.532  0.00  0.00    +0.201 C 
ATOM     17  C   UNL     1       7.054  -5.747  22.571  0.00  0.00    +0.179 C 
ATOM     18  C   UNL     1       6.590  -4.916  21.369  0.00  0.00    +0.177 C 
ATOM     19  C   UNL     1       5.879  -3.645  21.849  0.00  0.00    +0.178 C 
ATOM     20  O   UNL     1       4.674  -4.046  22.515  0.00  0.00    -0.341 OA
BRANCH  18  21
ATOM     21  O   UNL     1       5.680  -5.727  20.601  0.00  0.00    -0.386 OA
ATOM     22  H   UNL     1       4.867  -5.842  21.135  0.00  0.00    +0.210 HD
ENDBRANCH  18  21
BRANCH  17  23
ATOM     23  O   UNL     1       8.150  -5.105  23.211  0.00  0.00    -0.386 OA
ATOM     24  H   UNL     1       7.862  -4.809  24.093  0.00  0.00    +0.210 HD
ENDBRANCH  17  23
BRANCH  16  25
ATOM     25  O   UNL     1       5.236  -7.242  23.092  0.00  0.00    -0.384 OA
ATOM     26  H   UNL     1       4.297  -7.022  22.927  0.00  0.00    +0.210 HD
ENDBRANCH  16  25
BRANCH  19  27
ATOM     27  C   UNL     1       6.764  -2.689  22.667  0.00  0.00    +0.190 C 
BRANCH  27  28
ATOM     28  O   UNL     1       5.996  -1.567  23.129  0.00  0.00    -0.392 OA
ATOM     29  H   UNL     1       5.065  -1.826  23.063  0.00  0.00    +0.210 HD
ENDBRANCH  27  28
ENDBRANCH  19  27
ENDBRANCH  14  15
ENDBRANCH   2  14
BRANCH   1  30
ATOM     30  O   UNL     1       6.269  -2.820  27.033  0.00  0.00    -0.461 OA
BRANCH  30  34
ATOM     31  C   UNL     1       9.339  -0.972  24.845  0.00  0.00    -0.020 A 
ATOM     32  C   UNL     1       9.346  -2.343  25.143  0.00  0.00    +0.009 A 
ATOM     33  C   UNL     1       8.316  -2.920  25.899  0.00  0.00    +0.046 A 
ATOM     34  C   UNL     1       7.269  -2.136  26.378  0.00  0.00    +0.124 A 
ATOM     35  C   UNL     1       7.315  -0.756  26.165  0.00  0.00    +0.046 A 
ATOM     36  C   UNL     1       8.328  -0.182  25.399  0.00  0.00    +0.009 A 
BRANCH  31  37
ATOM     37  CA  UNL     1      10.388  -0.309  23.969  0.00  0.00    +0.191 C 
BRANCH  37  38
ATOM     38  N   UNL     1      10.630   1.092  24.385  0.00  0.00    -0.315 NA
ATOM     39  H1  UNL     1       9.738   1.590  24.298  0.00  0.00    +0.119 HD
ATOM     40  H2  UNL     1      10.808   1.105  25.390  0.00  0.00    +0.119 HD
ENDBRANCH  37  38
BRANCH  37  41
ATOM     41  C   UNL     1      10.102  -0.384  22.458  0.00  0.00    +0.326 C 
ATOM     42  OXT UNL     1       9.747   0.587  21.798  0.00  0.00    -0.249 OA
BRANCH  41  43
ATOM     43  O   UNL     1      10.350  -1.577  21.867  0.00  0.00    -0.479 OA
ATOM     44  H   UNL     1      10.970  -1.542  21.114  0.00  0.00    +0.295 HD
ENDBRANCH  41  43
ENDBRANCH  37  41
ENDBRANCH  31  37
ENDBRANCH  30  34
ENDBRANCH   1  30
TORSDOF 17
ENDMDL
MODEL 3
REMARK VINA RESULT:      -5.9      3.037      6.726
REMARK  Name = 
REMARK  17 active torsions:
REMARK  status: ('A' for Active; 'I' for Inactive)
REMARK    1  A    between atoms: N_1  and  CA_2
REMARK    2  A    between atoms: CA_2  and  C_4
REMARK    3  A    between atoms: CA_2  and  C_7
REMARK    4  A    between atoms: C_4  and  O_5
REMARK    5  A    between atoms: C_10  and  O_11
REMARK    6  A    between atoms: O_11  and  C_12
REMARK    7  A    between atoms: C_15  and  C_17
REMARK    8  A    between atoms: C_17  and  O_18
REMARK    9  A    between atoms: C_19  and  O_21
REMARK   10  A    between atoms: C_22  and  O_24
REMARK   11  A    between atoms: C_25  and  O_27
REMARK   12  A    between atoms: O_27  and  C_28
REMARK   13  A    between atoms: C_31  and  C_33
REMARK   14  A    between atoms: C_33  and  O_34
REMARK   15  A    between atoms: C_35  and  O_37
REMARK   16  A    between atoms: C_38  and  O_40
REMARK   17  A    between atoms: C_41  and  O_43
REMARK                            x       y       z     vdW  Elec       q    Type
REMARK                         _______ _______ _______ _____ _____    ______ ____
ROOT
ATOM      1  C   UNL     1       8.667  -1.426  23.859  0.00  0.00    +0.340 C 
ATOM      2  C   UNL     1       8.218  -0.467  24.999  0.00  0.00    +0.221 C 
ATOM      3  C   UNL     1       8.684   0.987  24.792  0.00  0.00    +0.180 C 
ATOM      4  C   UNL     1      10.127   1.010  24.274  0.00  0.00    +0.177 C 
ATOM      5  C   UNL     1      10.255   0.192  22.979  0.00  0.00    +0.179 C 
ATOM      6  O   UNL     1       9.937  -1.176  23.253  0.00  0.00    -0.331 OA
ENDROOT
BRANCH   4   7
ATOM      7  O   UNL     1      10.974   0.443  25.288  0.00  0.00    -0.386 OA
ATOM      8  H   UNL     1      11.652  -0.106  24.853  0.00  0.00    +0.210 HD
ENDBRANCH   4   7
BRANCH   3   9
ATOM      9  O   UNL     1       7.834   1.732  23.920  0.00  0.00    -0.386 OA
ATOM     10  H   UNL     1       6.914   1.516  24.148  0.00  0.00    +0.210 HD
ENDBRANCH   3   9
BRANCH   5  11
ATOM     11  C   UNL     1       9.504   0.796  21.775  0.00  0.00    +0.190 C 
BRANCH  11  12
ATOM     12  O   UNL     1       9.824   2.168  21.550  0.00  0.00    -0.392 OA
ATOM     13  H   UNL     1       9.082   2.597  21.086  0.00  0.00    +0.210 HD
ENDBRANCH  11  12
ENDBRANCH   5  11
BRANCH   2  14
ATOM     14  O   UNL     1       6.805  -0.530  25.339  0.00  0.00    -0.337 OA
BRANCH  14  15
ATOM     15  C   UNL     1       6.557  -1.242  26.571  0.00  0.00    +0.282 C 
ATOM     16  C   UNL     1       5.712  -2.536  26.378  0.00  0.00    +0.201 C 
ATOM     17  C   UNL     1       4.231  -2.409  26.748  0.00  0.00    +0.179 C 
ATOM     18  C   UNL     1       4.035  -1.466  27.941  0.00  0.00    +0.177 C 
ATOM     19  C   UNL     1       4.707  -0.116  27.663  0.00  0.00    +0.178 C 
ATOM     20  O   UNL     1       6.122  -0.342  27.591  0.00  0.00    -0.341 OA
BRANCH  18  21
ATOM     21  O   UNL     1       4.638  -2.087  29.093  0.00  0.00    -0.386 OA
ATOM     22  H   UNL     1       4.251  -2.982  29.181  0.00  0.00    +0.210 HD
ENDBRANCH  18  21
BRANCH  17  23
ATOM     23  O   UNL     1       3.429  -1.981  25.654  0.00  0.00    -0.386 OA
ATOM     24  H   UNL     1       3.804  -1.152  25.303  0.00  0.00    +0.210 HD
ENDBRANCH  17  23
BRANCH  16  25
ATOM     25  O   UNL     1       6.280  -3.607  27.171  0.00  0.00    -0.384 OA
ATOM     26  H   UNL     1       5.536  -4.099  27.574  0.00  0.00    +0.210 HD
ENDBRANCH  16  25
BRANCH  19  27
ATOM     27  C   UNL     1       4.129   0.649  26.460  0.00  0.00    +0.190 C 
BRANCH  27  28
ATOM     28  O   UNL     1       2.706   0.788  26.591  0.00  0.00    -0.392 OA
ATOM     29  H   UNL     1       2.556   1.592  27.111  0.00  0.00    +0.210 HD
ENDBRANCH  27  28
ENDBRANCH  19  27
ENDBRANCH  14  15
ENDBRANCH   2  14
BRANCH   1  30
ATOM     30  O   UNL     1       7.643  -1.620  22.877  0.00  0.00    -0.461 OA
BRANCH  30  34
ATOM     31  C   UNL     1       5.637  -5.262  23.464  0.00  0.00    -0.020 A 
ATOM     32  C   UNL     1       7.025  -5.130  23.629  0.00  0.00    +0.009 A 
ATOM     33  C   UNL     1       7.663  -3.904  23.399  0.00  0.00    +0.046 A 
ATOM     34  C   UNL     1       6.930  -2.793  22.990  0.00  0.00    +0.124 A 
ATOM     35  C   UNL     1       5.566  -2.950  22.729  0.00  0.00    +0.046 A 
ATOM     36  C   UNL     1       4.925  -4.163  22.975  0.00  0.00    +0.009 A 
BRANCH  31  37
ATOM     37  CA  UNL     1       4.884  -6.544  23.771  0.00  0.00    +0.191 C 
BRANCH  37  38
ATOM     38  N   UNL     1       3.633  -6.636  22.982  0.00  0.00    -0.315 NA
ATOM     39  H1  UNL     1       3.624  -7.561  22.541  0.00  0.00    +0.119 HD
ATOM     40  H2  UNL     1       2.845  -6.676  23.629  0.00  0.00    +0.119 HD
ENDBRANCH  37  38
BRANCH  37  41
ATOM     41  C   UNL     1       4.600  -6.780  25.266  0.00  0.00    +0.326 C 
ATOM     42  OXT UNL     1       4.946  -5.994  26.141  0.00  0.00    -0.249 OA
BRANCH  41  43
ATOM     43  O   UNL     1       3.862  -7.876  25.563  0.00  0.00    -0.479 OA
ATOM     44  H   UNL     1       4.333  -8.563  26.071  0.00  0.00    +0.295 HD
ENDBRANCH  41  43
ENDBRANCH  37  41
ENDBRANCH  31  37
ENDBRANCH  30  34
ENDBRANCH   1  30
TORSDOF 17
ENDMDL
MODEL 4
REMARK VINA RESULT:      -5.9      2.477      5.553
REMARK  Name = 
REMARK  17 active torsions:
REMARK  status: ('A' for Active; 'I' for Inactive)
REMARK    1  A    between atoms: N_1  and  CA_2
REMARK    2  A    between atoms: CA_2  and  C_4
REMARK    3  A    between atoms: CA_2  and  C_7
REMARK    4  A    between atoms: C_4  and  O_5
REMARK    5  A    between atoms: C_10  and  O_11
REMARK    6  A    between atoms: O_11  and  C_12
REMARK    7  A    between atoms: C_15  and  C_17
REMARK    8  A    between atoms: C_17  and  O_18
REMARK    9  A    between atoms: C_19  and  O_21
REMARK   10  A    between atoms: C_22  and  O_24
REMARK   11  A    between atoms: C_25  and  O_27
REMARK   12  A    between atoms: O_27  and  C_28
REMARK   13  A    between atoms: C_31  and  C_33
REMARK   14  A    between atoms: C_33  and  O_34
REMARK   15  A    between atoms: C_35  and  O_37
REMARK   16  A    between atoms: C_38  and  O_40
REMARK   17  A    between atoms: C_41  and  O_43
REMARK                            x       y       z     vdW  Elec       q    Type
REMARK                         _______ _______ _______ _____ _____    ______ ____
ROOT
ATOM      1  C   UNL     1       5.250  -2.455  26.407  0.00  0.00    +0.340 C 
ATOM      2  C   UNL     1       4.505  -3.466  25.487  0.00  0.00    +0.221 C 
ATOM      3  C   UNL     1       3.099  -3.833  25.998  0.00  0.00    +0.180 C 
ATOM      4  C   UNL     1       3.125  -4.032  27.519  0.00  0.00    +0.177 C 
ATOM      5  C   UNL     1       3.666  -2.779  28.224  0.00  0.00    +0.179 C 
ATOM      6  O   UNL     1       5.019  -2.555  27.814  0.00  0.00    -0.331 OA
ENDROOT
BRANCH   4   7
ATOM      7  O   UNL     1       3.978  -5.154  27.806  0.00  0.00    -0.386 OA
ATOM      8  H   UNL     1       4.377  -5.460  26.972  0.00  0.00    +0.210 HD
ENDBRANCH   4   7
BRANCH   3   9
ATOM      9  O   UNL     1       2.102  -2.875  25.643  0.00  0.00    -0.386 OA
ATOM     10  H   UNL     1       1.566  -2.697  26.434  0.00  0.00    +0.210 HD
ENDBRANCH   3   9
BRANCH   5  11
ATOM     11  C   UNL     1       2.749  -1.545  28.108  0.00  0.00    +0.190 C 
BRANCH  11  12
ATOM     12  O   UNL     1       3.436  -0.315  28.336  0.00  0.00    -0.392 OA
ATOM     13  H   UNL     1       2.790   0.371  28.580  0.00  0.00    +0.210 HD
ENDBRANCH  11  12
ENDBRANCH   5  11
BRANCH   2  14
ATOM     14  O   UNL     1       4.484  -3.116  24.075  0.00  0.00    -0.337 OA
BRANCH  14  15
ATOM     15  C   UNL     1       4.639  -4.264  23.213  0.00  0.00    +0.282 C 
ATOM     16  C   UNL     1       5.498  -5.400  23.843  0.00  0.00    +0.201 C 
ATOM     17  C   UNL     1       6.947  -5.472  23.351  0.00  0.00    +0.179 C 
ATOM     18  C   UNL     1       7.051  -5.083  21.871  0.00  0.00    +0.177 C 
ATOM     19  C   UNL     1       6.400  -3.715  21.638  0.00  0.00    +0.178 C 
ATOM     20  O   UNL     1       4.995  -3.853  21.892  0.00  0.00    -0.341 OA
BRANCH  18  21
ATOM     21  O   UNL     1       6.364  -6.091  21.104  0.00  0.00    -0.386 OA
ATOM     22  H   UNL     1       5.404  -5.970  21.254  0.00  0.00    +0.210 HD
ENDBRANCH  18  21
BRANCH  17  23
ATOM     23  O   UNL     1       7.828  -4.668  24.127  0.00  0.00    -0.386 OA
ATOM     24  H   UNL     1       7.911  -5.068  25.012  0.00  0.00    +0.210 HD
ENDBRANCH  17  23
BRANCH  16  25
ATOM     25  O   UNL     1       4.874  -6.681  23.581  0.00  0.00    -0.384 OA
ATOM     26  H   UNL     1       5.576  -7.361  23.619  0.00  0.00    +0.210 HD
ENDBRANCH  16  25
BRANCH  19  27
ATOM     27  C   UNL     1       7.066  -2.553  22.395  0.00  0.00    +0.190 C 
BRANCH  27  28
ATOM     28  O   UNL     1       8.481  -2.544  22.156  0.00  0.00    -0.392 OA
ATOM     29  H   UNL     1       8.786  -1.644  22.345  0.00  0.00    +0.210 HD
ENDBRANCH  27  28
ENDBRANCH  19  27
ENDBRANCH  14  15
ENDBRANCH   2  14
BRANCH   1  30
ATOM     30  O   UNL     1       5.125  -1.106  25.946  0.00  0.00    -0.461 OA
BRANCH  30  34
ATOM     31  C   UNL     1       8.706   0.268  24.238  0.00  0.00    -0.020 A 
ATOM     32  C   UNL     1       8.677  -0.714  25.240  0.00  0.00    +0.009 A 
ATOM     33  C   UNL     1       7.464  -1.129  25.805  0.00  0.00    +0.046 A 
ATOM     34  C   UNL     1       6.261  -0.563  25.387  0.00  0.00    +0.124 A 
ATOM     35  C   UNL     1       6.300   0.484  24.463  0.00  0.00    +0.046 A 
ATOM     36  C   UNL     1       7.502   0.886  23.885  0.00  0.00    +0.009 A 
BRANCH  31  37
ATOM     37  CA  UNL     1       9.983   0.702  23.539  0.00  0.00    +0.191 C 
BRANCH  37  38
ATOM     38  N   UNL     1      10.527   1.945  24.133  0.00  0.00    -0.315 NA
ATOM     39  H1  UNL     1      10.908   2.504  23.364  0.00  0.00    +0.119 HD
ATOM     40  H2  UNL     1       9.747   2.510  24.471  0.00  0.00    +0.119 HD
ENDBRANCH  37  38
BRANCH  37  41
ATOM     41  C   UNL     1       9.861   0.841  22.009  0.00  0.00    +0.326 C 
ATOM     42  OXT UNL     1       9.585  -0.102  21.276  0.00  0.00    -0.249 OA
BRANCH  41  43
ATOM     43  O   UNL     1       9.994   2.095  21.516  0.00  0.00    -0.479 OA
ATOM     44  H   UNL     1      10.901   2.455  21.547  0.00  0.00    +0.295 HD
ENDBRANCH  41  43
ENDBRANCH  37  41
ENDBRANCH  31  37
ENDBRANCH  30  34
ENDBRANCH   1  30
TORSDOF 17
ENDMDL
MODEL 5
REMARK VINA RESULT:      -5.9      3.338      6.761
REMARK  Name = 
REMARK  17 active torsions:
REMARK  status: ('A' for Active; 'I' for Inactive)
REMARK    1  A    between atoms: N_1  and  CA_2
REMARK    2  A    between atoms: CA_2  and  C_4
REMARK    3  A    between atoms: CA_2  and  C_7
REMARK    4  A    between atoms: C_4  and  O_5
REMARK    5  A    between atoms: C_10  and  O_11
REMARK    6  A    between atoms: O_11  and  C_12
REMARK    7  A    between atoms: C_15  and  C_17
REMARK    8  A    between atoms: C_17  and  O_18
REMARK    9  A    between atoms: C_19  and  O_21
REMARK   10  A    between atoms: C_22  and  O_24
REMARK   11  A    between atoms: C_25  and  O_27
REMARK   12  A    between atoms: O_27  and  C_28
REMARK   13  A    between atoms: C_31  and  C_33
REMARK   14  A    between atoms: C_33  and  O_34
REMARK   15  A    between atoms: C_35  and  O_37
REMARK   16  A    between atoms: C_38  and  O_40
REMARK   17  A    between atoms: C_41  and  O_43
REMARK                            x       y       z     vdW  Elec       q    Type
REMARK                         _______ _______ _______ _____ _____    ______ ____
ROOT
ATOM      1  C   UNL     1       7.228  -0.771  24.294  0.00  0.00    +0.340 C 
ATOM      2  C   UNL     1       7.617   0.728  24.137  0.00  0.00    +0.221 C 
ATOM      3  C   UNL     1       9.034   0.932  23.567  0.00  0.00    +0.180 C 
ATOM      4  C   UNL     1      10.009  -0.067  24.203  0.00  0.00    +0.177 C 
ATOM      5  C   UNL     1       9.525  -1.511  23.993  0.00  0.00    +0.179 C 
ATOM      6  O   UNL     1       8.266  -1.686  24.651  0.00  0.00    -0.331 OA
ENDROOT
BRANCH   4   7
ATOM      7  O   UNL     1      10.082   0.217  25.611  0.00  0.00    -0.386 OA
ATOM      8  H   UNL     1      10.942  -0.099  25.945  0.00  0.00    +0.210 HD
ENDBRANCH   4   7
BRANCH   3   9
ATOM      9  O   UNL     1       9.088   0.837  22.144  0.00  0.00    -0.386 OA
ATOM     10  H   UNL     1       9.555   0.015  21.919  0.00  0.00    +0.210 HD
ENDBRANCH   3   9
BRANCH   5  11
ATOM     11  C   UNL     1       9.549  -1.975  22.522  0.00  0.00    +0.190 C 
BRANCH  11  12
ATOM     12  O   UNL     1      10.755  -1.621  21.846  0.00  0.00    -0.392 OA
ATOM     13  H   UNL     1      10.818  -0.651  21.794  0.00  0.00    +0.210 HD
ENDBRANCH  11  12
ENDBRANCH   5  11
BRANCH   2  14
ATOM     14  O   UNL     1       6.640   1.551  23.443  0.00  0.00    -0.337 OA
BRANCH  14  15
ATOM     15  C   UNL     1       5.912   2.424  24.332  0.00  0.00    +0.282 C 
ATOM     16  C   UNL     1       4.426   2.636  23.913  0.00  0.00    +0.201 C 
ATOM     17  C   UNL     1       4.133   3.959  23.198  0.00  0.00    +0.179 C 
ATOM     18  C   UNL     1       5.005   5.094  23.748  0.00  0.00    +0.177 C 
ATOM     19  C   UNL     1       6.484   4.695  23.698  0.00  0.00    +0.178 C 
ATOM     20  O   UNL     1       6.670   3.602  24.610  0.00  0.00    -0.341 OA
BRANCH  18  21
ATOM     21  O   UNL     1       4.605   5.331  25.112  0.00  0.00    -0.386 OA
ATOM     22  H   UNL     1       4.540   6.300  25.235  0.00  0.00    +0.210 HD
ENDBRANCH  18  21
BRANCH  17  23
ATOM     23  O   UNL     1       4.293   3.864  21.787  0.00  0.00    -0.386 OA
ATOM     24  H   UNL     1       5.060   3.292  21.601  0.00  0.00    +0.210 HD
ENDBRANCH  17  23
BRANCH  16  25
ATOM     25  O   UNL     1       3.578   2.566  25.085  0.00  0.00    -0.384 OA
ATOM     26  H   UNL     1       4.137   2.759  25.864  0.00  0.00    +0.210 HD
ENDBRANCH  16  25
BRANCH  19  27
ATOM     27  C   UNL     1       7.028   4.434  22.284  0.00  0.00    +0.190 C 
BRANCH  27  28
ATOM     28  O   UNL     1       8.358   3.896  22.349  0.00  0.00    -0.392 OA
ATOM     29  H   UNL     1       8.603   3.661  21.442  0.00  0.00    +0.210 HD
ENDBRANCH  27  28
ENDBRANCH  19  27
ENDBRANCH  14  15
ENDBRANCH   2  14
BRANCH   1  30
ATOM     30  O   UNL     1       6.459  -1.252  23.186  0.00  0.00    -0.461 OA
BRANCH  30  34
ATOM     31  C   UNL     1       4.421  -4.866  23.825  0.00  0.00    -0.020 A 
ATOM     32  C   UNL     1       4.342  -3.789  24.720  0.00  0.00    +0.009 A 
ATOM     33  C   UNL     1       5.058  -2.606  24.486  0.00  0.00    +0.046 A 
ATOM     34  C   UNL     1       5.872  -2.485  23.362  0.00  0.00    +0.124 A 
ATOM     35  C   UNL     1       6.026  -3.594  22.526  0.00  0.00    +0.046 A 
ATOM     36  C   UNL     1       5.303  -4.764  22.745  0.00  0.00    +0.009 A 
BRANCH  31  37
ATOM     37  CA  UNL     1       3.611  -6.141  23.989  0.00  0.00    +0.191 C 
BRANCH  37  38
ATOM     38  N   UNL     1       4.472  -7.342  23.896  0.00  0.00    -0.315 NA
ATOM     39  H1  UNL     1       5.172  -7.154  23.171  0.00  0.00    +0.119 HD
ATOM     40  H2  UNL     1       5.029  -7.408  24.749  0.00  0.00    +0.119 HD
ENDBRANCH  37  38
BRANCH  37  41
ATOM     41  C   UNL     1       2.406  -6.262  23.037  0.00  0.00    +0.326 C 
ATOM     42  OXT UNL     1       1.699  -5.307  22.733  0.00  0.00    -0.249 OA
BRANCH  41  43
ATOM     43  O   UNL     1       2.214  -7.480  22.477  0.00  0.00    -0.479 OA
ATOM     44  H   UNL     1       2.177  -8.222  23.110  0.00  0.00    +0.295 HD
ENDBRANCH  41  43
ENDBRANCH  37  41
ENDBRANCH  31  37
ENDBRANCH  30  34
ENDBRANCH   1  30
TORSDOF 17
ENDMDL
MODEL 6
REMARK VINA RESULT:      -5.8      2.614      7.017
REMARK  Name = 
REMARK  17 active torsions:
REMARK  status: ('A' for Active; 'I' for Inactive)
REMARK    1  A    between atoms: N_1  and  CA_2
REMARK    2  A    between atoms: CA_2  and  C_4
REMARK    3  A    between atoms: CA_2  and  C_7
REMARK    4  A    between atoms: C_4  and  O_5
REMARK    5  A    between atoms: C_10  and  O_11
REMARK    6  A    between atoms: O_11  and  C_12
REMARK    7  A    between atoms: C_15  and  C_17
REMARK    8  A    between atoms: C_17  and  O_18
REMARK    9  A    between atoms: C_19  and  O_21
REMARK   10  A    between atoms: C_22  and  O_24
REMARK   11  A    between atoms: C_25  and  O_27
REMARK   12  A    between atoms: O_27  and  C_28
REMARK   13  A    between atoms: C_31  and  C_33
REMARK   14  A    between atoms: C_33  and  O_34
REMARK   15  A    between atoms: C_35  and  O_37
REMARK   16  A    between atoms: C_38  and  O_40
REMARK   17  A    between atoms: C_41  and  O_43
REMARK                            x       y       z     vdW  Elec       q    Type
REMARK                         _______ _______ _______ _____ _____    ______ ____
ROOT
ATOM      1  C   UNL     1       5.076   0.476  25.606  0.00  0.00    +0.340 C 
ATOM      2  C   UNL     1       5.891   1.349  24.609  0.00  0.00    +0.221 C 
ATOM      3  C   UNL     1       5.661   2.861  24.794  0.00  0.00    +0.180 C 
ATOM      4  C   UNL     1       4.174   3.142  25.046  0.00  0.00    +0.177 C 
ATOM      5  C   UNL     1       3.666   2.347  26.259  0.00  0.00    +0.179 C 
ATOM      6  O   UNL     1       3.781   0.947  25.985  0.00  0.00    -0.331 OA
ENDROOT
BRANCH   4   7
ATOM      7  O   UNL     1       3.441   2.752  23.872  0.00  0.00    -0.386 OA
ATOM      8  H   UNL     1       4.077   2.589  23.152  0.00  0.00    +0.210 HD
ENDBRANCH   4   7
BRANCH   3   9
ATOM      9  O   UNL     1       6.454   3.428  25.837  0.00  0.00    -0.386 OA
ATOM     10  H   UNL     1       6.322   4.391  25.821  0.00  0.00    +0.210 HD
ENDBRANCH   3   9
BRANCH   5  11
ATOM     11  C   UNL     1       4.278   2.789  27.604  0.00  0.00    +0.190 C 
BRANCH  11  12
ATOM     12  O   UNL     1       4.132   1.810  28.632  0.00  0.00    -0.392 OA
ATOM     13  H   UNL     1       4.156   0.922  28.232  0.00  0.00    +0.210 HD
ENDBRANCH  11  12
ENDBRANCH   5  11
BRANCH   2  14
ATOM     14  O   UNL     1       7.308   1.033  24.525  0.00  0.00    -0.337 OA
BRANCH  14  15
ATOM     15  C   UNL     1       7.618   0.141  23.433  0.00  0.00    +0.282 C 
ATOM     16  C   UNL     1       8.793  -0.834  23.744  0.00  0.00    +0.201 C 
ATOM     17  C   UNL     1      10.144  -0.442  23.137  0.00  0.00    +0.179 C 
ATOM     18  C   UNL     1       9.965   0.225  21.767  0.00  0.00    +0.177 C 
ATOM     19  C   UNL     1       8.987   1.400  21.876  0.00  0.00    +0.178 C 
ATOM     20  O   UNL     1       7.698   0.863  22.203  0.00  0.00    -0.341 OA
BRANCH  18  21
ATOM     21  O   UNL     1       9.443  -0.767  20.862  0.00  0.00    -0.386 OA
ATOM     22  H   UNL     1       9.748  -0.533  19.961  0.00  0.00    +0.210 HD
ENDBRANCH  18  21
BRANCH  17  23
ATOM     23  O   UNL     1      10.902   0.404  23.993  0.00  0.00    -0.386 OA
ATOM     24  H   UNL     1      10.794   0.092  24.910  0.00  0.00    +0.210 HD
ENDBRANCH  17  23
BRANCH  16  25
ATOM     25  O   UNL     1       8.459  -2.161  23.269  0.00  0.00    -0.384 OA
ATOM     26  H   UNL     1       8.570  -2.777  24.020  0.00  0.00    +0.210 HD
ENDBRANCH  16  25
BRANCH  19  27
ATOM     27  C   UNL     1       9.452   2.534  22.805  0.00  0.00    +0.190 C 
BRANCH  27  28
ATOM     28  O   UNL     1      10.763   2.983  22.432  0.00  0.00    -0.392 OA
ATOM     29  H   UNL     1      11.140   2.290  21.870  0.00  0.00    +0.210 HD
ENDBRANCH  27  28
ENDBRANCH  19  27
ENDBRANCH  14  15
ENDBRANCH   2  14
BRANCH   1  30
ATOM     30  O   UNL     1       5.850   0.085  26.745  0.00  0.00    -0.461 OA
BRANCH  30  34
ATOM     31  C   UNL     1       7.235  -3.861  26.384  0.00  0.00    -0.020 A 
ATOM     32  C   UNL     1       5.876  -3.528  26.286  0.00  0.00    +0.009 A 
ATOM     33  C   UNL     1       5.448  -2.202  26.438  0.00  0.00    +0.046 A 
ATOM     34  C   UNL     1       6.368  -1.190  26.701  0.00  0.00    +0.124 A 
ATOM     35  C   UNL     1       7.707  -1.538  26.898  0.00  0.00    +0.046 A 
ATOM     36  C   UNL     1       8.139  -2.852  26.729  0.00  0.00    +0.009 A 
BRANCH  31  37
ATOM     37  CA  UNL     1       7.763  -5.267  26.155  0.00  0.00    +0.191 C 
BRANCH  37  38
ATOM     38  N   UNL     1       7.943  -5.990  27.435  0.00  0.00    -0.315 NA
ATOM     39  H1  UNL     1       8.819  -6.517  27.362  0.00  0.00    +0.119 HD
ATOM     40  H2  UNL     1       8.140  -5.307  28.167  0.00  0.00    +0.119 HD
ENDBRANCH  37  38
BRANCH  37  41
ATOM     41  C   UNL     1       9.045  -5.340  25.306  0.00  0.00    +0.326 C 
ATOM     42  OXT UNL     1       9.068  -5.069  24.110  0.00  0.00    -0.249 OA
BRANCH  41  43
ATOM     43  O   UNL     1      10.183  -5.642  25.976  0.00  0.00    -0.479 OA
ATOM     44  H   UNL     1      10.099  -5.640  26.948  0.00  0.00    +0.295 HD
ENDBRANCH  41  43
ENDBRANCH  37  41
ENDBRANCH  31  37
ENDBRANCH  30  34
ENDBRANCH   1  30
TORSDOF 17
ENDMDL
MODEL 7
REMARK VINA RESULT:      -5.8      2.848      6.841
REMARK  Name = 
REMARK  17 active torsions:
REMARK  status: ('A' for Active; 'I' for Inactive)
REMARK    1  A    between atoms: N_1  and  CA_2
REMARK    2  A    between atoms: CA_2  and  C_4
REMARK    3  A    between atoms: CA_2  and  C_7
REMARK    4  A    between atoms: C_4  and  O_5
REMARK    5  A    between atoms: C_10  and  O_11
REMARK    6  A    between atoms: O_11  and  C_12
REMARK    7  A    between atoms: C_15  and  C_17
REMARK    8  A    between atoms: C_17  and  O_18
REMARK    9  A    between atoms: C_19  and  O_21
REMARK   10  A    between atoms: C_22  and  O_24
REMARK   11  A    between atoms: C_25  and  O_27
REMARK   12  A    between atoms: O_27  and  C_28
REMARK   13  A    between atoms: C_31  and  C_33
REMARK   14  A    between atoms: C_33  and  O_34
REMARK   15  A    between atoms: C_35  and  O_37
REMARK   16  A    between atoms: C_38  and  O_40
REMARK   17  A    between atoms: C_41  and  O_43
REMARK                            x       y       z     vdW  Elec       q    Type
REMARK                         _______ _______ _______ _____ _____    ______ ____
ROOT
ATOM      1  C   UNL     1       6.020   0.220  25.498  0.00  0.00    +0.340 C 
ATOM      2  C   UNL     1       7.054   1.364  25.709  0.00  0.00    +0.221 C 
ATOM      3  C   UNL     1       6.848   2.135  27.026  0.00  0.00    +0.180 C 
ATOM      4  C   UNL     1       5.353   2.376  27.270  0.00  0.00    +0.177 C 
ATOM      5  C   UNL     1       4.580   1.048  27.274  0.00  0.00    +0.179 C 
ATOM      6  O   UNL     1       4.694   0.434  25.986  0.00  0.00    -0.331 OA
ENDROOT
BRANCH   4   7
ATOM      7  O   UNL     1       4.860   3.219  26.215  0.00  0.00    -0.386 OA
ATOM      8  H   UNL     1       4.677   2.663  25.436  0.00  0.00    +0.210 HD
ENDBRANCH   4   7
BRANCH   3   9
ATOM      9  O   UNL     1       7.435   1.488  28.155  0.00  0.00    -0.386 OA
ATOM     10  H   UNL     1       6.848   1.629  28.917  0.00  0.00    +0.210 HD
ENDBRANCH   3   9
BRANCH   5  11
ATOM     11  C   UNL     1       4.923   0.122  28.458  0.00  0.00    +0.190 C 
BRANCH  11  12
ATOM     12  O   UNL     1       4.569  -1.240  28.222  0.00  0.00    -0.392 OA
ATOM     13  H   UNL     1       5.380  -1.776  28.170  0.00  0.00    +0.210 HD
ENDBRANCH  11  12
ENDBRANCH   5  11
BRANCH   2  14
ATOM     14  O   UNL     1       8.445   0.982  25.526  0.00  0.00    -0.337 OA
BRANCH  14  15
ATOM     15  C   UNL     1       9.150   1.855  24.618  0.00  0.00    +0.282 C 
ATOM     16  C   UNL     1       8.222   2.532  23.565  0.00  0.00    +0.201 C 
ATOM     17  C   UNL     1       8.248   1.899  22.170  0.00  0.00    +0.179 C 
ATOM     18  C   UNL     1       9.647   1.376  21.822  0.00  0.00    +0.177 C 
ATOM     19  C   UNL     1      10.148   0.435  22.924  0.00  0.00    +0.178 C 
ATOM     20  O   UNL     1      10.323   1.214  24.115  0.00  0.00    -0.341 OA
BRANCH  18  21
ATOM     21  O   UNL     1      10.525   2.514  21.713  0.00  0.00    -0.386 OA
ATOM     22  H   UNL     1      11.441   2.174  21.650  0.00  0.00    +0.210 HD
ENDBRANCH  18  21
BRANCH  17  23
ATOM     23  O   UNL     1       7.291   0.856  22.026  0.00  0.00    -0.386 OA
ATOM     24  H   UNL     1       6.581   0.997  22.678  0.00  0.00    +0.210 HD
ENDBRANCH  17  23
BRANCH  16  25
ATOM     25  O   UNL     1       8.584   3.928  23.427  0.00  0.00    -0.384 OA
ATOM     26  H   UNL     1       9.553   3.993  23.549  0.00  0.00    +0.210 HD
ENDBRANCH  16  25
BRANCH  19  27
ATOM     27  C   UNL     1       9.295  -0.831  23.119  0.00  0.00    +0.190 C 
BRANCH  27  28
ATOM     28  O   UNL     1       9.125  -1.518  21.870  0.00  0.00    -0.392 OA
ATOM     29  H   UNL     1       8.186  -1.446  21.643  0.00  0.00    +0.210 HD
ENDBRANCH  27  28
ENDBRANCH  19  27
ENDBRANCH  14  15
ENDBRANCH   2  14
BRANCH   1  30
ATOM     30  O   UNL     1       6.532  -1.055  25.901  0.00  0.00    -0.461 OA
BRANCH  30  34
ATOM     31  C   UNL     1       5.630  -4.366  23.482  0.00  0.00    -0.020 A 
ATOM     32  C   UNL     1       6.012  -4.496  24.826  0.00  0.00    +0.009 A 
ATOM     33  C   UNL     1       6.331  -3.369  25.595  0.00  0.00    +0.046 A 
ATOM     34  C   UNL     1       6.285  -2.095  25.033  0.00  0.00    +0.124 A 
ATOM     35  C   UNL     1       6.001  -1.975  23.670  0.00  0.00    +0.046 A 
ATOM     36  C   UNL     1       5.666  -3.092  22.906  0.00  0.00    +0.009 A 
BRANCH  31  37
ATOM     37  CA  UNL     1       5.202  -5.543  22.623  0.00  0.00    +0.191 C 
BRANCH  37  38
ATOM     38  N   UNL     1       4.910  -6.736  23.451  0.00  0.00    -0.315 NA
ATOM     39  H1  UNL     1       3.927  -6.671  23.734  0.00  0.00    +0.119 HD
ATOM     40  H2  UNL     1       4.928  -7.560  22.849  0.00  0.00    +0.119 HD
ENDBRANCH  37  38
BRANCH  37  41
ATOM     41  C   UNL     1       6.181  -5.898  21.487  0.00  0.00    +0.326 C 
ATOM     42  OXT UNL     1       5.929  -5.695  20.305  0.00  0.00    -0.249 OA
BRANCH  41  43
ATOM     43  O   UNL     1       7.388  -6.374  21.874  0.00  0.00    -0.479 OA
ATOM     44  H   UNL     1       7.371  -7.267  22.268  0.00  0.00    +0.295 HD
ENDBRANCH  41  43
ENDBRANCH  37  41
ENDBRANCH  31  37
ENDBRANCH  30  34
ENDBRANCH   1  30
TORSDOF 17
ENDMDL
MODEL 8
REMARK VINA RESULT:      -5.8      3.903      6.914
REMARK  Name = 
REMARK  17 active torsions:
REMARK  status: ('A' for Active; 'I' for Inactive)
REMARK    1  A    between atoms: N_1  and  CA_2
REMARK    2  A    between atoms: CA_2  and  C_4
REMARK    3  A    between atoms: CA_2  and  C_7
REMARK    4  A    between atoms: C_4  and  O_5
REMARK    5  A    between atoms: C_10  and  O_11
REMARK    6  A    between atoms: O_11  and  C_12
REMARK    7  A    between atoms: C_15  and  C_17
REMARK    8  A    between atoms: C_17  and  O_18
REMARK    9  A    between atoms: C_19  and  O_21
REMARK   10  A    between atoms: C_22  and  O_24
REMARK   11  A    between atoms: C_25  and  O_27
REMARK   12  A    between atoms: O_27  and  C_28
REMARK   13  A    between atoms: C_31  and  C_33
REMARK   14  A    between atoms: C_33  and  O_34
REMARK   15  A    between atoms: C_35  and  O_37
REMARK   16  A    between atoms: C_38  and  O_40
REMARK   17  A    between atoms: C_41  and  O_43
REMARK                            x       y       z     vdW  Elec       q    Type
REMARK                         _______ _______ _______ _____ _____    ______ ____
ROOT
ATOM      1  C   UNL     1       3.176  -5.404  23.604  0.00  0.00    +0.340 C 
ATOM      2  C   UNL     1       3.345  -6.275  24.882  0.00  0.00    +0.221 C 
ATOM      3  C   UNL     1       2.410  -7.499  24.914  0.00  0.00    +0.180 C 
ATOM      4  C   UNL     1       1.014  -7.110  24.412  0.00  0.00    +0.177 C 
ATOM      5  C   UNL     1       1.091  -6.502  23.002  0.00  0.00    +0.179 C 
ATOM      6  O   UNL     1       1.862  -5.297  23.051  0.00  0.00    -0.331 OA
ENDROOT
BRANCH   4   7
ATOM      7  O   UNL     1       0.465  -6.144  25.325  0.00  0.00    -0.386 OA
ATOM      8  H   UNL     1       0.763  -6.366  26.225  0.00  0.00    +0.210 HD
ENDBRANCH   4   7
BRANCH   3   9
ATOM      9  O   UNL     1       2.910  -8.610  24.170  0.00  0.00    -0.386 OA
ATOM     10  H   UNL     1       2.687  -8.466  23.235  0.00  0.00    +0.210 HD
ENDBRANCH   3   9
BRANCH   5  11
ATOM     11  C   UNL     1       1.526  -7.498  21.909  0.00  0.00    +0.190 C 
BRANCH  11  12
ATOM     12  O   UNL     1       0.443  -8.274  21.398  0.00  0.00    -0.392 OA
ATOM     13  H   UNL     1      -0.389  -7.959  21.793  0.00  0.00    +0.210 HD
ENDBRANCH  11  12
ENDBRANCH   5  11
BRANCH   2  14
ATOM     14  O   UNL     1       4.715  -6.644  25.202  0.00  0.00    -0.337 OA
BRANCH  14  15
ATOM     15  C   UNL     1       4.936  -6.800  26.620  0.00  0.00    +0.282 C 
ATOM     16  C   UNL     1       3.819  -6.155  27.494  0.00  0.00    +0.201 C 
ATOM     17  C   UNL     1       4.172  -4.795  28.105  0.00  0.00    +0.179 C 
ATOM     18  C   UNL     1       5.658  -4.722  28.478  0.00  0.00    +0.177 C 
ATOM     19  C   UNL     1       6.525  -5.085  27.267  0.00  0.00    +0.178 C 
ATOM     20  O   UNL     1       6.283  -6.464  26.958  0.00  0.00    -0.341 OA
BRANCH  18  21
ATOM     21  O   UNL     1       5.887  -5.662  29.546  0.00  0.00    -0.386 OA
ATOM     22  H   UNL     1       6.406  -5.200  30.237  0.00  0.00    +0.210 HD
ENDBRANCH  18  21
BRANCH  17  23
ATOM     23  O   UNL     1       3.832  -3.709  27.251  0.00  0.00    -0.386 OA
ATOM     24  H   UNL     1       3.291  -4.051  26.517  0.00  0.00    +0.210 HD
ENDBRANCH  17  23
BRANCH  16  25
ATOM     25  O   UNL     1       3.474  -7.054  28.577  0.00  0.00    -0.384 OA
ATOM     26  H   UNL     1       4.297  -7.252  29.067  0.00  0.00    +0.210 HD
ENDBRANCH  16  25
BRANCH  19  27
ATOM     27  C   UNL     1       6.376  -4.134  26.067  0.00  0.00    +0.190 C 
BRANCH  27  28
ATOM     28  O   UNL     1       6.636  -2.780  26.465  0.00  0.00    -0.392 OA
ATOM     29  H   UNL     1       6.047  -2.220  25.937  0.00  0.00    +0.210 HD
ENDBRANCH  27  28
ENDBRANCH  19  27
ENDBRANCH  14  15
ENDBRANCH   2  14
BRANCH   1  30
ATOM     30  O   UNL     1       4.147  -5.717  22.600  0.00  0.00    -0.461 OA
BRANCH  30  34
ATOM     31  C   UNL     1       7.348  -3.002  22.667  0.00  0.00    -0.020 A 
ATOM     32  C   UNL     1       6.008  -2.588  22.701  0.00  0.00    +0.009 A 
ATOM     33  C   UNL     1       4.965  -3.523  22.651  0.00  0.00    +0.046 A 
ATOM     34  C   UNL     1       5.243  -4.885  22.554  0.00  0.00    +0.124 A 
ATOM     35  C   UNL     1       6.574  -5.288  22.420  0.00  0.00    +0.046 A 
ATOM     36  C   UNL     1       7.614  -4.363  22.488  0.00  0.00    +0.009 A 
BRANCH  31  37
ATOM     37  CA  UNL     1       8.517  -2.040  22.793  0.00  0.00    +0.191 C 
BRANCH  37  38
ATOM     38  N   UNL     1       9.250  -1.912  21.513  0.00  0.00    -0.315 NA
ATOM     39  H1  UNL     1       9.009  -2.731  20.946  0.00  0.00    +0.119 HD
ATOM     40  H2  UNL     1       8.849  -1.135  20.987  0.00  0.00    +0.119 HD
ENDBRANCH  37  38
BRANCH  37  41
ATOM     41  C   UNL     1       9.488  -2.358  23.945  0.00  0.00    +0.326 C 
ATOM     42  OXT UNL     1      10.568  -2.913  23.772  0.00  0.00    -0.249 OA
BRANCH  41  43
ATOM     43  O   UNL     1       9.122  -1.910  25.170  0.00  0.00    -0.479 OA
ATOM     44  H   UNL     1       8.162  -1.770  25.285  0.00  0.00    +0.295 HD
ENDBRANCH  41  43
ENDBRANCH  37  41
ENDBRANCH  31  37
ENDBRANCH  30  34
ENDBRANCH   1  30
TORSDOF 17
ENDMDL
MODEL 9
REMARK VINA RESULT:      -5.8      2.301      5.668
REMARK  Name = 
REMARK  17 active torsions:
REMARK  status: ('A' for Active; 'I' for Inactive)
REMARK    1  A    between atoms: N_1  and  CA_2
REMARK    2  A    between atoms: CA_2  and  C_4
REMARK    3  A    between atoms: CA_2  and  C_7
REMARK    4  A    between atoms: C_4  and  O_5
REMARK    5  A    between atoms: C_10  and  O_11
REMARK    6  A    between atoms: O_11  and  C_12
REMARK    7  A    between atoms: C_15  and  C_17
REMARK    8  A    between atoms: C_17  and  O_18
REMARK    9  A    between atoms: C_19  and  O_21
REMARK   10  A    between atoms: C_22  and  O_24
REMARK   11  A    between atoms: C_25  and  O_27
REMARK   12  A    between atoms: O_27  and  C_28
REMARK   13  A    between atoms: C_31  and  C_33
REMARK   14  A    between atoms: C_33  and  O_34
REMARK   15  A    between atoms: C_35  and  O_37
REMARK   16  A    between atoms: C_38  and  O_40
REMARK   17  A    between atoms: C_41  and  O_43
REMARK                            x       y       z     vdW  Elec       q    Type
REMARK                         _______ _______ _______ _____ _____    ______ ____
ROOT
ATOM      1  C   UNL     1       5.190  -1.827  26.921  0.00  0.00    +0.340 C 
ATOM      2  C   UNL     1       5.204  -3.368  26.698  0.00  0.00    +0.221 C 
ATOM      3  C   UNL     1       3.869  -4.047  27.054  0.00  0.00    +0.180 C 
ATOM      4  C   UNL     1       3.300  -3.450  28.347  0.00  0.00    +0.177 C 
ATOM      5  C   UNL     1       3.135  -1.927  28.218  0.00  0.00    +0.179 C 
ATOM      6  O   UNL     1       4.420  -1.330  28.017  0.00  0.00    -0.331 OA
ENDROOT
BRANCH   4   7
ATOM      7  O   UNL     1       4.215  -3.747  29.416  0.00  0.00    -0.386 OA
ATOM      8  H   UNL     1       4.228  -2.990  30.030  0.00  0.00    +0.210 HD
ENDBRANCH   4   7
BRANCH   3   9
ATOM      9  O   UNL     1       2.901  -3.971  26.007  0.00  0.00    -0.386 OA
ATOM     10  H   UNL     1       2.713  -4.878  25.712  0.00  0.00    +0.210 HD
ENDBRANCH   3   9
BRANCH   5  11
ATOM     11  C   UNL     1       2.061  -1.494  27.199  0.00  0.00    +0.190 C 
BRANCH  11  12
ATOM     12  O   UNL     1       2.233  -0.152  26.745  0.00  0.00    -0.392 OA
ATOM     13  H   UNL     1       1.480   0.091  26.177  0.00  0.00    +0.210 HD
ENDBRANCH  11  12
ENDBRANCH   5  11
BRANCH   2  14
ATOM     14  O   UNL     1       5.692  -3.799  25.397  0.00  0.00    -0.337 OA
BRANCH  14  15
ATOM     15  C   UNL     1       6.658  -4.868  25.489  0.00  0.00    +0.282 C 
ATOM     16  C   UNL     1       7.561  -4.780  26.755  0.00  0.00    +0.201 C 
ATOM     17  C   UNL     1       8.965  -4.216  26.517  0.00  0.00    +0.179 C 
ATOM     18  C   UNL     1       9.507  -4.635  25.145  0.00  0.00    +0.177 C 
ATOM     19  C   UNL     1       8.508  -4.257  24.044  0.00  0.00    +0.178 C 
ATOM     20  O   UNL     1       7.327  -5.047  24.239  0.00  0.00    -0.341 OA
BRANCH  18  21
ATOM     21  O   UNL     1       9.696  -6.063  25.166  0.00  0.00    -0.386 OA
ATOM     22  H   UNL     1      10.606  -6.234  25.486  0.00  0.00    +0.210 HD
ENDBRANCH  18  21
BRANCH  17  23
ATOM     23  O   UNL     1       9.014  -2.800  26.646  0.00  0.00    -0.386 OA
ATOM     24  H   UNL     1       9.200  -2.581  27.577  0.00  0.00    +0.210 HD
ENDBRANCH  17  23
BRANCH  16  25
ATOM     25  O   UNL     1       7.703  -6.097  27.341  0.00  0.00    -0.384 OA
ATOM     26  H   UNL     1       7.744  -6.742  26.606  0.00  0.00    +0.210 HD
ENDBRANCH  16  25
BRANCH  19  27
ATOM     27  C   UNL     1       8.242  -2.747  23.915  0.00  0.00    +0.190 C 
BRANCH  27  28
ATOM     28  O   UNL     1       8.451  -2.315  22.563  0.00  0.00    -0.392 OA
ATOM     29  H   UNL     1       7.606  -1.952  22.257  0.00  0.00    +0.210 HD
ENDBRANCH  27  28
ENDBRANCH  19  27
ENDBRANCH  14  15
ENDBRANCH   2  14
BRANCH   1  30
ATOM     30  O   UNL     1       4.918  -1.106  25.714  0.00  0.00    -0.461 OA
BRANCH  30  34
ATOM     31  C   UNL     1       8.264   1.077  24.426  0.00  0.00    -0.020 A 
ATOM     32  C   UNL     1       8.138   0.595  25.738  0.00  0.00    +0.009 A 
ATOM     33  C   UNL     1       6.994  -0.107  26.139  0.00  0.00    +0.046 A 
ATOM     34  C   UNL     1       5.953  -0.331  25.241  0.00  0.00    +0.124 A 
ATOM     35  C   UNL     1       6.036   0.234  23.966  0.00  0.00    +0.046 A 
ATOM     36  C   UNL     1       7.180   0.918  23.558  0.00  0.00    +0.009 A 
BRANCH  31  37
ATOM     37  CA  UNL     1       9.511   1.779  23.917  0.00  0.00    +0.191 C 
BRANCH  37  38
ATOM     38  N   UNL     1       9.333   3.249  23.900  0.00  0.00    -0.315 NA
ATOM     39  H1  UNL     1       9.898   3.629  24.667  0.00  0.00    +0.119 HD
ATOM     40  H2  UNL     1       9.789   3.620  23.066  0.00  0.00    +0.119 HD
ENDBRANCH  37  38
BRANCH  37  41
ATOM     41  C   UNL     1      10.017   1.278  22.551  0.00  0.00    +0.326 C 
ATOM     42  OXT UNL     1      10.215   0.093  22.308  0.00  0.00    -0.249 OA
BRANCH  41  43
ATOM     43  O   UNL     1      10.152   2.221  21.588  0.00  0.00    -0.479 OA
ATOM     44  H   UNL     1       9.314   2.618  21.282  0.00  0.00    +0.295 HD
ENDBRANCH  41  43
ENDBRANCH  37  41
ENDBRANCH  31  37
ENDBRANCH  30  34
ENDBRANCH   1  30
TORSDOF 17
ENDMDL
