MODEL 1
REMARK VINA RESULT:      -7.2      0.000      0.000
REMARK  Name = 
REMARK  8 active torsions:
REMARK  status: ('A' for Active; 'I' for Inactive)
REMARK    1  A    between atoms: O_1  and  C_2
REMARK    2  A    between atoms: C_4  and  C_6
REMARK    3  A    between atoms: C_6  and  O_7
REMARK    4  A    between atoms: O_7  and  P_8
REMARK    5  A    between atoms: P_8  and  O_9
REMARK    6  A    between atoms: P_8  and  O_10
REMARK    7  A    between atoms: C_13  and  N_18
REMARK    8  A    between atoms: C_15  and  O_17
REMARK                            x       y       z     vdW  Elec       q    Type
REMARK                         _______ _______ _______ _____ _____    ______ ____
ROOT
ATOM      1  C   UNL     1       7.956  -5.564  26.086  0.00  0.00    +0.178 C 
ATOM      2  C   UNL     1       9.141  -4.699  25.676  0.00  0.00    +0.195 C 
ATOM      3  C   UNL     1       8.600  -3.889  24.495  0.00  0.00    +0.253 C 
ATOM      4  O   UNL     1       7.173  -4.067  24.412  0.00  0.00    -0.346 OA
ATOM      5  C   UNL     1       6.751  -4.778  25.584  0.00  0.00    +0.178 C 
ENDROOT
BRANCH   3   6
ATOM      6  N   UNL     1       8.873  -2.460  24.579  0.00  0.00    -0.285 N 
ATOM      7  C   UNL     1       9.173  -1.598  23.552  0.00  0.00    +0.176 A 
ATOM      8  N   UNL     1       9.179  -1.853  22.231  0.00  0.00    -0.173 NA
ATOM      9  C   UNL     1       9.597  -0.783  21.527  0.00  0.00    +0.430 A 
ATOM     10  N   UNL     1       9.947   0.395  22.041  0.00  0.00    -0.183 N 
ATOM     11  C   UNL     1       9.908   0.655  23.346  0.00  0.00    +0.306 A 
ATOM     12 CL   UNL     1      10.359   2.140  24.015  0.00  0.00    -0.009 Cl
ATOM     13  H   UNL     1      10.261   1.138  21.424  0.00  0.00    +0.455 HD
ATOM     14  C   UNL     1       9.494  -0.390  24.162  0.00  0.00    +0.192 A 
ATOM     15  N   UNL     1       9.333  -0.500  25.523  0.00  0.00    -0.227 NA
ATOM     16  C   UNL     1       8.965  -1.746  25.744  0.00  0.00    +0.204 A 
ENDBRANCH   3   6
BRANCH   1  17
ATOM     17  O   UNL     1       7.924  -5.727  27.502  0.00  0.00    -0.386 OA
ATOM     18  H   UNL     1       7.798  -4.840  27.890  0.00  0.00    +0.210 HD
ENDBRANCH   1  17
BRANCH   2  19
ATOM     19  O   UNL     1      10.224  -5.538  25.256  0.00  0.00    -0.385 OA
ATOM     20  H   UNL     1       9.935  -6.468  25.288  0.00  0.00    +0.210 HD
ENDBRANCH   2  19
BRANCH   5  21
ATOM     21  C   UNL     1       5.546  -5.657  25.263  0.00  0.00    +0.206 C 
BRANCH  21  22
ATOM     22  O   UNL     1       5.492  -6.748  26.173  0.00  0.00    -0.284 OA
BRANCH  22  23
ATOM     23  P   UNL     1       4.472  -6.451  27.538  0.00  0.00    +0.472 P 
ATOM     24  O   UNL     1       3.559  -6.186  28.760  0.00  0.00    -0.228 OA
BRANCH  23  25
ATOM     25  O   UNL     1       5.383  -7.522  28.369  0.00  0.00    -0.303 OA
ATOM     26  H   UNL     1       4.762  -8.248  28.592  0.00  0.00    +0.222 HD
ENDBRANCH  23  25
BRANCH  23  27
ATOM     27  O   UNL     1       3.500  -7.552  26.829  0.00  0.00    -0.303 OA
ATOM     28  H   UNL     1       2.712  -7.676  27.386  0.00  0.00    +0.222 HD
ENDBRANCH  23  27
ENDBRANCH  22  23
ENDBRANCH  21  22
ENDBRANCH   5  21
TORSDOF 8
ENDMDL
MODEL 2
REMARK VINA RESULT:      -7.1      1.728      2.207
REMARK  Name = 
REMARK  8 active torsions:
REMARK  status: ('A' for Active; 'I' for Inactive)
REMARK    1  A    between atoms: O_1  and  C_2
REMARK    2  A    between atoms: C_4  and  C_6
REMARK    3  A    between atoms: C_6  and  O_7
REMARK    4  A    between atoms: O_7  and  P_8
REMARK    5  A    between atoms: P_8  and  O_9
REMARK    6  A    between atoms: P_8  and  O_10
REMARK    7  A    between atoms: C_13  and  N_18
REMARK    8  A    between atoms: C_15  and  O_17
REMARK                            x       y       z     vdW  Elec       q    Type
REMARK                         _______ _______ _______ _____ _____    ______ ____
ROOT
ATOM      1  C   UNL     1       8.011  -5.439  26.035  0.00  0.00    +0.178 C 
ATOM      2  C   UNL     1       9.164  -4.588  25.519  0.00  0.00    +0.195 C 
ATOM      3  C   UNL     1       8.519  -3.744  24.416  0.00  0.00    +0.253 C 
ATOM      4  O   UNL     1       7.088  -3.895  24.479  0.00  0.00    -0.346 OA
ATOM      5  C   UNL     1       6.776  -4.621  25.676  0.00  0.00    +0.178 C 
ENDROOT
BRANCH   3   6
ATOM      6  N   UNL     1       8.829  -2.323  24.497  0.00  0.00    -0.285 N 
ATOM      7  C   UNL     1       9.122  -1.464  23.465  0.00  0.00    +0.176 A 
ATOM      8  N   UNL     1       9.087  -1.715  22.143  0.00  0.00    -0.173 NA
ATOM      9  C   UNL     1       9.511  -0.652  21.431  0.00  0.00    +0.430 A 
ATOM     10  N   UNL     1       9.902   0.515  21.940  0.00  0.00    -0.183 N 
ATOM     11  C   UNL     1       9.905   0.771  23.246  0.00  0.00    +0.306 A 
ATOM     12 CL   UNL     1      10.408   2.243  23.907  0.00  0.00    -0.009 Cl
ATOM     13  H   UNL     1      10.218   1.252  21.317  0.00  0.00    +0.455 HD
ATOM     14  C   UNL     1       9.488  -0.267  24.069  0.00  0.00    +0.192 A 
ATOM     15  N   UNL     1       9.360  -0.378  25.434  0.00  0.00    -0.227 NA
ATOM     16  C   UNL     1       8.969  -1.615  25.662  0.00  0.00    +0.204 A 
ENDBRANCH   3   6
BRANCH   1  17
ATOM     17  O   UNL     1       8.124  -5.630  27.443  0.00  0.00    -0.386 OA
ATOM     18  H   UNL     1       7.273  -5.362  27.838  0.00  0.00    +0.210 HD
ENDBRANCH   1  17
BRANCH   2  19
ATOM     19  O   UNL     1      10.180  -5.438  24.973  0.00  0.00    -0.385 OA
ATOM     20  H   UNL     1       9.830  -5.881  24.178  0.00  0.00    +0.210 HD
ENDBRANCH   2  19
BRANCH   5  21
ATOM     21  C   UNL     1       5.527  -5.471  25.466  0.00  0.00    +0.206 C 
BRANCH  21  22
ATOM     22  O   UNL     1       5.508  -5.975  24.136  0.00  0.00    -0.284 OA
BRANCH  22  23
ATOM     23  P   UNL     1       3.945  -5.902  23.399  0.00  0.00    +0.472 P 
ATOM     24  O   UNL     1       2.546  -5.837  22.738  0.00  0.00    -0.228 OA
BRANCH  23  25
ATOM     25  O   UNL     1       3.802  -7.501  23.696  0.00  0.00    -0.303 OA
ATOM     26  H   UNL     1       2.834  -7.661  23.705  0.00  0.00    +0.222 HD
ENDBRANCH  23  25
BRANCH  23  27
ATOM     27  O   UNL     1       4.788  -6.052  22.010  0.00  0.00    -0.303 OA
ATOM     28  H   UNL     1       4.160  -6.188  21.279  0.00  0.00    +0.222 HD
ENDBRANCH  23  27
ENDBRANCH  22  23
ENDBRANCH  21  22
ENDBRANCH   5  21
TORSDOF 8
ENDMDL
MODEL 3
REMARK VINA RESULT:      -6.9      0.927      1.978
REMARK  Name = 
REMARK  8 active torsions:
REMARK  status: ('A' for Active; 'I' for Inactive)
REMARK    1  A    between atoms: O_1  and  C_2
REMARK    2  A    between atoms: C_4  and  C_6
REMARK    3  A    between atoms: C_6  and  O_7
REMARK    4  A    between atoms: O_7  and  P_8
REMARK    5  A    between atoms: P_8  and  O_9
REMARK    6  A    between atoms: P_8  and  O_10
REMARK    7  A    between atoms: C_13  and  N_18
REMARK    8  A    between atoms: C_15  and  O_17
REMARK                            x       y       z     vdW  Elec       q    Type
REMARK                         _______ _______ _______ _____ _____    ______ ____
ROOT
ATOM      1  C   UNL     1       8.109  -5.408  26.143  0.00  0.00    +0.178 C 
ATOM      2  C   UNL     1       9.351  -4.671  25.659  0.00  0.00    +0.195 C 
ATOM      3  C   UNL     1       8.890  -4.011  24.356  0.00  0.00    +0.253 C 
ATOM      4  O   UNL     1       7.458  -4.128  24.246  0.00  0.00    -0.346 OA
ATOM      5  C   UNL     1       6.963  -4.643  25.490  0.00  0.00    +0.178 C 
ENDROOT
BRANCH   3   6
ATOM      6  N   UNL     1       9.238  -2.601  24.248  0.00  0.00    -0.285 N 
ATOM      7  C   UNL     1       8.903  -1.582  25.107  0.00  0.00    +0.176 A 
ATOM      8  N   UNL     1       8.271  -1.671  26.292  0.00  0.00    -0.173 NA
ATOM      9  C   UNL     1       8.047  -0.452  26.821  0.00  0.00    +0.430 A 
ATOM     10  N   UNL     1       8.408   0.707  26.276  0.00  0.00    -0.183 N 
ATOM     11  C   UNL     1       9.062   0.791  25.120  0.00  0.00    +0.306 A 
ATOM     12 CL   UNL     1       9.518   2.255  24.410  0.00  0.00    -0.009 Cl
ATOM     13  H   UNL     1       8.180   1.577  26.749  0.00  0.00    +0.455 HD
ATOM     14  C   UNL     1       9.338  -0.415  24.489  0.00  0.00    +0.192 A 
ATOM     15  N   UNL     1       9.976  -0.724  23.311  0.00  0.00    -0.227 NA
ATOM     16  C   UNL     1       9.899  -2.034  23.191  0.00  0.00    +0.204 A 
ENDBRANCH   3   6
BRANCH   1  17
ATOM     17  O   UNL     1       8.026  -5.365  27.565  0.00  0.00    -0.386 OA
ATOM     18  H   UNL     1       8.530  -4.583  27.859  0.00  0.00    +0.210 HD
ENDBRANCH   1  17
BRANCH   2  19
ATOM     19  O   UNL     1      10.398  -5.614  25.402  0.00  0.00    -0.385 OA
ATOM     20  H   UNL     1      10.282  -5.981  24.508  0.00  0.00    +0.210 HD
ENDBRANCH   2  19
BRANCH   5  21
ATOM     21  C   UNL     1       5.723  -5.497  25.251  0.00  0.00    +0.206 C 
BRANCH  21  22
ATOM     22  O   UNL     1       5.714  -6.593  26.158  0.00  0.00    -0.284 OA
BRANCH  22  23
ATOM     23  P   UNL     1       4.467  -6.484  27.353  0.00  0.00    +0.472 P 
ATOM     24  O   UNL     1       3.352  -6.386  28.422  0.00  0.00    -0.228 OA
BRANCH  23  25
ATOM     25  O   UNL     1       5.322  -7.548  28.248  0.00  0.00    -0.303 OA
ATOM     26  H   UNL     1       6.243  -7.457  27.922  0.00  0.00    +0.222 HD
ENDBRANCH  23  25
BRANCH  23  27
ATOM     27  O   UNL     1       3.719  -7.593  26.419  0.00  0.00    -0.303 OA
ATOM     28  H   UNL     1       3.648  -7.240  25.515  0.00  0.00    +0.222 HD
ENDBRANCH  23  27
ENDBRANCH  22  23
ENDBRANCH  21  22
ENDBRANCH   5  21
TORSDOF 8
ENDMDL
MODEL 4
REMARK VINA RESULT:      -6.8      1.898      2.958
REMARK  Name = 
REMARK  8 active torsions:
REMARK  status: ('A' for Active; 'I' for Inactive)
REMARK    1  A    between atoms: O_1  and  C_2
REMARK    2  A    between atoms: C_4  and  C_6
REMARK    3  A    between atoms: C_6  and  O_7
REMARK    4  A    between atoms: O_7  and  P_8
REMARK    5  A    between atoms: P_8  and  O_9
REMARK    6  A    between atoms: P_8  and  O_10
REMARK    7  A    between atoms: C_13  and  N_18
REMARK    8  A    between atoms: C_15  and  O_17
REMARK                            x       y       z     vdW  Elec       q    Type
REMARK                         _______ _______ _______ _____ _____    ______ ____
ROOT
ATOM      1  C   UNL     1       7.782  -5.585  26.144  0.00  0.00    +0.178 C 
ATOM      2  C   UNL     1       9.013  -4.942  25.518  0.00  0.00    +0.195 C 
ATOM      3  C   UNL     1       8.451  -4.207  24.298  0.00  0.00    +0.253 C 
ATOM      4  O   UNL     1       7.012  -4.198  24.371  0.00  0.00    -0.346 OA
ATOM      5  C   UNL     1       6.635  -4.706  25.659  0.00  0.00    +0.178 C 
ENDROOT
BRANCH   3   6
ATOM      6  N   UNL     1       8.906  -2.829  24.173  0.00  0.00    -0.285 N 
ATOM      7  C   UNL     1       8.799  -1.819  25.099  0.00  0.00    +0.176 A 
ATOM      8  N   UNL     1       8.349  -1.899  26.365  0.00  0.00    -0.173 NA
ATOM      9  C   UNL     1       8.319  -0.687  26.953  0.00  0.00    +0.430 A 
ATOM     10  N   UNL     1       8.698   0.458  26.387  0.00  0.00    -0.183 N 
ATOM     11  C   UNL     1       9.174   0.529  25.147  0.00  0.00    +0.306 A 
ATOM     12 CL   UNL     1       9.649   1.975  24.412  0.00  0.00    -0.009 Cl
ATOM     13  H   UNL     1       8.625   1.324  26.912  0.00  0.00    +0.455 HD
ATOM     14  C   UNL     1       9.240  -0.671  24.451  0.00  0.00    +0.192 A 
ATOM     15  N   UNL     1       9.662  -0.988  23.181  0.00  0.00    -0.227 NA
ATOM     16  C   UNL     1       9.449  -2.281  23.041  0.00  0.00    +0.204 A 
ENDBRANCH   3   6
BRANCH   1  17
ATOM     17  O   UNL     1       7.884  -5.579  27.565  0.00  0.00    -0.386 OA
ATOM     18  H   UNL     1       7.793  -6.503  27.864  0.00  0.00    +0.210 HD
ENDBRANCH   1  17
BRANCH   2  19
ATOM     19  O   UNL     1       9.931  -5.963  25.111  0.00  0.00    -0.385 OA
ATOM     20  H   UNL     1      10.501  -5.614  24.402  0.00  0.00    +0.210 HD
ENDBRANCH   2  19
BRANCH   5  21
ATOM     21  C   UNL     1       5.304  -5.444  25.565  0.00  0.00    +0.206 C 
BRANCH  21  22
ATOM     22  O   UNL     1       5.248  -6.179  24.349  0.00  0.00    -0.284 OA
BRANCH  22  23
ATOM     23  P   UNL     1       3.757  -5.977  23.494  0.00  0.00    +0.472 P 
ATOM     24  O   UNL     1       2.423  -5.796  22.730  0.00  0.00    -0.228 OA
BRANCH  23  25
ATOM     25  O   UNL     1       3.529  -7.586  23.643  0.00  0.00    -0.303 OA
ATOM     26  H   UNL     1       2.783  -7.670  24.275  0.00  0.00    +0.222 HD
ENDBRANCH  23  25
BRANCH  23  27
ATOM     27  O   UNL     1       4.709  -6.050  22.172  0.00  0.00    -0.303 OA
ATOM     28  H   UNL     1       4.304  -6.660  21.531  0.00  0.00    +0.222 HD
ENDBRANCH  23  27
ENDBRANCH  22  23
ENDBRANCH  21  22
ENDBRANCH   5  21
TORSDOF 8
ENDMDL
MODEL 5
REMARK VINA RESULT:      -6.8      2.564      3.880
REMARK  Name = 
REMARK  8 active torsions:
REMARK  status: ('A' for Active; 'I' for Inactive)
REMARK    1  A    between atoms: O_1  and  C_2
REMARK    2  A    between atoms: C_4  and  C_6
REMARK    3  A    between atoms: C_6  and  O_7
REMARK    4  A    between atoms: O_7  and  P_8
REMARK    5  A    between atoms: P_8  and  O_9
REMARK    6  A    between atoms: P_8  and  O_10
REMARK    7  A    between atoms: C_13  and  N_18
REMARK    8  A    between atoms: C_15  and  O_17
REMARK                            x       y       z     vdW  Elec       q    Type
REMARK                         _______ _______ _______ _____ _____    ______ ____
ROOT
ATOM      1  C   UNL     1       9.007  -2.761  23.671  0.00  0.00    +0.178 C 
ATOM      2  C   UNL     1       9.612  -1.629  22.851  0.00  0.00    +0.195 C 
ATOM      3  C   UNL     1       8.649  -0.462  23.089  0.00  0.00    +0.253 C 
ATOM      4  O   UNL     1       7.741  -0.806  24.152  0.00  0.00    -0.346 OA
ATOM      5  C   UNL     1       8.194  -2.035  24.737  0.00  0.00    +0.178 C 
ENDROOT
BRANCH   3   6
ATOM      6  N   UNL     1       9.306   0.789  23.442  0.00  0.00    -0.285 N 
ATOM      7  C   UNL     1       8.828   2.067  23.282  0.00  0.00    +0.176 A 
ATOM      8  N   UNL     1       7.607   2.448  22.862  0.00  0.00    -0.173 NA
ATOM      9  C   UNL     1       7.521   3.789  22.757  0.00  0.00    +0.430 A 
ATOM     10  N   UNL     1       8.494   4.652  23.043  0.00  0.00    -0.183 N 
ATOM     11  C   UNL     1       9.689   4.274  23.490  0.00  0.00    +0.306 A 
ATOM     12 CL   UNL     1      10.936   5.357  23.848  0.00  0.00    -0.009 Cl
ATOM     13  H   UNL     1       8.333   5.647  22.919  0.00  0.00    +0.455 HD
ATOM     14  C   UNL     1       9.881   2.905  23.628  0.00  0.00    +0.192 A 
ATOM     15  N   UNL     1      10.954   2.154  24.048  0.00  0.00    -0.227 NA
ATOM     16  C   UNL     1      10.584   0.895  23.924  0.00  0.00    +0.204 A 
ENDBRANCH   3   6
BRANCH   1  17
ATOM     17  O   UNL     1      10.034  -3.562  24.250  0.00  0.00    -0.386 OA
ATOM     18  H   UNL     1       9.612  -4.126  24.925  0.00  0.00    +0.210 HD
ENDBRANCH   1  17
BRANCH   2  19
ATOM     19  O   UNL     1       9.627  -1.996  21.467  0.00  0.00    -0.385 OA
ATOM     20  H   UNL     1      10.550  -2.052  21.163  0.00  0.00    +0.210 HD
ENDBRANCH   2  19
BRANCH   5  21
ATOM     21  C   UNL     1       7.008  -2.845  25.250  0.00  0.00    +0.206 C 
BRANCH  21  22
ATOM     22  O   UNL     1       7.274  -4.233  25.098  0.00  0.00    -0.284 OA
BRANCH  22  23
ATOM     23  P   UNL     1       7.313  -5.092  26.600  0.00  0.00    +0.472 P 
ATOM     24  O   UNL     1       7.349  -5.860  27.943  0.00  0.00    -0.228 OA
BRANCH  23  25
ATOM     25  O   UNL     1       8.705  -5.780  26.094  0.00  0.00    -0.303 OA
ATOM     26  H   UNL     1       8.739  -6.638  26.570  0.00  0.00    +0.222 HD
ENDBRANCH  23  25
BRANCH  23  27
ATOM     27  O   UNL     1       6.312  -6.125  25.833  0.00  0.00    -0.303 OA
ATOM     28  H   UNL     1       6.829  -6.637  25.186  0.00  0.00    +0.222 HD
ENDBRANCH  23  27
ENDBRANCH  22  23
ENDBRANCH  21  22
ENDBRANCH   5  21
TORSDOF 8
ENDMDL
MODEL 6
REMARK VINA RESULT:      -6.7      1.725      2.060
REMARK  Name = 
REMARK  8 active torsions:
REMARK  status: ('A' for Active; 'I' for Inactive)
REMARK    1  A    between atoms: O_1  and  C_2
REMARK    2  A    between atoms: C_4  and  C_6
REMARK    3  A    between atoms: C_6  and  O_7
REMARK    4  A    between atoms: O_7  and  P_8
REMARK    5  A    between atoms: P_8  and  O_9
REMARK    6  A    between atoms: P_8  and  O_10
REMARK    7  A    between atoms: C_13  and  N_18
REMARK    8  A    between atoms: C_15  and  O_17
REMARK                            x       y       z     vdW  Elec       q    Type
REMARK                         _______ _______ _______ _____ _____    ______ ____
ROOT
ATOM      1  C   UNL     1       7.765  -5.211  25.554  0.00  0.00    +0.178 C 
ATOM      2  C   UNL     1       8.342  -4.661  24.256  0.00  0.00    +0.195 C 
ATOM      3  C   UNL     1       7.562  -3.361  24.041  0.00  0.00    +0.253 C 
ATOM      4  O   UNL     1       6.812  -3.056  25.232  0.00  0.00    -0.346 OA
ATOM      5  C   UNL     1       7.223  -3.972  26.257  0.00  0.00    +0.178 C 
ENDROOT
BRANCH   3   6
ATOM      6  N   UNL     1       8.399  -2.211  23.727  0.00  0.00    -0.285 N 
ATOM      7  C   UNL     1       7.994  -0.948  23.365  0.00  0.00    +0.176 A 
ATOM      8  N   UNL     1       6.741  -0.460  23.321  0.00  0.00    -0.173 NA
ATOM      9  C   UNL     1       6.721   0.801  22.847  0.00  0.00    +0.430 A 
ATOM     10  N   UNL     1       7.789   1.506  22.478  0.00  0.00    -0.183 N 
ATOM     11  C   UNL     1       9.031   1.033  22.553  0.00  0.00    +0.306 A 
ATOM     12 CL   UNL     1      10.394   1.912  22.080  0.00  0.00    -0.009 Cl
ATOM     13  H   UNL     1       7.668   2.449  22.119  0.00  0.00    +0.455 HD
ATOM     14  C   UNL     1       9.158  -0.267  23.027  0.00  0.00    +0.192 A 
ATOM     15  N   UNL     1      10.249  -1.077  23.238  0.00  0.00    -0.227 NA
ATOM     16  C   UNL     1       9.767  -2.231  23.653  0.00  0.00    +0.204 A 
ENDBRANCH   3   6
BRANCH   1  17
ATOM     17  O   UNL     1       8.783  -5.848  26.322  0.00  0.00    -0.386 OA
ATOM     18  H   UNL     1       9.640  -5.529  25.982  0.00  0.00    +0.210 HD
ENDBRANCH   1  17
BRANCH   2  19
ATOM     19  O   UNL     1       8.087  -5.583  23.190  0.00  0.00    -0.385 OA
ATOM     20  H   UNL     1       8.313  -6.482  23.487  0.00  0.00    +0.210 HD
ENDBRANCH   2  19
BRANCH   5  21
ATOM     21  C   UNL     1       6.059  -4.269  27.196  0.00  0.00    +0.206 C 
BRANCH  21  22
ATOM     22  O   UNL     1       5.858  -5.675  27.281  0.00  0.00    -0.284 OA
BRANCH  22  23
ATOM     23  P   UNL     1       5.843  -6.268  28.906  0.00  0.00    +0.472 P 
ATOM     24  O   UNL     1       5.830  -6.800  30.360  0.00  0.00    -0.228 OA
BRANCH  23  25
ATOM     25  O   UNL     1       7.397  -6.719  28.686  0.00  0.00    -0.303 OA
ATOM     26  H   UNL     1       7.342  -7.506  28.103  0.00  0.00    +0.222 HD
ENDBRANCH  23  25
BRANCH  23  27
ATOM     27  O   UNL     1       5.174  -7.593  28.228  0.00  0.00    -0.303 OA
ATOM     28  H   UNL     1       5.862  -8.070  27.733  0.00  0.00    +0.222 HD
ENDBRANCH  23  27
ENDBRANCH  22  23
ENDBRANCH  21  22
ENDBRANCH   5  21
TORSDOF 8
ENDMDL
MODEL 7
REMARK VINA RESULT:      -6.6      5.413      8.032
REMARK  Name = 
REMARK  8 active torsions:
REMARK  status: ('A' for Active; 'I' for Inactive)
REMARK    1  A    between atoms: O_1  and  C_2
REMARK    2  A    between atoms: C_4  and  C_6
REMARK    3  A    between atoms: C_6  and  O_7
REMARK    4  A    between atoms: O_7  and  P_8
REMARK    5  A    between atoms: P_8  and  O_9
REMARK    6  A    between atoms: P_8  and  O_10
REMARK    7  A    between atoms: C_13  and  N_18
REMARK    8  A    between atoms: C_15  and  O_17
REMARK                            x       y       z     vdW  Elec       q    Type
REMARK                         _______ _______ _______ _____ _____    ______ ____
ROOT
ATOM      1  C   UNL     1       9.647   0.395  22.360  0.00  0.00    +0.178 C 
ATOM      2  C   UNL     1       9.464  -1.108  22.190  0.00  0.00    +0.195 C 
ATOM      3  C   UNL     1       9.339  -1.617  23.628  0.00  0.00    +0.253 C 
ATOM      4  O   UNL     1       9.188  -0.494  24.517  0.00  0.00    -0.346 OA
ATOM      5  C   UNL     1       9.009   0.681  23.714  0.00  0.00    +0.178 C 
ENDROOT
BRANCH   3   6
ATOM      6  N   UNL     1       8.216  -2.519  23.844  0.00  0.00    -0.285 N 
ATOM      7  C   UNL     1       8.098  -3.506  24.793  0.00  0.00    +0.176 A 
ATOM      8  N   UNL     1       8.943  -3.792  25.801  0.00  0.00    -0.173 NA
ATOM      9  C   UNL     1       8.538  -4.877  26.489  0.00  0.00    +0.430 A 
ATOM     10  N   UNL     1       7.438  -5.585  26.240  0.00  0.00    -0.183 N 
ATOM     11  C   UNL     1       6.586  -5.281  25.263  0.00  0.00    +0.306 A 
ATOM     12 CL   UNL     1       5.192  -6.175  24.928  0.00  0.00    -0.009 Cl
ATOM     13  H   UNL     1       7.225  -6.398  26.810  0.00  0.00    +0.455 HD
ATOM     14  C   UNL     1       6.919  -4.176  24.489  0.00  0.00    +0.192 A 
ATOM     15  N   UNL     1       6.304  -3.572  23.418  0.00  0.00    -0.227 NA
ATOM     16  C   UNL     1       7.101  -2.589  23.051  0.00  0.00    +0.204 A 
ENDBRANCH   3   6
BRANCH   1  17
ATOM     17  O   UNL     1       8.988   1.099  21.310  0.00  0.00    -0.386 OA
ATOM     18  H   UNL     1       8.256   1.600  21.716  0.00  0.00    +0.210 HD
ENDBRANCH   1  17
BRANCH   2  19
ATOM     19  O   UNL     1      10.625  -1.662  21.559  0.00  0.00    -0.385 OA
ATOM     20  H   UNL     1      10.435  -1.805  20.614  0.00  0.00    +0.210 HD
ENDBRANCH   2  19
BRANCH   5  21
ATOM     21  C   UNL     1       9.602   1.897  24.418  0.00  0.00    +0.206 C 
BRANCH  21  22
ATOM     22  O   UNL     1       9.778   2.953  23.483  0.00  0.00    -0.284 OA
BRANCH  22  23
ATOM     23  P   UNL     1       8.578   4.192  23.614  0.00  0.00    +0.472 P 
ATOM     24  O   UNL     1       7.504   5.301  23.730  0.00  0.00    -0.228 OA
BRANCH  23  25
ATOM     25  O   UNL     1       8.088   3.785  22.110  0.00  0.00    -0.303 OA
ATOM     26  H   UNL     1       8.861   3.327  21.718  0.00  0.00    +0.222 HD
ENDBRANCH  23  25
BRANCH  23  27
ATOM     27  O   UNL     1       9.794   5.174  23.147  0.00  0.00    -0.303 OA
ATOM     28  H   UNL     1       9.412   5.960  22.720  0.00  0.00    +0.222 HD
ENDBRANCH  23  27
ENDBRANCH  22  23
ENDBRANCH  21  22
ENDBRANCH   5  21
TORSDOF 8
ENDMDL
MODEL 8
REMARK VINA RESULT:      -6.6      1.909      3.039
REMARK  Name = 
REMARK  8 active torsions:
REMARK  status: ('A' for Active; 'I' for Inactive)
REMARK    1  A    between atoms: O_1  and  C_2
REMARK    2  A    between atoms: C_4  and  C_6
REMARK    3  A    between atoms: C_6  and  O_7
REMARK    4  A    between atoms: O_7  and  P_8
REMARK    5  A    between atoms: P_8  and  O_9
REMARK    6  A    between atoms: P_8  and  O_10
REMARK    7  A    between atoms: C_13  and  N_18
REMARK    8  A    between atoms: C_15  and  O_17
REMARK                            x       y       z     vdW  Elec       q    Type
REMARK                         _______ _______ _______ _____ _____    ______ ____
ROOT
ATOM      1  C   UNL     1       5.596  -5.264  23.188  0.00  0.00    +0.178 C 
ATOM      2  C   UNL     1       6.213  -3.989  22.627  0.00  0.00    +0.195 C 
ATOM      3  C   UNL     1       6.295  -3.066  23.846  0.00  0.00    +0.253 C 
ATOM      4  O   UNL     1       6.012  -3.825  25.036  0.00  0.00    -0.346 OA
ATOM      5  C   UNL     1       5.953  -5.211  24.669  0.00  0.00    +0.178 C 
ENDROOT
BRANCH   3   6
ATOM      6  N   UNL     1       7.590  -2.421  24.018  0.00  0.00    -0.285 N 
ATOM      7  C   UNL     1       7.858  -1.217  24.623  0.00  0.00    +0.176 A 
ATOM      8  N   UNL     1       7.004  -0.413  25.283  0.00  0.00    -0.173 NA
ATOM      9  C   UNL     1       7.608   0.725  25.679  0.00  0.00    +0.430 A 
ATOM     10  N   UNL     1       8.887   1.034  25.475  0.00  0.00    -0.183 N 
ATOM     11  C   UNL     1       9.737   0.223  24.850  0.00  0.00    +0.306 A 
ATOM     12 CL   UNL     1      11.360   0.605  24.575  0.00  0.00    -0.009 Cl
ATOM     13  H   UNL     1       9.246   1.926  25.803  0.00  0.00    +0.455 HD
ATOM     14  C   UNL     1       9.209  -0.979  24.397  0.00  0.00    +0.192 A 
ATOM     15  N   UNL     1       9.761  -2.043  23.723  0.00  0.00    -0.227 NA
ATOM     16  C   UNL     1       8.773  -2.887  23.508  0.00  0.00    +0.204 A 
ENDBRANCH   3   6
BRANCH   1  17
ATOM     17  O   UNL     1       6.157  -6.410  22.553  0.00  0.00    -0.386 OA
ATOM     18  H   UNL     1       5.614  -6.595  21.764  0.00  0.00    +0.210 HD
ENDBRANCH   1  17
BRANCH   2  19
ATOM     19  O   UNL     1       5.345  -3.434  21.632  0.00  0.00    -0.385 OA
ATOM     20  H   UNL     1       5.854  -2.821  21.072  0.00  0.00    +0.210 HD
ENDBRANCH   2  19
BRANCH   5  21
ATOM     21  C   UNL     1       4.958  -5.950  25.558  0.00  0.00    +0.206 C 
BRANCH  21  22
ATOM     22  O   UNL     1       5.660  -6.757  26.495  0.00  0.00    -0.284 OA
BRANCH  22  23
ATOM     23  P   UNL     1       5.828  -6.015  28.048  0.00  0.00    +0.472 P 
ATOM     24  O   UNL     1       5.978  -5.351  29.439  0.00  0.00    -0.228 OA
BRANCH  23  25
ATOM     25  O   UNL     1       7.445  -6.130  27.857  0.00  0.00    -0.303 OA
ATOM     26  H   UNL     1       7.798  -5.315  28.273  0.00  0.00    +0.222 HD
ENDBRANCH  23  25
BRANCH  23  27
ATOM     27  O   UNL     1       5.603  -7.534  28.602  0.00  0.00    -0.303 OA
ATOM     28  H   UNL     1       5.821  -8.159  27.889  0.00  0.00    +0.222 HD
ENDBRANCH  23  27
ENDBRANCH  22  23
ENDBRANCH  21  22
ENDBRANCH   5  21
TORSDOF 8
ENDMDL
MODEL 9
REMARK VINA RESULT:      -6.3      3.403      4.557
REMARK  Name = 
REMARK  8 active torsions:
REMARK  status: ('A' for Active; 'I' for Inactive)
REMARK    1  A    between atoms: O_1  and  C_2
REMARK    2  A    between atoms: C_4  and  C_6
REMARK    3  A    between atoms: C_6  and  O_7
REMARK    4  A    between atoms: O_7  and  P_8
REMARK    5  A    between atoms: P_8  and  O_9
REMARK    6  A    between atoms: P_8  and  O_10
REMARK    7  A    between atoms: C_13  and  N_18
REMARK    8  A    between atoms: C_15  and  O_17
REMARK                            x       y       z     vdW  Elec       q    Type
REMARK                         _______ _______ _______ _____ _____    ______ ____
ROOT
ATOM      1  C   UNL     1       8.936  -2.518  23.320  0.00  0.00    +0.178 C 
ATOM      2  C   UNL     1       9.647  -1.334  22.676  0.00  0.00    +0.195 C 
ATOM      3  C   UNL     1       8.589  -0.228  22.700  0.00  0.00    +0.253 C 
ATOM      4  O   UNL     1       7.483  -0.646  23.521  0.00  0.00    -0.346 OA
ATOM      5  C   UNL     1       7.860  -1.864  24.179  0.00  0.00    +0.178 C 
ENDROOT
BRANCH   3   6
ATOM      6  N   UNL     1       9.074   1.047  23.211  0.00  0.00    -0.285 N 
ATOM      7  C   UNL     1       8.554   2.299  22.985  0.00  0.00    +0.176 A 
ATOM      8  N   UNL     1       7.422   2.620  22.331  0.00  0.00    -0.173 NA
ATOM      9  C   UNL     1       7.269   3.956  22.242  0.00  0.00    +0.430 A 
ATOM     10  N   UNL     1       8.102   4.866  22.744  0.00  0.00    -0.183 N 
ATOM     11  C   UNL     1       9.203   4.545  23.419  0.00  0.00    +0.306 A 
ATOM     12 CL   UNL     1      10.275   5.688  24.052  0.00  0.00    -0.009 Cl
ATOM     13  H   UNL     1       7.904   5.853  22.612  0.00  0.00    +0.455 HD
ATOM     14  C   UNL     1       9.455   3.187  23.561  0.00  0.00    +0.192 A 
ATOM     15  N   UNL     1      10.467   2.487  24.176  0.00  0.00    -0.227 NA
ATOM     16  C   UNL     1      10.217   1.214  23.949  0.00  0.00    +0.204 A 
ENDBRANCH   3   6
BRANCH   1  17
ATOM     17  O   UNL     1       9.849  -3.278  24.109  0.00  0.00    -0.386 OA
ATOM     18  H   UNL     1       9.446  -4.156  24.248  0.00  0.00    +0.210 HD
ENDBRANCH   1  17
BRANCH   2  19
ATOM     19  O   UNL     1      10.000  -1.664  21.327  0.00  0.00    -0.385 OA
ATOM     20  H   UNL     1      10.340  -0.867  20.884  0.00  0.00    +0.210 HD
ENDBRANCH   2  19
BRANCH   5  21
ATOM     21  C   UNL     1       6.637  -2.749  24.394  0.00  0.00    +0.206 C 
BRANCH  21  22
ATOM     22  O   UNL     1       6.729  -3.903  23.568  0.00  0.00    -0.284 OA
BRANCH  22  23
ATOM     23  P   UNL     1       5.188  -4.533  23.098  0.00  0.00    +0.472 P 
ATOM     24  O   UNL     1       3.809  -5.097  22.677  0.00  0.00    -0.228 OA
BRANCH  23  25
ATOM     25  O   UNL     1       5.987  -5.702  22.286  0.00  0.00    -0.303 OA
ATOM     26  H   UNL     1       6.798  -5.856  22.816  0.00  0.00    +0.222 HD
ENDBRANCH  23  25
BRANCH  23  27
ATOM     27  O   UNL     1       5.280  -3.402  21.926  0.00  0.00    -0.303 OA
ATOM     28  H   UNL     1       5.929  -2.729  22.195  0.00  0.00    +0.222 HD
ENDBRANCH  23  27
ENDBRANCH  22  23
ENDBRANCH  21  22
ENDBRANCH   5  21
TORSDOF 8
ENDMDL
