MODEL 1
REMARK VINA RESULT:      -6.4      0.000      0.000
REMARK  Name = 
REMARK  18 active torsions:
REMARK  status: ('A' for Active; 'I' for Inactive)
REMARK    1  A    between atoms: C_3  and  O_31
REMARK    2  A    between atoms: C_6  and  O_8
REMARK    3  A    between atoms: C_13  and  C_15
REMARK    4  A    between atoms: C_16  and  C_18
REMARK    5  A    between atoms: C_18  and  C_19
REMARK    6  A    between atoms: C_19  and  C_20
REMARK    7  A    between atoms: C_20  and  O_22
REMARK    8  A    between atoms: C_20  and  C_23
REMARK    9  A    between atoms: C_23  and  C_24
REMARK   10  A    between atoms: C_24  and  O_26
REMARK   11  A    between atoms: C_24  and  C_27
REMARK   12  A    between atoms: C_27  and  C_28
REMARK   13  A    between atoms: C_28  and  O_29
REMARK   14  A    between atoms: O_31  and  C_32
REMARK   15  A    between atoms: C_32  and  C_34
REMARK   16  A    between atoms: C_34  and  C_36
REMARK   17  A    between atoms: C_34  and  C_37
REMARK   18  A    between atoms: C_37  and  C_38
REMARK                            x       y       z     vdW  Elec       q    Type
REMARK                         _______ _______ _______ _____ _____    ______ ____
ROOT
ATOM      1  C   UNL     1       6.941  -4.802  24.742  0.00  0.00    +0.063 C 
ATOM      2  C   UNL     1       6.769  -4.136  23.328  0.00  0.00    +0.007 C 
ATOM      3  C   UNL     1       5.914  -5.012  22.347  0.00  0.00    +0.012 C 
ATOM      4  C   UNL     1       6.693  -6.089  21.584  0.00  0.00    +0.012 C 
ATOM      5  C   UNL     1       4.743  -5.672  23.003  0.00  0.00    -0.023 C 
ATOM      6  C   UNL     1       4.658  -5.909  24.316  0.00  0.00    -0.000 C 
ATOM      7  C   UNL     1       5.686  -5.525  25.253  0.00  0.00    -0.042 C 
ATOM      8  C   UNL     1       5.511  -5.829  26.551  0.00  0.00    +0.008 C 
ATOM      9  C   UNL     1       6.409  -5.340  27.634  0.00  0.00    +0.141 C 
ATOM     10  C   UNL     1       6.949  -3.969  27.276  0.00  0.00    +0.080 C 
ATOM     11  C   UNL     1       7.585  -3.903  25.868  0.00  0.00    +0.187 C 
ENDROOT
BRANCH   9  12
ATOM     12  O   UNL     1       7.471  -6.252  27.856  0.00  0.00    -0.388 OA
ATOM     13  H   UNL     1       7.309  -6.713  28.697  0.00  0.00    +0.210 HD
ENDBRANCH   9  12
BRANCH   2  14
ATOM     14  C   UNL     1       8.102  -3.673  22.646  0.00  0.00    +0.007 C 
BRANCH  14  15
ATOM     15  C   UNL     1       7.985  -2.203  22.190  0.00  0.00    +0.032 C 
BRANCH  15  16
ATOM     16  C   UNL     1       9.189  -1.275  22.396  0.00  0.00    +0.117 C 
BRANCH  16  17
ATOM     17  O   UNL     1      10.243  -1.593  21.486  0.00  0.00    -0.392 OA
ATOM     18  H   UNL     1      10.102  -1.086  20.667  0.00  0.00    +0.210 HD
ENDBRANCH  16  17
BRANCH  16  19
ATOM     19  C   UNL     1       8.729   0.170  22.095  0.00  0.00    +0.063 C 
BRANCH  19  20
ATOM     20  C   UNL     1       9.852   1.213  22.038  0.00  0.00    +0.128 C 
BRANCH  20  21
ATOM     21  O   UNL     1       9.362   2.467  21.539  0.00  0.00    -0.391 OA
ATOM     22  H   UNL     1      10.143   2.947  21.174  0.00  0.00    +0.210 HD
ENDBRANCH  20  21
BRANCH  20  23
ATOM     23  C   UNL     1      10.408   1.472  23.441  0.00  0.00    +0.151 C 
BRANCH  23  24
ATOM     24  C   UNL     1       9.350   1.885  24.435  0.00  0.00    +0.307 C 
ATOM     25  O   UNL     1       8.701   2.918  24.327  0.00  0.00    -0.251 OA
BRANCH  24  26
ATOM     26  O   UNL     1       9.237   1.073  25.508  0.00  0.00    -0.481 OA
ATOM     27  H   UNL     1       8.936   0.167  25.245  0.00  0.00    +0.295 HD
ENDBRANCH  24  26
ENDBRANCH  23  24
ENDBRANCH  20  23
ENDBRANCH  19  20
ENDBRANCH  16  19
ENDBRANCH  15  16
ENDBRANCH  14  15
ENDBRANCH   2  14
BRANCH  11  28
ATOM     28  O   UNL     1       7.844  -2.521  25.516  0.00  0.00    -0.460 OA
BRANCH  28  29
ATOM     29  C   UNL     1       7.145  -1.518  26.110  0.00  0.00    +0.310 C 
ATOM     30  O   UNL     1       7.510  -0.864  27.077  0.00  0.00    -0.251 OA
BRANCH  29  31
ATOM     31  C   UNL     1       5.844  -1.288  25.366  0.00  0.00    +0.094 C 
ATOM     32  C   UNL     1       4.711  -1.114  26.373  0.00  0.00    +0.019 C 
BRANCH  31  33
ATOM     33  C   UNL     1       5.960  -0.062  24.454  0.00  0.00    +0.011 C 
ATOM     34  C   UNL     1       5.506   1.224  25.131  0.00  0.00    +0.004 C 
ENDBRANCH  31  33
ENDBRANCH  29  31
ENDBRANCH  28  29
ENDBRANCH  11  28
TORSDOF 15
ENDMDL
MODEL 2
REMARK VINA RESULT:      -6.3      1.097      1.625
REMARK  Name = 
REMARK  18 active torsions:
REMARK  status: ('A' for Active; 'I' for Inactive)
REMARK    1  A    between atoms: C_3  and  O_31
REMARK    2  A    between atoms: C_6  and  O_8
REMARK    3  A    between atoms: C_13  and  C_15
REMARK    4  A    between atoms: C_16  and  C_18
REMARK    5  A    between atoms: C_18  and  C_19
REMARK    6  A    between atoms: C_19  and  C_20
REMARK    7  A    between atoms: C_20  and  O_22
REMARK    8  A    between atoms: C_20  and  C_23
REMARK    9  A    between atoms: C_23  and  C_24
REMARK   10  A    between atoms: C_24  and  O_26
REMARK   11  A    between atoms: C_24  and  C_27
REMARK   12  A    between atoms: C_27  and  C_28
REMARK   13  A    between atoms: C_28  and  O_29
REMARK   14  A    between atoms: O_31  and  C_32
REMARK   15  A    between atoms: C_32  and  C_34
REMARK   16  A    between atoms: C_34  and  C_36
REMARK   17  A    between atoms: C_34  and  C_37
REMARK   18  A    between atoms: C_37  and  C_38
REMARK                            x       y       z     vdW  Elec       q    Type
REMARK                         _______ _______ _______ _____ _____    ______ ____
ROOT
ATOM      1  C   UNL     1       6.904  -4.690  24.715  0.00  0.00    +0.063 C 
ATOM      2  C   UNL     1       6.669  -4.018  23.313  0.00  0.00    +0.007 C 
ATOM      3  C   UNL     1       6.055  -5.009  22.263  0.00  0.00    +0.012 C 
ATOM      4  C   UNL     1       7.070  -5.879  21.513  0.00  0.00    +0.012 C 
ATOM      5  C   UNL     1       5.010  -5.913  22.836  0.00  0.00    -0.023 C 
ATOM      6  C   UNL     1       4.913  -6.213  24.135  0.00  0.00    -0.000 C 
ATOM      7  C   UNL     1       5.797  -5.668  25.137  0.00  0.00    -0.042 C 
ATOM      8  C   UNL     1       5.626  -6.050  26.415  0.00  0.00    +0.008 C 
ATOM      9  C   UNL     1       6.356  -5.434  27.558  0.00  0.00    +0.141 C 
ATOM     10  C   UNL     1       6.625  -3.970  27.268  0.00  0.00    +0.080 C 
ATOM     11  C   UNL     1       7.300  -3.725  25.900  0.00  0.00    +0.187 C 
ENDROOT
BRANCH   9  12
ATOM     12  O   UNL     1       7.567  -6.124  27.812  0.00  0.00    -0.388 OA
ATOM     13  H   UNL     1       7.425  -7.070  27.633  0.00  0.00    +0.210 HD
ENDBRANCH   9  12
BRANCH   2  14
ATOM     14  C   UNL     1       7.913  -3.273  22.717  0.00  0.00    +0.007 C 
BRANCH  14  15
ATOM     15  C   UNL     1       7.555  -1.805  22.404  0.00  0.00    +0.032 C 
BRANCH  15  16
ATOM     16  C   UNL     1       8.595  -0.718  22.705  0.00  0.00    +0.117 C 
BRANCH  16  17
ATOM     17  O   UNL     1       9.224  -0.264  21.507  0.00  0.00    -0.392 OA
ATOM     18  H   UNL     1       8.875   0.620  21.295  0.00  0.00    +0.210 HD
ENDBRANCH  16  17
BRANCH  16  19
ATOM     19  C   UNL     1       7.852   0.485  23.331  0.00  0.00    +0.063 C 
BRANCH  19  20
ATOM     20  C   UNL     1       8.692   1.342  24.288  0.00  0.00    +0.128 C 
BRANCH  20  21
ATOM     21  O   UNL     1       9.963   0.726  24.546  0.00  0.00    -0.391 OA
ATOM     22  H   UNL     1      10.542   1.429  24.926  0.00  0.00    +0.210 HD
ENDBRANCH  20  21
BRANCH  20  23
ATOM     23  C   UNL     1       8.972   2.713  23.668  0.00  0.00    +0.151 C 
BRANCH  23  24
ATOM     24  C   UNL     1      10.319   2.797  22.991  0.00  0.00    +0.307 C 
ATOM     25  O   UNL     1      11.293   3.326  23.510  0.00  0.00    -0.251 OA
BRANCH  24  26
ATOM     26  O   UNL     1      10.344   2.324  21.726  0.00  0.00    -0.481 OA
ATOM     27  H   UNL     1      10.992   2.822  21.167  0.00  0.00    +0.295 HD
ENDBRANCH  24  26
ENDBRANCH  23  24
ENDBRANCH  20  23
ENDBRANCH  19  20
ENDBRANCH  16  19
ENDBRANCH  15  16
ENDBRANCH  14  15
ENDBRANCH   2  14
BRANCH  11  28
ATOM     28  O   UNL     1       7.293  -2.307  25.601  0.00  0.00    -0.460 OA
BRANCH  28  29
ATOM     29  C   UNL     1       7.740  -1.409  26.519  0.00  0.00    +0.310 C 
ATOM     30  O   UNL     1       8.905  -1.239  26.848  0.00  0.00    -0.251 OA
BRANCH  29  31
ATOM     31  C   UNL     1       6.575  -0.601  27.055  0.00  0.00    +0.094 C 
ATOM     32  C   UNL     1       7.089   0.735  27.584  0.00  0.00    +0.019 C 
BRANCH  31  33
ATOM     33  C   UNL     1       5.522  -0.389  25.960  0.00  0.00    +0.011 C 
ATOM     34  C   UNL     1       5.088   1.064  25.831  0.00  0.00    +0.004 C 
ENDBRANCH  31  33
ENDBRANCH  29  31
ENDBRANCH  28  29
ENDBRANCH  11  28
TORSDOF 15
ENDMDL
MODEL 3
REMARK VINA RESULT:      -6.0      1.915      4.349
REMARK  Name = 
REMARK  18 active torsions:
REMARK  status: ('A' for Active; 'I' for Inactive)
REMARK    1  A    between atoms: C_3  and  O_31
REMARK    2  A    between atoms: C_6  and  O_8
REMARK    3  A    between atoms: C_13  and  C_15
REMARK    4  A    between atoms: C_16  and  C_18
REMARK    5  A    between atoms: C_18  and  C_19
REMARK    6  A    between atoms: C_19  and  C_20
REMARK    7  A    between atoms: C_20  and  O_22
REMARK    8  A    between atoms: C_20  and  C_23
REMARK    9  A    between atoms: C_23  and  C_24
REMARK   10  A    between atoms: C_24  and  O_26
REMARK   11  A    between atoms: C_24  and  C_27
REMARK   12  A    between atoms: C_27  and  C_28
REMARK   13  A    between atoms: C_28  and  O_29
REMARK   14  A    between atoms: O_31  and  C_32
REMARK   15  A    between atoms: C_32  and  C_34
REMARK   16  A    between atoms: C_34  and  C_36
REMARK   17  A    between atoms: C_34  and  C_37
REMARK   18  A    between atoms: C_37  and  C_38
REMARK                            x       y       z     vdW  Elec       q    Type
REMARK                         _______ _______ _______ _____ _____    ______ ____
ROOT
ATOM      1  C   UNL     1       5.385  -4.078  23.737  0.00  0.00    +0.063 C 
ATOM      2  C   UNL     1       5.120  -3.443  25.151  0.00  0.00    +0.007 C 
ATOM      3  C   UNL     1       3.819  -4.000  25.829  0.00  0.00    +0.012 C 
ATOM      4  C   UNL     1       2.519  -3.294  25.429  0.00  0.00    +0.012 C 
ATOM      5  C   UNL     1       3.624  -5.469  25.627  0.00  0.00    -0.023 C 
ATOM      6  C   UNL     1       4.177  -6.166  24.629  0.00  0.00    -0.000 C 
ATOM      7  C   UNL     1       5.053  -5.574  23.646  0.00  0.00    -0.042 C 
ATOM      8  C   UNL     1       5.540  -6.361  22.671  0.00  0.00    +0.008 C 
ATOM      9  C   UNL     1       6.582  -5.914  21.704  0.00  0.00    +0.141 C 
ATOM     10  C   UNL     1       7.516  -4.925  22.374  0.00  0.00    +0.080 C 
ATOM     11  C   UNL     1       6.782  -3.758  23.074  0.00  0.00    +0.187 C 
ENDROOT
BRANCH   9  12
ATOM     12  O   UNL     1       5.987  -5.339  20.553  0.00  0.00    -0.388 OA
ATOM     13  H   UNL     1       5.201  -4.838  20.832  0.00  0.00    +0.210 HD
ENDBRANCH   9  12
BRANCH   2  14
ATOM     14  C   UNL     1       5.143  -1.876  25.191  0.00  0.00    +0.007 C 
BRANCH  14  15
ATOM     15  C   UNL     1       5.997  -1.386  26.378  0.00  0.00    +0.032 C 
BRANCH  15  16
ATOM     16  C   UNL     1       7.071  -0.322  26.118  0.00  0.00    +0.117 C 
BRANCH  16  17
ATOM     17  O   UNL     1       8.379  -0.849  26.339  0.00  0.00    -0.392 OA
ATOM     18  H   UNL     1       8.597  -1.445  25.601  0.00  0.00    +0.210 HD
ENDBRANCH  16  17
BRANCH  16  19
ATOM     19  C   UNL     1       6.977   0.091  24.630  0.00  0.00    +0.063 C 
BRANCH  19  20
ATOM     20  C   UNL     1       8.261   0.684  24.037  0.00  0.00    +0.128 C 
BRANCH  20  21
ATOM     21  O   UNL     1       9.253  -0.335  23.840  0.00  0.00    -0.391 OA
ATOM     22  H   UNL     1       9.091  -1.020  24.532  0.00  0.00    +0.210 HD
ENDBRANCH  20  21
BRANCH  20  23
ATOM     23  C   UNL     1       7.976   1.306  22.667  0.00  0.00    +0.151 C 
BRANCH  23  24
ATOM     24  C   UNL     1       9.100   1.112  21.678  0.00  0.00    +0.307 C 
ATOM     25  O   UNL     1       9.301   0.054  21.097  0.00  0.00    -0.251 OA
BRANCH  24  26
ATOM     26  O   UNL     1       9.928   2.171  21.552  0.00  0.00    -0.481 OA
ATOM     27  H   UNL     1      10.306   2.440  22.427  0.00  0.00    +0.295 HD
ENDBRANCH  24  26
ENDBRANCH  23  24
ENDBRANCH  20  23
ENDBRANCH  19  20
ENDBRANCH  16  19
ENDBRANCH  15  16
ENDBRANCH  14  15
ENDBRANCH   2  14
BRANCH  11  28
ATOM     28  O   UNL     1       7.721  -3.010  23.886  0.00  0.00    -0.460 OA
BRANCH  28  29
ATOM     29  C   UNL     1       8.877  -3.588  24.309  0.00  0.00    +0.310 C 
ATOM     30  O   UNL     1      10.007  -3.205  24.047  0.00  0.00    -0.251 OA
BRANCH  29  31
ATOM     31  C   UNL     1       8.562  -4.772  25.203  0.00  0.00    +0.094 C 
ATOM     32  C   UNL     1       9.775  -5.695  25.263  0.00  0.00    +0.019 C 
BRANCH  31  33
ATOM     33  C   UNL     1       8.167  -4.292  26.604  0.00  0.00    +0.011 C 
ATOM     34  C   UNL     1       7.222  -5.252  27.313  0.00  0.00    +0.004 C 
ENDBRANCH  31  33
ENDBRANCH  29  31
ENDBRANCH  28  29
ENDBRANCH  11  28
TORSDOF 15
ENDMDL
MODEL 4
REMARK VINA RESULT:      -6.0      2.179      6.821
REMARK  Name = 
REMARK  18 active torsions:
REMARK  status: ('A' for Active; 'I' for Inactive)
REMARK    1  A    between atoms: C_3  and  O_31
REMARK    2  A    between atoms: C_6  and  O_8
REMARK    3  A    between atoms: C_13  and  C_15
REMARK    4  A    between atoms: C_16  and  C_18
REMARK    5  A    between atoms: C_18  and  C_19
REMARK    6  A    between atoms: C_19  and  C_20
REMARK    7  A    between atoms: C_20  and  O_22
REMARK    8  A    between atoms: C_20  and  C_23
REMARK    9  A    between atoms: C_23  and  C_24
REMARK   10  A    between atoms: C_24  and  O_26
REMARK   11  A    between atoms: C_24  and  C_27
REMARK   12  A    between atoms: C_27  and  C_28
REMARK   13  A    between atoms: C_28  and  O_29
REMARK   14  A    between atoms: O_31  and  C_32
REMARK   15  A    between atoms: C_32  and  C_34
REMARK   16  A    between atoms: C_34  and  C_36
REMARK   17  A    between atoms: C_34  and  C_37
REMARK   18  A    between atoms: C_37  and  C_38
REMARK                            x       y       z     vdW  Elec       q    Type
REMARK                         _______ _______ _______ _____ _____    ______ ____
ROOT
ATOM      1  C   UNL     1       8.177   1.226  23.181  0.00  0.00    +0.063 C 
ATOM      2  C   UNL     1       8.340  -0.261  23.666  0.00  0.00    +0.007 C 
ATOM      3  C   UNL     1       9.836  -0.732  23.676  0.00  0.00    +0.012 C 
ATOM      4  C   UNL     1      10.363  -1.264  22.339  0.00  0.00    +0.012 C 
ATOM      5  C   UNL     1      10.789   0.314  24.161  0.00  0.00    -0.023 C 
ATOM      6  C   UNL     1      10.529   1.625  24.144  0.00  0.00    -0.000 C 
ATOM      7  C   UNL     1       9.279   2.175  23.678  0.00  0.00    -0.042 C 
ATOM      8  C   UNL     1       9.128   3.510  23.685  0.00  0.00    +0.008 C 
ATOM      9  C   UNL     1       7.833   4.188  23.393  0.00  0.00    +0.141 C 
ATOM     10  C   UNL     1       6.681   3.325  23.868  0.00  0.00    +0.080 C 
ATOM     11  C   UNL     1       6.746   1.869  23.352  0.00  0.00    +0.187 C 
ENDROOT
BRANCH   9  12
ATOM     12  O   UNL     1       7.712   4.466  22.008  0.00  0.00    -0.388 OA
ATOM     13  H   UNL     1       7.124   5.233  21.900  0.00  0.00    +0.210 HD
ENDBRANCH   9  12
BRANCH   2  14
ATOM     14  C   UNL     1       7.430  -1.303  22.929  0.00  0.00    +0.007 C 
BRANCH  14  15
ATOM     15  C   UNL     1       6.948  -2.384  23.918  0.00  0.00    +0.032 C 
BRANCH  15  16
ATOM     16  C   UNL     1       7.375  -3.838  23.679  0.00  0.00    +0.117 C 
BRANCH  16  17
ATOM     17  O   UNL     1       7.600  -4.084  22.291  0.00  0.00    -0.392 OA
ATOM     18  H   UNL     1       8.370  -3.560  22.009  0.00  0.00    +0.210 HD
ENDBRANCH  16  17
BRANCH  16  19
ATOM     19  C   UNL     1       8.713  -4.066  24.419  0.00  0.00    +0.063 C 
BRANCH  19  20
ATOM     20  C   UNL     1       8.717  -5.240  25.408  0.00  0.00    +0.128 C 
BRANCH  20  21
ATOM     21  O   UNL     1       9.467  -4.912  26.588  0.00  0.00    -0.391 OA
ATOM     22  H   UNL     1       9.114  -5.483  27.311  0.00  0.00    +0.210 HD
ENDBRANCH  20  21
BRANCH  20  23
ATOM     23  C   UNL     1       7.290  -5.564  25.856  0.00  0.00    +0.151 C 
BRANCH  23  24
ATOM     24  C   UNL     1       7.057  -5.321  27.328  0.00  0.00    +0.307 C 
ATOM     25  O   UNL     1       6.655  -4.254  27.771  0.00  0.00    -0.251 OA
BRANCH  24  26
ATOM     26  O   UNL     1       7.415  -6.346  28.130  0.00  0.00    -0.481 OA
ATOM     27  H   UNL     1       6.783  -6.452  28.885  0.00  0.00    +0.295 HD
ENDBRANCH  24  26
ENDBRANCH  23  24
ENDBRANCH  20  23
ENDBRANCH  19  20
ENDBRANCH  16  19
ENDBRANCH  15  16
ENDBRANCH  14  15
ENDBRANCH   2  14
BRANCH  11  28
ATOM     28  O   UNL     1       5.760   1.063  24.045  0.00  0.00    -0.460 OA
BRANCH  28  29
ATOM     29  C   UNL     1       5.285   1.451  25.258  0.00  0.00    +0.310 C 
ATOM     30  O   UNL     1       4.137   1.792  25.503  0.00  0.00    -0.251 OA
BRANCH  29  31
ATOM     31  C   UNL     1       6.387   1.359  26.295  0.00  0.00    +0.094 C 
ATOM     32  C   UNL     1       6.101   2.343  27.425  0.00  0.00    +0.019 C 
BRANCH  31  33
ATOM     33  C   UNL     1       6.499  -0.074  26.830  0.00  0.00    +0.011 C 
ATOM     34  C   UNL     1       7.937  -0.491  27.106  0.00  0.00    +0.004 C 
ENDBRANCH  31  33
ENDBRANCH  29  31
ENDBRANCH  28  29
ENDBRANCH  11  28
TORSDOF 15
ENDMDL
MODEL 5
REMARK VINA RESULT:      -6.0      2.268      6.756
REMARK  Name = 
REMARK  18 active torsions:
REMARK  status: ('A' for Active; 'I' for Inactive)
REMARK    1  A    between atoms: C_3  and  O_31
REMARK    2  A    between atoms: C_6  and  O_8
REMARK    3  A    between atoms: C_13  and  C_15
REMARK    4  A    between atoms: C_16  and  C_18
REMARK    5  A    between atoms: C_18  and  C_19
REMARK    6  A    between atoms: C_19  and  C_20
REMARK    7  A    between atoms: C_20  and  O_22
REMARK    8  A    between atoms: C_20  and  C_23
REMARK    9  A    between atoms: C_23  and  C_24
REMARK   10  A    between atoms: C_24  and  O_26
REMARK   11  A    between atoms: C_24  and  C_27
REMARK   12  A    between atoms: C_27  and  C_28
REMARK   13  A    between atoms: C_28  and  O_29
REMARK   14  A    between atoms: O_31  and  C_32
REMARK   15  A    between atoms: C_32  and  C_34
REMARK   16  A    between atoms: C_34  and  C_36
REMARK   17  A    between atoms: C_34  and  C_37
REMARK   18  A    between atoms: C_37  and  C_38
REMARK                            x       y       z     vdW  Elec       q    Type
REMARK                         _______ _______ _______ _____ _____    ______ ____
ROOT
ATOM      1  C   UNL     1       7.578  -1.056  24.592  0.00  0.00    +0.063 C 
ATOM      2  C   UNL     1       6.280  -0.305  25.066  0.00  0.00    +0.007 C 
ATOM      3  C   UNL     1       6.592   0.882  26.043  0.00  0.00    +0.012 C 
ATOM      4  C   UNL     1       6.730   0.495  27.519  0.00  0.00    +0.012 C 
ATOM      5  C   UNL     1       7.805   1.668  25.659  0.00  0.00    -0.023 C 
ATOM      6  C   UNL     1       8.791   1.192  24.892  0.00  0.00    -0.000 C 
ATOM      7  C   UNL     1       8.776  -0.134  24.323  0.00  0.00    -0.042 C 
ATOM      8  C   UNL     1       9.829  -0.522  23.582  0.00  0.00    +0.008 C 
ATOM      9  C   UNL     1       9.858  -1.792  22.805  0.00  0.00    +0.141 C 
ATOM     10  C   UNL     1       8.463  -2.129  22.316  0.00  0.00    +0.080 C 
ATOM     11  C   UNL     1       7.396  -2.114  23.435  0.00  0.00    +0.187 C 
ENDROOT
BRANCH   9  12
ATOM     12  O   UNL     1      10.382  -2.850  23.589  0.00  0.00    -0.388 OA
ATOM     13  H   UNL     1       9.787  -2.996  24.344  0.00  0.00    +0.210 HD
ENDBRANCH   9  12
BRANCH   2  14
ATOM     14  C   UNL     1       5.154  -1.227  25.647  0.00  0.00    +0.007 C 
BRANCH  14  15
ATOM     15  C   UNL     1       5.777  -2.456  26.342  0.00  0.00    +0.032 C 
BRANCH  15  16
ATOM     16  C   UNL     1       4.903  -3.277  27.299  0.00  0.00    +0.117 C 
BRANCH  16  17
ATOM     17  O   UNL     1       3.524  -3.186  26.940  0.00  0.00    -0.392 OA
ATOM     18  H   UNL     1       3.317  -3.920  26.335  0.00  0.00    +0.210 HD
ENDBRANCH  16  17
BRANCH  16  19
ATOM     19  C   UNL     1       5.325  -4.759  27.171  0.00  0.00    +0.063 C 
BRANCH  19  20
ATOM     20  C   UNL     1       6.833  -5.019  27.288  0.00  0.00    +0.128 C 
BRANCH  20  21
ATOM     21  O   UNL     1       7.103  -6.031  28.269  0.00  0.00    -0.391 OA
ATOM     22  H   UNL     1       7.914  -6.505  27.966  0.00  0.00    +0.210 HD
ENDBRANCH  20  21
BRANCH  20  23
ATOM     23  C   UNL     1       7.390  -5.522  25.954  0.00  0.00    +0.151 C 
BRANCH  23  24
ATOM     24  C   UNL     1       8.726  -4.915  25.598  0.00  0.00    +0.307 C 
ATOM     25  O   UNL     1       9.508  -5.438  24.815  0.00  0.00    -0.251 OA
BRANCH  24  26
ATOM     26  O   UNL     1       9.034  -3.792  26.282  0.00  0.00    -0.481 OA
ATOM     27  H   UNL     1       9.071  -3.004  25.684  0.00  0.00    +0.295 HD
ENDBRANCH  24  26
ENDBRANCH  23  24
ENDBRANCH  20  23
ENDBRANCH  19  20
ENDBRANCH  16  19
ENDBRANCH  15  16
ENDBRANCH  14  15
ENDBRANCH   2  14
BRANCH  11  28
ATOM     28  O   UNL     1       6.074  -2.199  22.847  0.00  0.00    -0.460 OA
BRANCH  28  29
ATOM     29  C   UNL     1       5.695  -3.314  22.167  0.00  0.00    +0.310 C 
ATOM     30  O   UNL     1       5.563  -3.404  20.955  0.00  0.00    -0.251 OA
BRANCH  29  31
ATOM     31  C   UNL     1       5.497  -4.463  23.135  0.00  0.00    +0.094 C 
ATOM     32  C   UNL     1       4.063  -4.443  23.655  0.00  0.00    +0.019 C 
BRANCH  31  33
ATOM     33  C   UNL     1       5.814  -5.798  22.450  0.00  0.00    +0.011 C 
ATOM     34  C   UNL     1       7.298  -5.974  22.156  0.00  0.00    +0.004 C 
ENDBRANCH  31  33
ENDBRANCH  29  31
ENDBRANCH  28  29
ENDBRANCH  11  28
TORSDOF 15
ENDMDL
MODEL 6
REMARK VINA RESULT:      -5.8      1.948      6.376
REMARK  Name = 
REMARK  18 active torsions:
REMARK  status: ('A' for Active; 'I' for Inactive)
REMARK    1  A    between atoms: C_3  and  O_31
REMARK    2  A    between atoms: C_6  and  O_8
REMARK    3  A    between atoms: C_13  and  C_15
REMARK    4  A    between atoms: C_16  and  C_18
REMARK    5  A    between atoms: C_18  and  C_19
REMARK    6  A    between atoms: C_19  and  C_20
REMARK    7  A    between atoms: C_20  and  O_22
REMARK    8  A    between atoms: C_20  and  C_23
REMARK    9  A    between atoms: C_23  and  C_24
REMARK   10  A    between atoms: C_24  and  O_26
REMARK   11  A    between atoms: C_24  and  C_27
REMARK   12  A    between atoms: C_27  and  C_28
REMARK   13  A    between atoms: C_28  and  O_29
REMARK   14  A    between atoms: O_31  and  C_32
REMARK   15  A    between atoms: C_32  and  C_34
REMARK   16  A    between atoms: C_34  and  C_36
REMARK   17  A    between atoms: C_34  and  C_37
REMARK   18  A    between atoms: C_37  and  C_38
REMARK                            x       y       z     vdW  Elec       q    Type
REMARK                         _______ _______ _______ _____ _____    ______ ____
ROOT
ATOM      1  C   UNL     1       7.889  -0.101  23.410  0.00  0.00    +0.063 C 
ATOM      2  C   UNL     1       7.250  -1.276  24.237  0.00  0.00    +0.007 C 
ATOM      3  C   UNL     1       7.075  -2.585  23.391  0.00  0.00    +0.012 C 
ATOM      4  C   UNL     1       5.787  -2.662  22.563  0.00  0.00    +0.012 C 
ATOM      5  C   UNL     1       8.225  -2.862  22.476  0.00  0.00    -0.023 C 
ATOM      6  C   UNL     1       9.078  -1.927  22.044  0.00  0.00    -0.000 C 
ATOM      7  C   UNL     1       8.995  -0.542  22.440  0.00  0.00    -0.042 C 
ATOM      8  C   UNL     1       9.891   0.321  21.931  0.00  0.00    +0.008 C 
ATOM      9  C   UNL     1      10.018   1.733  22.391  0.00  0.00    +0.141 C 
ATOM     10  C   UNL     1       9.674   1.828  23.864  0.00  0.00    +0.080 C 
ATOM     11  C   UNL     1       8.317   1.181  24.225  0.00  0.00    +0.187 C 
ENDROOT
BRANCH   9  12
ATOM     12  O   UNL     1       9.185   2.587  21.626  0.00  0.00    -0.388 OA
ATOM     13  H   UNL     1       8.888   3.317  22.197  0.00  0.00    +0.210 HD
ENDBRANCH   9  12
BRANCH   2  14
ATOM     14  C   UNL     1       5.922  -0.914  24.988  0.00  0.00    +0.007 C 
BRANCH  14  15
ATOM     15  C   UNL     1       5.814  -1.721  26.298  0.00  0.00    +0.032 C 
BRANCH  15  16
ATOM     16  C   UNL     1       4.661  -2.721  26.449  0.00  0.00    +0.117 C 
BRANCH  16  17
ATOM     17  O   UNL     1       3.675  -2.524  25.435  0.00  0.00    -0.392 OA
ATOM     18  H   UNL     1       3.915  -1.729  24.927  0.00  0.00    +0.210 HD
ENDBRANCH  16  17
BRANCH  16  19
ATOM     19  C   UNL     1       5.242  -4.143  26.270  0.00  0.00    +0.063 C 
BRANCH  19  20
ATOM     20  C   UNL     1       6.698  -4.313  26.722  0.00  0.00    +0.128 C 
BRANCH  20  21
ATOM     21  O   UNL     1       6.763  -4.928  28.017  0.00  0.00    -0.391 OA
ATOM     22  H   UNL     1       7.237  -5.786  27.896  0.00  0.00    +0.210 HD
ENDBRANCH  20  21
BRANCH  20  23
ATOM     23  C   UNL     1       7.453  -5.225  25.751  0.00  0.00    +0.151 C 
BRANCH  23  24
ATOM     24  C   UNL     1       8.949  -5.026  25.787  0.00  0.00    +0.307 C 
ATOM     25  O   UNL     1       9.662  -5.153  24.800  0.00  0.00    -0.251 OA
BRANCH  24  26
ATOM     26  O   UNL     1       9.456  -4.786  27.015  0.00  0.00    -0.481 OA
ATOM     27  H   UNL     1       9.208  -3.884  27.338  0.00  0.00    +0.295 HD
ENDBRANCH  24  26
ENDBRANCH  23  24
ENDBRANCH  20  23
ENDBRANCH  19  20
ENDBRANCH  16  19
ENDBRANCH  15  16
ENDBRANCH  14  15
ENDBRANCH   2  14
BRANCH  11  28
ATOM     28  O   UNL     1       8.186   1.098  25.666  0.00  0.00    -0.460 OA
BRANCH  28  29
ATOM     29  C   UNL     1       7.339   1.930  26.328  0.00  0.00    +0.310 C 
ATOM     30  O   UNL     1       6.913   1.765  27.462  0.00  0.00    -0.251 OA
BRANCH  29  31
ATOM     31  C   UNL     1       7.025   3.136  25.466  0.00  0.00    +0.094 C 
ATOM     32  C   UNL     1       5.513   3.323  25.391  0.00  0.00    +0.019 C 
BRANCH  31  33
ATOM     33  C   UNL     1       7.706   4.389  26.031  0.00  0.00    +0.011 C 
ATOM     34  C   UNL     1       8.467   5.176  24.973  0.00  0.00    +0.004 C 
ENDBRANCH  31  33
ENDBRANCH  29  31
ENDBRANCH  28  29
ENDBRANCH  11  28
TORSDOF 15
ENDMDL
MODEL 7
REMARK VINA RESULT:      -5.6      1.956      4.684
REMARK  Name = 
REMARK  18 active torsions:
REMARK  status: ('A' for Active; 'I' for Inactive)
REMARK    1  A    between atoms: C_3  and  O_31
REMARK    2  A    between atoms: C_6  and  O_8
REMARK    3  A    between atoms: C_13  and  C_15
REMARK    4  A    between atoms: C_16  and  C_18
REMARK    5  A    between atoms: C_18  and  C_19
REMARK    6  A    between atoms: C_19  and  C_20
REMARK    7  A    between atoms: C_20  and  O_22
REMARK    8  A    between atoms: C_20  and  C_23
REMARK    9  A    between atoms: C_23  and  C_24
REMARK   10  A    between atoms: C_24  and  O_26
REMARK   11  A    between atoms: C_24  and  C_27
REMARK   12  A    between atoms: C_27  and  C_28
REMARK   13  A    between atoms: C_28  and  O_29
REMARK   14  A    between atoms: O_31  and  C_32
REMARK   15  A    between atoms: C_32  and  C_34
REMARK   16  A    between atoms: C_34  and  C_36
REMARK   17  A    between atoms: C_34  and  C_37
REMARK   18  A    between atoms: C_37  and  C_38
REMARK                            x       y       z     vdW  Elec       q    Type
REMARK                         _______ _______ _______ _____ _____    ______ ____
ROOT
ATOM      1  C   UNL     1       6.718  -3.833  24.657  0.00  0.00    +0.063 C 
ATOM      2  C   UNL     1       7.386  -4.002  26.070  0.00  0.00    +0.007 C 
ATOM      3  C   UNL     1       6.474  -4.785  27.079  0.00  0.00    +0.012 C 
ATOM      4  C   UNL     1       5.445  -3.931  27.829  0.00  0.00    +0.012 C 
ATOM      5  C   UNL     1       5.749  -5.937  26.458  0.00  0.00    -0.023 C 
ATOM      6  C   UNL     1       5.497  -6.043  25.150  0.00  0.00    -0.000 C 
ATOM      7  C   UNL     1       5.927  -5.061  24.183  0.00  0.00    -0.042 C 
ATOM      8  C   UNL     1       5.603  -5.253  22.892  0.00  0.00    +0.008 C 
ATOM      9  C   UNL     1       6.130  -4.409  21.783  0.00  0.00    +0.141 C 
ATOM     10  C   UNL     1       7.530  -3.933  22.118  0.00  0.00    +0.080 C 
ATOM     11  C   UNL     1       7.640  -3.265  23.508  0.00  0.00    +0.187 C 
ENDROOT
BRANCH   9  12
ATOM     12  O   UNL     1       5.272  -3.307  21.539  0.00  0.00    -0.388 OA
ATOM     13  H   UNL     1       4.670  -3.542  20.812  0.00  0.00    +0.210 HD
ENDBRANCH   9  12
BRANCH   2  14
ATOM     14  C   UNL     1       7.923  -2.678  26.714  0.00  0.00    +0.007 C 
BRANCH  14  15
ATOM     15  C   UNL     1       6.997  -1.497  26.357  0.00  0.00    +0.032 C 
BRANCH  15  16
ATOM     16  C   UNL     1       7.118  -0.200  27.167  0.00  0.00    +0.117 C 
BRANCH  16  17
ATOM     17  O   UNL     1       8.437  -0.043  27.690  0.00  0.00    -0.392 OA
ATOM     18  H   UNL     1       8.780   0.819  27.398  0.00  0.00    +0.210 HD
ENDBRANCH  16  17
BRANCH  16  19
ATOM     19  C   UNL     1       6.848   0.983  26.209  0.00  0.00    +0.063 C 
BRANCH  19  20
ATOM     20  C   UNL     1       5.831   0.700  25.096  0.00  0.00    +0.128 C 
BRANCH  20  21
ATOM     21  O   UNL     1       4.487   0.840  25.581  0.00  0.00    -0.391 OA
ATOM     22  H   UNL     1       4.353   0.122  26.244  0.00  0.00    +0.210 HD
ENDBRANCH  20  21
BRANCH  20  23
ATOM     23  C   UNL     1       6.004   1.702  23.951  0.00  0.00    +0.151 C 
BRANCH  23  24
ATOM     24  C   UNL     1       4.961   2.794  23.951  0.00  0.00    +0.307 C 
ATOM     25  O   UNL     1       5.037   3.787  24.663  0.00  0.00    -0.251 OA
BRANCH  24  26
ATOM     26  O   UNL     1       3.887   2.547  23.171  0.00  0.00    -0.481 OA
ATOM     27  H   UNL     1       4.123   2.581  22.210  0.00  0.00    +0.295 HD
ENDBRANCH  24  26
ENDBRANCH  23  24
ENDBRANCH  20  23
ENDBRANCH  19  20
ENDBRANCH  16  19
ENDBRANCH  15  16
ENDBRANCH  14  15
ENDBRANCH   2  14
BRANCH  11  28
ATOM     28  O   UNL     1       9.036  -3.069  23.844  0.00  0.00    -0.460 OA
BRANCH  28  29
ATOM     29  C   UNL     1       9.752  -2.074  23.255  0.00  0.00    +0.310 C 
ATOM     30  O   UNL     1      10.759  -2.219  22.578  0.00  0.00    -0.251 OA
BRANCH  29  31
ATOM     31  C   UNL     1       9.089  -0.737  23.525  0.00  0.00    +0.094 C 
ATOM     32  C   UNL     1       9.967   0.078  24.471  0.00  0.00    +0.019 C 
BRANCH  31  33
ATOM     33  C   UNL     1       8.851   0.015  22.211  0.00  0.00    +0.011 C 
ATOM     34  C   UNL     1       9.825   1.168  22.005  0.00  0.00    +0.004 C 
ENDBRANCH  31  33
ENDBRANCH  29  31
ENDBRANCH  28  29
ENDBRANCH  11  28
TORSDOF 15
ENDMDL
MODEL 8
REMARK VINA RESULT:      -5.5      2.211      4.623
REMARK  Name = 
REMARK  18 active torsions:
REMARK  status: ('A' for Active; 'I' for Inactive)
REMARK    1  A    between atoms: C_3  and  O_31
REMARK    2  A    between atoms: C_6  and  O_8
REMARK    3  A    between atoms: C_13  and  C_15
REMARK    4  A    between atoms: C_16  and  C_18
REMARK    5  A    between atoms: C_18  and  C_19
REMARK    6  A    between atoms: C_19  and  C_20
REMARK    7  A    between atoms: C_20  and  O_22
REMARK    8  A    between atoms: C_20  and  C_23
REMARK    9  A    between atoms: C_23  and  C_24
REMARK   10  A    between atoms: C_24  and  O_26
REMARK   11  A    between atoms: C_24  and  C_27
REMARK   12  A    between atoms: C_27  and  C_28
REMARK   13  A    between atoms: C_28  and  O_29
REMARK   14  A    between atoms: O_31  and  C_32
REMARK   15  A    between atoms: C_32  and  C_34
REMARK   16  A    between atoms: C_34  and  C_36
REMARK   17  A    between atoms: C_34  and  C_37
REMARK   18  A    between atoms: C_37  and  C_38
REMARK                            x       y       z     vdW  Elec       q    Type
REMARK                         _______ _______ _______ _____ _____    ______ ____
ROOT
ATOM      1  C   UNL     1       6.065  -3.244  24.329  0.00  0.00    +0.063 C 
ATOM      2  C   UNL     1       6.195  -2.335  25.605  0.00  0.00    +0.007 C 
ATOM      3  C   UNL     1       6.082  -3.149  26.941  0.00  0.00    +0.012 C 
ATOM      4  C   UNL     1       4.654  -3.393  27.440  0.00  0.00    +0.012 C 
ATOM      5  C   UNL     1       6.785  -4.468  26.897  0.00  0.00    -0.023 C 
ATOM      6  C   UNL     1       7.072  -5.124  25.767  0.00  0.00    -0.000 C 
ATOM      7  C   UNL     1       6.756  -4.610  24.457  0.00  0.00    -0.042 C 
ATOM      8  C   UNL     1       7.070  -5.359  23.385  0.00  0.00    +0.008 C 
ATOM      9  C   UNL     1       6.954  -4.870  21.983  0.00  0.00    +0.141 C 
ATOM     10  C   UNL     1       7.229  -3.380  21.933  0.00  0.00    +0.080 C 
ATOM     11  C   UNL     1       6.393  -2.562  22.943  0.00  0.00    +0.187 C 
ENDROOT
BRANCH   9  12
ATOM     12  O   UNL     1       5.671  -5.159  21.454  0.00  0.00    -0.388 OA
ATOM     13  H   UNL     1       5.651  -4.874  20.525  0.00  0.00    +0.210 HD
ENDBRANCH   9  12
BRANCH   2  14
ATOM     14  C   UNL     1       5.248  -1.086  25.630  0.00  0.00    +0.007 C 
BRANCH  14  15
ATOM     15  C   UNL     1       6.041   0.178  26.020  0.00  0.00    +0.032 C 
BRANCH  15  16
ATOM     16  C   UNL     1       5.271   1.486  26.245  0.00  0.00    +0.117 C 
BRANCH  16  17
ATOM     17  O   UNL     1       5.873   2.264  27.279  0.00  0.00    -0.392 OA
ATOM     18  H   UNL     1       6.311   3.030  26.869  0.00  0.00    +0.210 HD
ENDBRANCH  16  17
BRANCH  16  19
ATOM     19  C   UNL     1       5.343   2.307  24.937  0.00  0.00    +0.063 C 
BRANCH  19  20
ATOM     20  C   UNL     1       6.415   1.849  23.938  0.00  0.00    +0.128 C 
BRANCH  20  21
ATOM     21  O   UNL     1       5.859   1.699  22.623  0.00  0.00    -0.391 OA
ATOM     22  H   UNL     1       5.932   0.742  22.397  0.00  0.00    +0.210 HD
ENDBRANCH  20  21
BRANCH  20  23
ATOM     23  C   UNL     1       7.531   2.893  23.841  0.00  0.00    +0.151 C 
BRANCH  23  24
ATOM     24  C   UNL     1       7.791   3.357  22.428  0.00  0.00    +0.307 C 
ATOM     25  O   UNL     1       7.219   4.315  21.925  0.00  0.00    -0.251 OA
BRANCH  24  26
ATOM     26  O   UNL     1       8.640   2.575  21.726  0.00  0.00    -0.481 OA
ATOM     27  H   UNL     1       9.313   2.153  22.316  0.00  0.00    +0.295 HD
ENDBRANCH  24  26
ENDBRANCH  23  24
ENDBRANCH  20  23
ENDBRANCH  19  20
ENDBRANCH  16  19
ENDBRANCH  15  16
ENDBRANCH  14  15
ENDBRANCH   2  14
BRANCH  11  28
ATOM     28  O   UNL     1       6.892  -1.202  23.000  0.00  0.00    -0.460 OA
BRANCH  28  29
ATOM     29  C   UNL     1       8.215  -0.948  22.818  0.00  0.00    +0.310 C 
ATOM     30  O   UNL     1       8.717  -0.437  21.827  0.00  0.00    -0.251 OA
BRANCH  29  31
ATOM     31  C   UNL     1       8.991  -1.353  24.055  0.00  0.00    +0.094 C 
ATOM     32  C   UNL     1      10.186  -2.208  23.644  0.00  0.00    +0.019 C 
BRANCH  31  33
ATOM     33  C   UNL     1       9.446  -0.111  24.831  0.00  0.00    +0.011 C 
ATOM     34  C   UNL     1      10.799   0.413  24.367  0.00  0.00    +0.004 C 
ENDBRANCH  31  33
ENDBRANCH  29  31
ENDBRANCH  28  29
ENDBRANCH  11  28
TORSDOF 15
ENDMDL
MODEL 9
REMARK VINA RESULT:      -5.4      2.653      7.173
REMARK  Name = 
REMARK  18 active torsions:
REMARK  status: ('A' for Active; 'I' for Inactive)
REMARK    1  A    between atoms: C_3  and  O_31
REMARK    2  A    between atoms: C_6  and  O_8
REMARK    3  A    between atoms: C_13  and  C_15
REMARK    4  A    between atoms: C_16  and  C_18
REMARK    5  A    between atoms: C_18  and  C_19
REMARK    6  A    between atoms: C_19  and  C_20
REMARK    7  A    between atoms: C_20  and  O_22
REMARK    8  A    between atoms: C_20  and  C_23
REMARK    9  A    between atoms: C_23  and  C_24
REMARK   10  A    between atoms: C_24  and  O_26
REMARK   11  A    between atoms: C_24  and  C_27
REMARK   12  A    between atoms: C_27  and  C_28
REMARK   13  A    between atoms: C_28  and  O_29
REMARK   14  A    between atoms: O_31  and  C_32
REMARK   15  A    between atoms: C_32  and  C_34
REMARK   16  A    between atoms: C_34  and  C_36
REMARK   17  A    between atoms: C_34  and  C_37
REMARK   18  A    between atoms: C_37  and  C_38
REMARK                            x       y       z     vdW  Elec       q    Type
REMARK                         _______ _______ _______ _____ _____    ______ ____
ROOT
ATOM      1  C   UNL     1       8.175   1.051  23.291  0.00  0.00    +0.063 C 
ATOM      2  C   UNL     1       8.356  -0.418  23.824  0.00  0.00    +0.007 C 
ATOM      3  C   UNL     1       9.860  -0.859  23.881  0.00  0.00    +0.012 C 
ATOM      4  C   UNL     1      10.428  -1.420  22.573  0.00  0.00    +0.012 C 
ATOM      5  C   UNL     1      10.780   0.220  24.356  0.00  0.00    -0.023 C 
ATOM      6  C   UNL     1      10.496   1.525  24.294  0.00  0.00    -0.000 C 
ATOM      7  C   UNL     1       9.246   2.035  23.784  0.00  0.00    -0.042 C 
ATOM      8  C   UNL     1       9.069   3.367  23.747  0.00  0.00    +0.008 C 
ATOM      9  C   UNL     1       7.769   4.010  23.406  0.00  0.00    +0.141 C 
ATOM     10  C   UNL     1       6.623   3.138  23.880  0.00  0.00    +0.080 C 
ATOM     11  C   UNL     1       6.728   1.669  23.410  0.00  0.00    +0.187 C 
ENDROOT
BRANCH   9  12
ATOM     12  O   UNL     1       7.674   4.244  22.011  0.00  0.00    -0.388 OA
ATOM     13  H   UNL     1       7.845   3.407  21.547  0.00  0.00    +0.210 HD
ENDBRANCH   9  12
BRANCH   2  14
ATOM     14  C   UNL     1       7.484  -1.499  23.098  0.00  0.00    +0.007 C 
BRANCH  14  15
ATOM     15  C   UNL     1       7.334  -2.750  23.989  0.00  0.00    +0.032 C 
BRANCH  15  16
ATOM     16  C   UNL     1       8.008  -4.053  23.542  0.00  0.00    +0.117 C 
BRANCH  16  17
ATOM     17  O   UNL     1       9.202  -4.295  24.288  0.00  0.00    -0.392 OA
ATOM     18  H   UNL     1       9.170  -3.755  25.097  0.00  0.00    +0.210 HD
ENDBRANCH  16  17
BRANCH  16  19
ATOM     19  C   UNL     1       7.030  -5.215  23.831  0.00  0.00    +0.063 C 
BRANCH  19  20
ATOM     20  C   UNL     1       5.795  -5.268  22.921  0.00  0.00    +0.128 C 
BRANCH  20  21
ATOM     21  O   UNL     1       5.803  -6.457  22.117  0.00  0.00    -0.391 OA
ATOM     22  H   UNL     1       6.359  -6.257  21.327  0.00  0.00    +0.210 HD
ENDBRANCH  20  21
BRANCH  20  23
ATOM     23  C   UNL     1       4.517  -5.300  23.762  0.00  0.00    +0.151 C 
BRANCH  23  24
ATOM     24  C   UNL     1       3.826  -6.642  23.747  0.00  0.00    +0.307 C 
ATOM     25  O   UNL     1       4.134  -7.558  24.497  0.00  0.00    -0.251 OA
BRANCH  24  26
ATOM     26  O   UNL     1       2.899  -6.787  22.775  0.00  0.00    -0.481 OA
ATOM     27  H   UNL     1       3.103  -7.564  22.195  0.00  0.00    +0.295 HD
ENDBRANCH  24  26
ENDBRANCH  23  24
ENDBRANCH  20  23
ENDBRANCH  19  20
ENDBRANCH  16  19
ENDBRANCH  15  16
ENDBRANCH  14  15
ENDBRANCH   2  14
BRANCH  11  28
ATOM     28  O   UNL     1       5.742   0.864  24.105  0.00  0.00    -0.460 OA
BRANCH  28  29
ATOM     29  C   UNL     1       5.041   1.385  25.147  0.00  0.00    +0.310 C 
ATOM     30  O   UNL     1       4.173   2.242  25.070  0.00  0.00    -0.251 OA
BRANCH  29  31
ATOM     31  C   UNL     1       5.462   0.710  26.437  0.00  0.00    +0.094 C 
ATOM     32  C   UNL     1       5.370  -0.804  26.268  0.00  0.00    +0.019 C 
BRANCH  31  33
ATOM     33  C   UNL     1       6.885   1.133  26.821  0.00  0.00    +0.011 C 
ATOM     34  C   UNL     1       6.943   2.528  27.428  0.00  0.00    +0.004 C 
ENDBRANCH  31  33
ENDBRANCH  29  31
ENDBRANCH  28  29
ENDBRANCH  11  28
TORSDOF 15
ENDMDL
