MODEL 1
REMARK VINA RESULT:      -5.6      0.000      0.000
REMARK  Name = 
REMARK  15 active torsions:
REMARK  status: ('A' for Active; 'I' for Inactive)
REMARK    1  A    between atoms: N_1  and  C_2
REMARK    2  A    between atoms: C_2  and  C_3
REMARK    3  A    between atoms: C_2  and  C_20
REMARK    4  A    between atoms: C_3  and  C_4
REMARK    5  A    between atoms: C_4  and  C_5
REMARK    6  A    between atoms: N_7  and  C_8
REMARK    7  A    between atoms: C_8  and  C_9
REMARK    8  A    between atoms: C_8  and  C_13
REMARK    9  A    between atoms: C_9  and  S_10
REMARK   10  A    between atoms: S_10  and  C_11
REMARK   11  A    between atoms: C_11  and  O_12
REMARK   12  A    between atoms: N_15  and  CA_16
REMARK   13  A    between atoms: CA_16  and  C_17
REMARK   14  A    between atoms: C_17  and  O_18
REMARK   15  A    between atoms: C_20  and  O_21
REMARK                            x       y       z     vdW  Elec       q    Type
REMARK                         _______ _______ _______ _____ _____    ______ ____
ROOT
ATOM      1  C   UNK A   1       8.609  -2.824  23.956  0.00  0.00    +0.169 C 
ENDROOT
BRANCH   1   3
ATOM      2  C   UNK A   1       9.911  -1.087  22.790  0.00  0.00    +0.214 C 
ATOM      3  N   UNK A   1       8.838  -1.428  23.581  0.00  0.00    -0.303 N 
ATOM      4  H   UNK A   1       8.025  -0.824  23.548  0.00  0.00    +0.149 HD
ATOM      5  O   UNK A   1      10.735  -1.907  22.397  0.00  0.00    -0.276 OA
BRANCH   2   6
ATOM      6  C   UNK A   1      10.001   0.388  22.446  0.00  0.00    +0.098 C 
BRANCH   6   7
ATOM      7  C   UNK A   1       8.982   0.772  21.374  0.00  0.00    +0.039 C 
BRANCH   7   8
ATOM      8  C   UNK A   1       8.061   1.931  21.774  0.00  0.00    +0.161 C 
BRANCH   8   9
ATOM      9  N   UNK A   1       8.821   3.130  22.235  0.00  0.00    -0.318 NA
ATOM     10  H   UNK A   1       9.610   3.288  21.599  0.00  0.00    +0.119 HD
ATOM     11  H   UNK A   1       8.226   3.953  22.108  0.00  0.00    +0.119 HD
ENDBRANCH   8   9
BRANCH   8  12
ATOM     12  C   UNK A   1       7.132   1.473  22.916  0.00  0.00    +0.322 C 
ATOM     13  O   UNK A   1       6.942   2.087  23.954  0.00  0.00    -0.249 OA
BRANCH  12  14
ATOM     14  O   UNK A   1       6.539   0.286  22.627  0.00  0.00    -0.480 OA
ATOM     15  H   UNK A   1       5.845   0.490  21.952  0.00  0.00    +0.295 HD
ENDBRANCH  12  14
ENDBRANCH   8  12
ENDBRANCH   7   8
ENDBRANCH   6   7
ENDBRANCH   2   6
ENDBRANCH   1   3
BRANCH   1  16
ATOM     16  C   UNK A   1       7.552  -3.397  22.991  0.00  0.00    +0.235 C 
ATOM     17  N   GLY A   2       7.412  -4.772  23.039  0.00  0.00    -0.303 N 
ATOM     18  H   GLY A   2       8.231  -5.292  23.343  0.00  0.00    +0.149 HD
ATOM     19  O   UNK A   1       6.872  -2.679  22.262  0.00  0.00    -0.274 OA
BRANCH  17  20
ATOM     20  CA  GLY A   2       6.514  -5.468  22.114  0.00  0.00    +0.224 C 
BRANCH  20  21
ATOM     21  C   GLY A   2       5.106  -5.685  22.672  0.00  0.00    +0.322 C 
ATOM     22  OXT GLY A   2       4.208  -4.862  22.581  0.00  0.00    -0.249 OA
BRANCH  21  23
ATOM     23  O   GLY A   2       4.922  -6.902  23.239  0.00  0.00    -0.480 OA
ATOM     24  H   GLY A   2       5.610  -7.073  23.914  0.00  0.00    +0.295 HD
ENDBRANCH  21  23
ENDBRANCH  20  21
ENDBRANCH  17  20
ENDBRANCH   1  16
BRANCH   1  25
ATOM     25  C   UNK A   1       8.097  -2.922  25.398  0.00  0.00    +0.103 C 
BRANCH  25  26
ATOM     26  S   UNK A   1       8.842  -4.332  26.297  0.00  0.00    -0.131 S 
BRANCH  26  27
ATOM     27  C   UNK A   1       7.320  -5.073  26.931  0.00  0.00    +0.225 C 
BRANCH  27  28
ATOM     28  O   UNK A   1       7.650  -6.124  27.815  0.00  0.00    -0.385 OA
ATOM     29  H   UNK A   1       7.986  -5.682  28.614  0.00  0.00    +0.211 HD
ENDBRANCH  27  28
ENDBRANCH  26  27
ENDBRANCH  25  26
ENDBRANCH   1  25
TORSDOF 15
ENDMDL
MODEL 2
REMARK VINA RESULT:      -5.6      2.794      6.555
REMARK  Name = 
REMARK  15 active torsions:
REMARK  status: ('A' for Active; 'I' for Inactive)
REMARK    1  A    between atoms: N_1  and  C_2
REMARK    2  A    between atoms: C_2  and  C_3
REMARK    3  A    between atoms: C_2  and  C_20
REMARK    4  A    between atoms: C_3  and  C_4
REMARK    5  A    between atoms: C_4  and  C_5
REMARK    6  A    between atoms: N_7  and  C_8
REMARK    7  A    between atoms: C_8  and  C_9
REMARK    8  A    between atoms: C_8  and  C_13
REMARK    9  A    between atoms: C_9  and  S_10
REMARK   10  A    between atoms: S_10  and  C_11
REMARK   11  A    between atoms: C_11  and  O_12
REMARK   12  A    between atoms: N_15  and  CA_16
REMARK   13  A    between atoms: CA_16  and  C_17
REMARK   14  A    between atoms: C_17  and  O_18
REMARK   15  A    between atoms: C_20  and  O_21
REMARK                            x       y       z     vdW  Elec       q    Type
REMARK                         _______ _______ _______ _____ _____    ______ ____
ROOT
ATOM      1  C   UNK A   1       6.763  -1.131  23.224  0.00  0.00    +0.169 C 
ENDROOT
BRANCH   1   3
ATOM      2  C   UNK A   1       6.144  -3.516  23.247  0.00  0.00    +0.214 C 
ATOM      3  N   UNK A   1       6.745  -2.445  23.868  0.00  0.00    -0.303 N 
ATOM      4  H   UNK A   1       7.495  -2.645  24.520  0.00  0.00    +0.149 HD
ATOM      5  O   UNK A   1       5.573  -3.423  22.165  0.00  0.00    -0.276 OA
BRANCH   2   6
ATOM      6  C   UNK A   1       6.238  -4.824  24.010  0.00  0.00    +0.098 C 
BRANCH   6   7
ATOM      7  C   UNK A   1       6.750  -4.603  25.432  0.00  0.00    +0.039 C 
BRANCH   7   8
ATOM      8  C   UNK A   1       7.971  -5.456  25.796  0.00  0.00    +0.161 C 
BRANCH   8   9
ATOM      9  N   UNK A   1       8.076  -5.704  27.264  0.00  0.00    -0.318 NA
ATOM     10  H   UNK A   1       7.280  -5.260  27.734  0.00  0.00    +0.119 HD
ATOM     11  H   UNK A   1       7.938  -6.705  27.428  0.00  0.00    +0.119 HD
ENDBRANCH   8   9
BRANCH   8  12
ATOM     12  C   UNK A   1       9.253  -4.735  25.331  0.00  0.00    +0.322 C 
ATOM     13  O   UNK A   1       9.314  -3.567  24.982  0.00  0.00    -0.249 OA
BRANCH  12  14
ATOM     14  O   UNK A   1      10.326  -5.567  25.355  0.00  0.00    -0.480 OA
ATOM     15  H   UNK A   1      11.077  -5.026  25.704  0.00  0.00    +0.295 HD
ENDBRANCH  12  14
ENDBRANCH   8  12
ENDBRANCH   7   8
ENDBRANCH   6   7
ENDBRANCH   2   6
ENDBRANCH   1   3
BRANCH   1  16
ATOM     16  C   UNK A   1       8.217  -0.838  22.806  0.00  0.00    +0.235 C 
ATOM     17  N   GLY A   2       8.880   0.066  23.616  0.00  0.00    -0.303 N 
ATOM     18  H   GLY A   2       8.293   0.737  24.107  0.00  0.00    +0.149 HD
ATOM     19  O   UNK A   1       8.747  -1.390  21.845  0.00  0.00    -0.274 OA
BRANCH  17  20
ATOM     20  CA  GLY A   2      10.236   0.513  23.290  0.00  0.00    +0.224 C 
BRANCH  20  21
ATOM     21  C   GLY A   2      10.304   1.959  22.796  0.00  0.00    +0.322 C 
ATOM     22  OXT GLY A   2      10.676   2.894  23.489  0.00  0.00    -0.249 OA
BRANCH  21  23
ATOM     23  O   GLY A   2       9.959   2.111  21.495  0.00  0.00    -0.480 OA
ATOM     24  H   GLY A   2       9.095   1.687  21.317  0.00  0.00    +0.295 HD
ENDBRANCH  21  23
ENDBRANCH  20  21
ENDBRANCH  17  20
ENDBRANCH   1  16
BRANCH   1  25
ATOM     25  C   UNK A   1       6.276  -0.045  24.191  0.00  0.00    +0.103 C 
BRANCH  25  26
ATOM     26  S   UNK A   1       5.666  -0.751  25.765  0.00  0.00    -0.131 S 
BRANCH  26  27
ATOM     27  C   UNK A   1       7.117  -0.406  26.787  0.00  0.00    +0.225 C 
BRANCH  27  28
ATOM     28  O   UNK A   1       8.174  -1.257  26.394  0.00  0.00    -0.385 OA
ATOM     29  H   UNK A   1       8.160  -1.986  27.037  0.00  0.00    +0.211 HD
ENDBRANCH  27  28
ENDBRANCH  26  27
ENDBRANCH  25  26
ENDBRANCH   1  25
TORSDOF 15
ENDMDL
MODEL 3
REMARK VINA RESULT:      -5.6      2.473      6.795
REMARK  Name = 
REMARK  15 active torsions:
REMARK  status: ('A' for Active; 'I' for Inactive)
REMARK    1  A    between atoms: N_1  and  C_2
REMARK    2  A    between atoms: C_2  and  C_3
REMARK    3  A    between atoms: C_2  and  C_20
REMARK    4  A    between atoms: C_3  and  C_4
REMARK    5  A    between atoms: C_4  and  C_5
REMARK    6  A    between atoms: N_7  and  C_8
REMARK    7  A    between atoms: C_8  and  C_9
REMARK    8  A    between atoms: C_8  and  C_13
REMARK    9  A    between atoms: C_9  and  S_10
REMARK   10  A    between atoms: S_10  and  C_11
REMARK   11  A    between atoms: C_11  and  O_12
REMARK   12  A    between atoms: N_15  and  CA_16
REMARK   13  A    between atoms: CA_16  and  C_17
REMARK   14  A    between atoms: C_17  and  O_18
REMARK   15  A    between atoms: C_20  and  O_21
REMARK                            x       y       z     vdW  Elec       q    Type
REMARK                         _______ _______ _______ _____ _____    ______ ____
ROOT
ATOM      1  C   UNK A   1       8.065  -3.103  22.942  0.00  0.00    +0.169 C 
ENDROOT
BRANCH   1   3
ATOM      2  C   UNK A   1       8.462  -4.526  24.914  0.00  0.00    +0.214 C 
ATOM      3  N   UNK A   1       8.042  -3.326  24.388  0.00  0.00    -0.303 N 
ATOM      4  H   UNK A   1       8.121  -2.506  24.978  0.00  0.00    +0.149 HD
ATOM      5  O   UNK A   1       8.834  -5.464  24.216  0.00  0.00    -0.276 OA
BRANCH   2   6
ATOM      6  C   UNK A   1       8.425  -4.602  26.429  0.00  0.00    +0.098 C 
BRANCH   6   7
ATOM      7  C   UNK A   1       7.035  -4.265  26.968  0.00  0.00    +0.039 C 
BRANCH   7   8
ATOM      8  C   UNK A   1       6.346  -5.428  27.690  0.00  0.00    +0.161 C 
BRANCH   8   9
ATOM      9  N   UNK A   1       7.320  -6.373  28.309  0.00  0.00    -0.318 NA
ATOM     10  H   UNK A   1       8.272  -6.071  28.074  0.00  0.00    +0.119 HD
ATOM     11  H   UNK A   1       7.267  -6.266  29.325  0.00  0.00    +0.119 HD
ENDBRANCH   8   9
BRANCH   8  12
ATOM     12  C   UNK A   1       5.479  -6.211  26.683  0.00  0.00    +0.322 C 
ATOM     13  O   UNK A   1       5.266  -5.874  25.530  0.00  0.00    -0.249 OA
BRANCH  12  14
ATOM     14  O   UNK A   1       4.970  -7.341  27.240  0.00  0.00    -0.480 OA
ATOM     15  H   UNK A   1       5.299  -7.350  28.174  0.00  0.00    +0.295 HD
ENDBRANCH  12  14
ENDBRANCH   8  12
ENDBRANCH   7   8
ENDBRANCH   6   7
ENDBRANCH   2   6
ENDBRANCH   1   3
BRANCH   1  16
ATOM     16  C   UNK A   1       9.208  -2.115  22.641  0.00  0.00    +0.235 C 
ATOM     17  N   GLY A   2       8.804  -0.916  22.084  0.00  0.00    -0.303 N 
ATOM     18  H   GLY A   2       7.935  -0.941  21.557  0.00  0.00    +0.149 HD
ATOM     19  O   UNK A   1      10.381  -2.370  22.906  0.00  0.00    -0.274 OA
BRANCH  17  20
ATOM     20  CA  GLY A   2       9.787   0.084  21.658  0.00  0.00    +0.224 C 
BRANCH  20  21
ATOM     21  C   GLY A   2       9.372   1.523  21.968  0.00  0.00    +0.322 C 
ATOM     22  OXT GLY A   2       8.314   1.823  22.500  0.00  0.00    -0.249 OA
BRANCH  21  23
ATOM     23  O   GLY A   2      10.309   2.446  21.644  0.00  0.00    -0.480 OA
ATOM     24  H   GLY A   2       9.946   3.351  21.740  0.00  0.00    +0.295 HD
ENDBRANCH  21  23
ENDBRANCH  20  21
ENDBRANCH  17  20
ENDBRANCH   1  16
BRANCH   1  25
ATOM     25  C   UNK A   1       6.733  -2.512  22.462  0.00  0.00    +0.103 C 
BRANCH  25  26
ATOM     26  S   UNK A   1       5.343  -3.680  22.685  0.00  0.00    -0.131 S 
BRANCH  26  27
ATOM     27  C   UNK A   1       6.058  -5.106  21.835  0.00  0.00    +0.225 C 
BRANCH  27  28
ATOM     28  O   UNK A   1       6.175  -6.178  22.747  0.00  0.00    -0.385 OA
ATOM     29  H   UNK A   1       6.603  -6.890  22.241  0.00  0.00    +0.211 HD
ENDBRANCH  27  28
ENDBRANCH  26  27
ENDBRANCH  25  26
ENDBRANCH   1  25
TORSDOF 15
ENDMDL
MODEL 4
REMARK VINA RESULT:      -5.5      2.104      2.606
REMARK  Name = 
REMARK  15 active torsions:
REMARK  status: ('A' for Active; 'I' for Inactive)
REMARK    1  A    between atoms: N_1  and  C_2
REMARK    2  A    between atoms: C_2  and  C_3
REMARK    3  A    between atoms: C_2  and  C_20
REMARK    4  A    between atoms: C_3  and  C_4
REMARK    5  A    between atoms: C_4  and  C_5
REMARK    6  A    between atoms: N_7  and  C_8
REMARK    7  A    between atoms: C_8  and  C_9
REMARK    8  A    between atoms: C_8  and  C_13
REMARK    9  A    between atoms: C_9  and  S_10
REMARK   10  A    between atoms: S_10  and  C_11
REMARK   11  A    between atoms: C_11  and  O_12
REMARK   12  A    between atoms: N_15  and  CA_16
REMARK   13  A    between atoms: CA_16  and  C_17
REMARK   14  A    between atoms: C_17  and  O_18
REMARK   15  A    between atoms: C_20  and  O_21
REMARK                            x       y       z     vdW  Elec       q    Type
REMARK                         _______ _______ _______ _____ _____    ______ ____
ROOT
ATOM      1  C   UNK A   1       8.743  -3.209  24.201  0.00  0.00    +0.169 C 
ENDROOT
BRANCH   1   3
ATOM      2  C   UNK A   1       9.699  -1.612  22.586  0.00  0.00    +0.214 C 
ATOM      3  N   UNK A   1       8.634  -2.019  23.354  0.00  0.00    -0.303 N 
ATOM      4  H   UNK A   1       7.705  -1.772  23.032  0.00  0.00    +0.149 HD
ATOM      5  O   UNK A   1      10.784  -2.185  22.595  0.00  0.00    -0.276 OA
BRANCH   2   6
ATOM      6  C   UNK A   1       9.431  -0.390  21.727  0.00  0.00    +0.098 C 
BRANCH   6   7
ATOM      7  C   UNK A   1       8.465   0.572  22.417  0.00  0.00    +0.039 C 
BRANCH   7   8
ATOM      8  C   UNK A   1       9.011   1.995  22.582  0.00  0.00    +0.161 C 
BRANCH   8   9
ATOM      9  N   UNK A   1      10.147   2.281  21.657  0.00  0.00    -0.318 NA
ATOM     10  H   UNK A   1      10.240   1.504  20.994  0.00  0.00    +0.119 HD
ATOM     11  H   UNK A   1       9.888   3.080  21.072  0.00  0.00    +0.119 HD
ENDBRANCH   8   9
BRANCH   8  12
ATOM     12  C   UNK A   1       9.502   2.188  24.031  0.00  0.00    +0.322 C 
ATOM     13  O   UNK A   1       8.847   2.685  24.933  0.00  0.00    -0.249 OA
BRANCH  12  14
ATOM     14  O   UNK A   1      10.772   1.732  24.189  0.00  0.00    -0.480 OA
ATOM     15  H   UNK A   1      10.787   0.835  23.773  0.00  0.00    +0.295 HD
ENDBRANCH  12  14
ENDBRANCH   8  12
ENDBRANCH   7   8
ENDBRANCH   6   7
ENDBRANCH   2   6
ENDBRANCH   1   3
BRANCH   1  16
ATOM     16  C   UNK A   1       7.600  -4.166  23.808  0.00  0.00    +0.235 C 
ATOM     17  N   GLY A   2       6.843  -3.749  22.729  0.00  0.00    -0.303 N 
ATOM     18  H   GLY A   2       6.811  -2.745  22.569  0.00  0.00    +0.149 HD
ATOM     19  O   UNK A   1       7.403  -5.227  24.395  0.00  0.00    -0.274 OA
BRANCH  17  20
ATOM     20  CA  GLY A   2       5.666  -4.507  22.299  0.00  0.00    +0.224 C 
BRANCH  20  21
ATOM     21  C   GLY A   2       5.993  -5.668  21.358  0.00  0.00    +0.322 C 
ATOM     22  OXT GLY A   2       6.005  -5.569  20.140  0.00  0.00    -0.249 OA
BRANCH  21  23
ATOM     23  O   GLY A   2       6.322  -6.817  21.996  0.00  0.00    -0.480 OA
ATOM     24  H   GLY A   2       6.064  -7.593  21.459  0.00  0.00    +0.295 HD
ENDBRANCH  21  23
ENDBRANCH  20  21
ENDBRANCH  17  20
ENDBRANCH   1  16
BRANCH   1  25
ATOM     25  C   UNK A   1       8.616  -2.835  25.682  0.00  0.00    +0.103 C 
BRANCH  25  26
ATOM     26  S   UNK A   1       7.237  -1.669  25.980  0.00  0.00    -0.131 S 
BRANCH  26  27
ATOM     27  C   UNK A   1       8.188  -0.318  26.714  0.00  0.00    +0.225 C 
BRANCH  27  28
ATOM     28  O   UNK A   1       9.425  -0.204  26.042  0.00  0.00    -0.385 OA
ATOM     29  H   UNK A   1       9.586   0.753  25.976  0.00  0.00    +0.211 HD
ENDBRANCH  27  28
ENDBRANCH  26  27
ENDBRANCH  25  26
ENDBRANCH   1  25
TORSDOF 15
ENDMDL
MODEL 5
REMARK VINA RESULT:      -5.5      2.706      6.075
REMARK  Name = 
REMARK  15 active torsions:
REMARK  status: ('A' for Active; 'I' for Inactive)
REMARK    1  A    between atoms: N_1  and  C_2
REMARK    2  A    between atoms: C_2  and  C_3
REMARK    3  A    between atoms: C_2  and  C_20
REMARK    4  A    between atoms: C_3  and  C_4
REMARK    5  A    between atoms: C_4  and  C_5
REMARK    6  A    between atoms: N_7  and  C_8
REMARK    7  A    between atoms: C_8  and  C_9
REMARK    8  A    between atoms: C_8  and  C_13
REMARK    9  A    between atoms: C_9  and  S_10
REMARK   10  A    between atoms: S_10  and  C_11
REMARK   11  A    between atoms: C_11  and  O_12
REMARK   12  A    between atoms: N_15  and  CA_16
REMARK   13  A    between atoms: CA_16  and  C_17
REMARK   14  A    between atoms: C_17  and  O_18
REMARK   15  A    between atoms: C_20  and  O_21
REMARK                            x       y       z     vdW  Elec       q    Type
REMARK                         _______ _______ _______ _____ _____    ______ ____
ROOT
ATOM      1  C   UNK A   1       9.645  -2.150  24.032  0.00  0.00    +0.169 C 
ENDROOT
BRANCH   1   3
ATOM      2  C   UNK A   1       8.634  -4.396  24.067  0.00  0.00    +0.214 C 
ATOM      3  N   UNK A   1       8.572  -3.079  23.674  0.00  0.00    -0.303 N 
ATOM      4  H   UNK A   1       7.653  -2.680  23.524  0.00  0.00    +0.149 HD
ATOM      5  O   UNK A   1       9.583  -4.861  24.689  0.00  0.00    -0.276 OA
BRANCH   2   6
ATOM      6  C   UNK A   1       7.435  -5.235  23.663  0.00  0.00    +0.098 C 
BRANCH   6   7
ATOM      7  C   UNK A   1       6.131  -4.616  24.163  0.00  0.00    +0.039 C 
BRANCH   7   8
ATOM      8  C   UNK A   1       5.057  -4.460  23.080  0.00  0.00    +0.161 C 
BRANCH   8   9
ATOM      9  N   UNK A   1       4.775  -5.741  22.369  0.00  0.00    -0.318 NA
ATOM     10  H   UNK A   1       3.944  -5.620  21.781  0.00  0.00    +0.119 HD
ATOM     11  H   UNK A   1       5.533  -5.908  21.701  0.00  0.00    +0.119 HD
ENDBRANCH   8   9
BRANCH   8  12
ATOM     12  C   UNK A   1       5.525  -3.419  22.044  0.00  0.00    +0.322 C 
ATOM     13  O   UNK A   1       5.629  -3.620  20.845  0.00  0.00    -0.249 OA
BRANCH  12  14
ATOM     14  O   UNK A   1       5.813  -2.229  22.632  0.00  0.00    -0.480 OA
ATOM     15  H   UNK A   1       6.800  -2.155  22.616  0.00  0.00    +0.295 HD
ENDBRANCH  12  14
ENDBRANCH   8  12
ENDBRANCH   7   8
ENDBRANCH   6   7
ENDBRANCH   2   6
ENDBRANCH   1   3
BRANCH   1  16
ATOM     16  C   UNK A   1       9.008  -0.984  24.814  0.00  0.00    +0.235 C 
ATOM     17  N   GLY A   2       7.631  -1.044  24.919  0.00  0.00    -0.303 N 
ATOM     18  H   GLY A   2       7.149  -1.549  24.179  0.00  0.00    +0.149 HD
ATOM     19  O   UNK A   1       9.682  -0.092  25.324  0.00  0.00    -0.274 OA
BRANCH  17  20
ATOM     20  CA  GLY A   2       6.878   0.042  25.553  0.00  0.00    +0.224 C 
BRANCH  20  21
ATOM     21  C   GLY A   2       5.806   0.654  24.650  0.00  0.00    +0.322 C 
ATOM     22  OXT GLY A   2       4.783   1.174  25.071  0.00  0.00    -0.249 OA
BRANCH  21  23
ATOM     23  O   GLY A   2       6.112   0.617  23.331  0.00  0.00    -0.480 OA
ATOM     24  H   GLY A   2       6.866   1.211  23.137  0.00  0.00    +0.295 HD
ENDBRANCH  21  23
ENDBRANCH  20  21
ENDBRANCH  17  20
ENDBRANCH   1  16
BRANCH   1  25
ATOM     25  C   UNK A   1      10.337  -1.609  22.774  0.00  0.00    +0.103 C 
BRANCH  25  26
ATOM     26  S   UNK A   1       9.198  -0.628  21.731  0.00  0.00    -0.131 S 
BRANCH  26  27
ATOM     27  C   UNK A   1       9.974   0.990  21.944  0.00  0.00    +0.225 C 
BRANCH  27  28
ATOM     28  O   UNK A   1       9.237   1.956  21.224  0.00  0.00    -0.385 OA
ATOM     29  H   UNK A   1       9.655   1.986  20.346  0.00  0.00    +0.211 HD
ENDBRANCH  27  28
ENDBRANCH  26  27
ENDBRANCH  25  26
ENDBRANCH   1  25
TORSDOF 15
ENDMDL
MODEL 6
REMARK VINA RESULT:      -5.5      1.777      1.927
REMARK  Name = 
REMARK  15 active torsions:
REMARK  status: ('A' for Active; 'I' for Inactive)
REMARK    1  A    between atoms: N_1  and  C_2
REMARK    2  A    between atoms: C_2  and  C_3
REMARK    3  A    between atoms: C_2  and  C_20
REMARK    4  A    between atoms: C_3  and  C_4
REMARK    5  A    between atoms: C_4  and  C_5
REMARK    6  A    between atoms: N_7  and  C_8
REMARK    7  A    between atoms: C_8  and  C_9
REMARK    8  A    between atoms: C_8  and  C_13
REMARK    9  A    between atoms: C_9  and  S_10
REMARK   10  A    between atoms: S_10  and  C_11
REMARK   11  A    between atoms: C_11  and  O_12
REMARK   12  A    between atoms: N_15  and  CA_16
REMARK   13  A    between atoms: CA_16  and  C_17
REMARK   14  A    between atoms: C_17  and  O_18
REMARK   15  A    between atoms: C_20  and  O_21
REMARK                            x       y       z     vdW  Elec       q    Type
REMARK                         _______ _______ _______ _____ _____    ______ ____
ROOT
ATOM      1  C   UNK A   1       9.141  -3.032  23.858  0.00  0.00    +0.169 C 
ENDROOT
BRANCH   1   3
ATOM      2  C   UNK A   1       9.810  -0.677  24.127  0.00  0.00    +0.214 C 
ATOM      3  N   UNK A   1       9.089  -1.758  24.577  0.00  0.00    -0.303 N 
ATOM      4  H   UNK A   1       8.249  -1.569  25.112  0.00  0.00    +0.149 HD
ATOM      5  O   UNK A   1      10.546  -0.728  23.147  0.00  0.00    -0.276 OA
BRANCH   2   6
ATOM      6  C   UNK A   1       9.629   0.590  24.944  0.00  0.00    +0.098 C 
BRANCH   6   7
ATOM      7  C   UNK A   1      10.095   1.822  24.169  0.00  0.00    +0.039 C 
BRANCH   7   8
ATOM      8  C   UNK A   1       8.960   2.603  23.496  0.00  0.00    +0.161 C 
BRANCH   8   9
ATOM      9  N   UNK A   1       7.656   2.436  24.202  0.00  0.00    -0.318 NA
ATOM     10  H   UNK A   1       7.614   3.097  24.984  0.00  0.00    +0.119 HD
ATOM     11  H   UNK A   1       6.911   2.744  23.572  0.00  0.00    +0.119 HD
ENDBRANCH   8   9
BRANCH   8  12
ATOM     12  C   UNK A   1       8.795   2.111  22.043  0.00  0.00    +0.322 C 
ATOM     13  O   UNK A   1       7.727   1.905  21.490  0.00  0.00    -0.249 OA
BRANCH  12  14
ATOM     14  O   UNK A   1       9.999   1.931  21.441  0.00  0.00    -0.480 OA
ATOM     15  H   UNK A   1       9.995   0.999  21.109  0.00  0.00    +0.295 HD
ENDBRANCH  12  14
ENDBRANCH   8  12
ENDBRANCH   7   8
ENDBRANCH   6   7
ENDBRANCH   2   6
ENDBRANCH   1   3
BRANCH   1  16
ATOM     16  C   UNK A   1       7.906  -3.098  22.939  0.00  0.00    +0.235 C 
ATOM     17  N   GLY A   2       7.097  -4.202  23.135  0.00  0.00    -0.303 N 
ATOM     18  H   GLY A   2       7.555  -5.027  23.515  0.00  0.00    +0.149 HD
ATOM     19  O   UNK A   1       7.652  -2.219  22.118  0.00  0.00    -0.274 OA
BRANCH  17  20
ATOM     20  CA  GLY A   2       5.939  -4.448  22.273  0.00  0.00    +0.224 C 
BRANCH  20  21
ATOM     21  C   GLY A   2       6.109  -5.652  21.345  0.00  0.00    +0.322 C 
ATOM     22  OXT GLY A   2       5.997  -5.592  20.130  0.00  0.00    -0.249 OA
BRANCH  21  23
ATOM     23  O   GLY A   2       6.446  -6.796  21.988  0.00  0.00    -0.480 OA
ATOM     24  H   GLY A   2       5.696  -7.426  21.983  0.00  0.00    +0.295 HD
ENDBRANCH  21  23
ENDBRANCH  20  21
ENDBRANCH  17  20
ENDBRANCH   1  16
BRANCH   1  25
ATOM     25  C   UNK A   1       9.115  -4.211  24.840  0.00  0.00    +0.103 C 
BRANCH  25  26
ATOM     26  S   UNK A   1       8.599  -3.696  26.518  0.00  0.00    -0.131 S 
BRANCH  26  27
ATOM     27  C   UNK A   1       7.318  -4.941  26.793  0.00  0.00    +0.225 C 
BRANCH  27  28
ATOM     28  O   UNK A   1       7.859  -6.003  27.550  0.00  0.00    -0.385 OA
ATOM     29  H   UNK A   1       8.820  -5.855  27.537  0.00  0.00    +0.211 HD
ENDBRANCH  27  28
ENDBRANCH  26  27
ENDBRANCH  25  26
ENDBRANCH   1  25
TORSDOF 15
ENDMDL
MODEL 7
REMARK VINA RESULT:      -5.5      1.897      2.519
REMARK  Name = 
REMARK  15 active torsions:
REMARK  status: ('A' for Active; 'I' for Inactive)
REMARK    1  A    between atoms: N_1  and  C_2
REMARK    2  A    between atoms: C_2  and  C_3
REMARK    3  A    between atoms: C_2  and  C_20
REMARK    4  A    between atoms: C_3  and  C_4
REMARK    5  A    between atoms: C_4  and  C_5
REMARK    6  A    between atoms: N_7  and  C_8
REMARK    7  A    between atoms: C_8  and  C_9
REMARK    8  A    between atoms: C_8  and  C_13
REMARK    9  A    between atoms: C_9  and  S_10
REMARK   10  A    between atoms: S_10  and  C_11
REMARK   11  A    between atoms: C_11  and  O_12
REMARK   12  A    between atoms: N_15  and  CA_16
REMARK   13  A    between atoms: CA_16  and  C_17
REMARK   14  A    between atoms: C_17  and  O_18
REMARK   15  A    between atoms: C_20  and  O_21
REMARK                            x       y       z     vdW  Elec       q    Type
REMARK                         _______ _______ _______ _____ _____    ______ ____
ROOT
ATOM      1  C   UNK A   1       8.998  -2.538  24.528  0.00  0.00    +0.169 C 
ENDROOT
BRANCH   1   3
ATOM      2  C   UNK A   1       9.801  -1.303  22.554  0.00  0.00    +0.214 C 
ATOM      3  N   UNK A   1       8.819  -1.520  23.491  0.00  0.00    -0.303 N 
ATOM      4  H   UNK A   1       7.865  -1.300  23.226  0.00  0.00    +0.149 HD
ATOM      5  O   UNK A   1      10.870  -1.906  22.557  0.00  0.00    -0.276 OA
BRANCH   2   6
ATOM      6  C   UNK A   1       9.464  -0.249  21.515  0.00  0.00    +0.098 C 
BRANCH   6   7
ATOM      7  C   UNK A   1       9.883   1.145  21.981  0.00  0.00    +0.039 C 
BRANCH   7   8
ATOM      8  C   UNK A   1       8.801   1.891  22.769  0.00  0.00    +0.161 C 
BRANCH   8   9
ATOM      9  N   UNK A   1       8.274   3.077  22.033  0.00  0.00    -0.318 NA
ATOM     10  H   UNK A   1       7.434   2.801  21.515  0.00  0.00    +0.119 HD
ATOM     11  H   UNK A   1       7.935   3.755  22.720  0.00  0.00    +0.119 HD
ENDBRANCH   8   9
BRANCH   8  12
ATOM     12  C   UNK A   1       9.389   2.373  24.112  0.00  0.00    +0.322 C 
ATOM     13  O   UNK A   1       9.426   3.533  24.485  0.00  0.00    -0.249 OA
BRANCH  12  14
ATOM     14  O   UNK A   1       9.870   1.334  24.843  0.00  0.00    -0.480 OA
ATOM     15  H   UNK A   1      10.846   1.483  24.910  0.00  0.00    +0.295 HD
ENDBRANCH  12  14
ENDBRANCH   8  12
ENDBRANCH   7   8
ENDBRANCH   6   7
ENDBRANCH   2   6
ENDBRANCH   1   3
BRANCH   1  16
ATOM     16  C   UNK A   1       8.579  -3.893  23.926  0.00  0.00    +0.235 C 
ATOM     17  N   GLY A   2       7.622  -3.813  22.931  0.00  0.00    -0.303 N 
ATOM     18  H   GLY A   2       7.005  -3.005  22.972  0.00  0.00    +0.149 HD
ATOM     19  O   UNK A   1       9.082  -4.955  24.288  0.00  0.00    -0.274 OA
BRANCH  17  20
ATOM     20  CA  GLY A   2       7.058  -5.024  22.332  0.00  0.00    +0.224 C 
BRANCH  20  21
ATOM     21  C   GLY A   2       5.531  -5.085  22.392  0.00  0.00    +0.322 C 
ATOM     22  OXT GLY A   2       4.811  -4.099  22.342  0.00  0.00    -0.249 OA
BRANCH  21  23
ATOM     23  O   GLY A   2       5.034  -6.344  22.456  0.00  0.00    -0.480 OA
ATOM     24  H   GLY A   2       4.464  -6.448  23.245  0.00  0.00    +0.295 HD
ENDBRANCH  21  23
ENDBRANCH  20  21
ENDBRANCH  17  20
ENDBRANCH   1  16
BRANCH   1  25
ATOM     25  C   UNK A   1       8.126  -2.226  25.751  0.00  0.00    +0.103 C 
BRANCH  25  26
ATOM     26  S   UNK A   1       7.120  -0.716  25.510  0.00  0.00    -0.131 S 
BRANCH  26  27
ATOM     27  C   UNK A   1       5.636  -1.495  24.833  0.00  0.00    +0.225 C 
BRANCH  27  28
ATOM     28  O   UNK A   1       5.763  -1.590  23.429  0.00  0.00    -0.385 OA
ATOM     29  H   UNK A   1       6.721  -1.600  23.265  0.00  0.00    +0.211 HD
ENDBRANCH  27  28
ENDBRANCH  26  27
ENDBRANCH  25  26
ENDBRANCH   1  25
TORSDOF 15
ENDMDL
MODEL 8
REMARK VINA RESULT:      -5.5      2.813      6.567
REMARK  Name = 
REMARK  15 active torsions:
REMARK  status: ('A' for Active; 'I' for Inactive)
REMARK    1  A    between atoms: N_1  and  C_2
REMARK    2  A    between atoms: C_2  and  C_3
REMARK    3  A    between atoms: C_2  and  C_20
REMARK    4  A    between atoms: C_3  and  C_4
REMARK    5  A    between atoms: C_4  and  C_5
REMARK    6  A    between atoms: N_7  and  C_8
REMARK    7  A    between atoms: C_8  and  C_9
REMARK    8  A    between atoms: C_8  and  C_13
REMARK    9  A    between atoms: C_9  and  S_10
REMARK   10  A    between atoms: S_10  and  C_11
REMARK   11  A    between atoms: C_11  and  O_12
REMARK   12  A    between atoms: N_15  and  CA_16
REMARK   13  A    between atoms: CA_16  and  C_17
REMARK   14  A    between atoms: C_17  and  O_18
REMARK   15  A    between atoms: C_20  and  O_21
REMARK                            x       y       z     vdW  Elec       q    Type
REMARK                         _______ _______ _______ _____ _____    ______ ____
ROOT
ATOM      1  C   UNK A   1       7.836  -3.023  22.739  0.00  0.00    +0.169 C 
ENDROOT
BRANCH   1   3
ATOM      2  C   UNK A   1       6.901  -5.171  21.976  0.00  0.00    +0.214 C 
ATOM      3  N   UNK A   1       6.703  -3.926  22.525  0.00  0.00    -0.303 N 
ATOM      4  H   UNK A   1       5.903  -3.808  23.137  0.00  0.00    +0.149 HD
ATOM      5  O   UNK A   1       8.001  -5.569  21.608  0.00  0.00    -0.276 OA
BRANCH   2   6
ATOM      6  C   UNK A   1       5.646  -6.015  21.851  0.00  0.00    +0.098 C 
BRANCH   6   7
ATOM      7  C   UNK A   1       4.689  -5.762  23.016  0.00  0.00    +0.039 C 
BRANCH   7   8
ATOM      8  C   UNK A   1       4.778  -6.805  24.136  0.00  0.00    +0.161 C 
BRANCH   8   9
ATOM      9  N   UNK A   1       3.579  -7.692  24.186  0.00  0.00    -0.318 NA
ATOM     10  H   UNK A   1       3.357  -8.005  23.235  0.00  0.00    +0.119 HD
ATOM     11  H   UNK A   1       3.838  -8.550  24.680  0.00  0.00    +0.119 HD
ENDBRANCH   8   9
BRANCH   8  12
ATOM     12  C   UNK A   1       4.909  -6.084  25.494  0.00  0.00    +0.322 C 
ATOM     13  O   UNK A   1       4.823  -4.878  25.658  0.00  0.00    -0.249 OA
BRANCH  12  14
ATOM     14  O   UNK A   1       5.135  -6.965  26.502  0.00  0.00    -0.480 OA
ATOM     15  H   UNK A   1       6.117  -7.080  26.541  0.00  0.00    +0.295 HD
ENDBRANCH  12  14
ENDBRANCH   8  12
ENDBRANCH   7   8
ENDBRANCH   6   7
ENDBRANCH   2   6
ENDBRANCH   1   3
BRANCH   1  16
ATOM     16  C   UNK A   1       8.493  -3.410  24.078  0.00  0.00    +0.235 C 
ATOM     17  N   GLY A   2       7.620  -3.494  25.147  0.00  0.00    -0.303 N 
ATOM     18  H   GLY A   2       6.780  -2.924  25.081  0.00  0.00    +0.149 HD
ATOM     19  O   UNK A   1       9.694  -3.652  24.173  0.00  0.00    -0.274 OA
BRANCH  17  20
ATOM     20  CA  GLY A   2       8.113  -3.761  26.500  0.00  0.00    +0.224 C 
BRANCH  20  21
ATOM     21  C   GLY A   2       8.135  -5.246  26.864  0.00  0.00    +0.322 C 
ATOM     22  OXT GLY A   2       7.450  -5.736  27.750  0.00  0.00    -0.249 OA
BRANCH  21  23
ATOM     23  O   GLY A   2       8.951  -5.991  26.081  0.00  0.00    -0.480 OA
ATOM     24  H   GLY A   2       9.792  -6.181  26.545  0.00  0.00    +0.295 HD
ENDBRANCH  21  23
ENDBRANCH  20  21
ENDBRANCH  17  20
ENDBRANCH   1  16
BRANCH   1  25
ATOM     25  C   UNK A   1       7.364  -1.565  22.799  0.00  0.00    +0.103 C 
BRANCH  25  26
ATOM     26  S   UNK A   1       8.734  -0.415  23.187  0.00  0.00    -0.131 S 
BRANCH  26  27
ATOM     27  C   UNK A   1       9.360  -0.176  21.508  0.00  0.00    +0.225 C 
BRANCH  27  28
ATOM     28  O   UNK A   1       9.137   1.163  21.117  0.00  0.00    -0.385 OA
ATOM     29  H   UNK A   1       8.716   1.100  20.242  0.00  0.00    +0.211 HD
ENDBRANCH  27  28
ENDBRANCH  26  27
ENDBRANCH  25  26
ENDBRANCH   1  25
TORSDOF 15
ENDMDL
MODEL 9
REMARK VINA RESULT:      -5.5      2.099      6.143
REMARK  Name = 
REMARK  15 active torsions:
REMARK  status: ('A' for Active; 'I' for Inactive)
REMARK    1  A    between atoms: N_1  and  C_2
REMARK    2  A    between atoms: C_2  and  C_3
REMARK    3  A    between atoms: C_2  and  C_20
REMARK    4  A    between atoms: C_3  and  C_4
REMARK    5  A    between atoms: C_4  and  C_5
REMARK    6  A    between atoms: N_7  and  C_8
REMARK    7  A    between atoms: C_8  and  C_9
REMARK    8  A    between atoms: C_8  and  C_13
REMARK    9  A    between atoms: C_9  and  S_10
REMARK   10  A    between atoms: S_10  and  C_11
REMARK   11  A    between atoms: C_11  and  O_12
REMARK   12  A    between atoms: N_15  and  CA_16
REMARK   13  A    between atoms: CA_16  and  C_17
REMARK   14  A    between atoms: C_17  and  O_18
REMARK   15  A    between atoms: C_20  and  O_21
REMARK                            x       y       z     vdW  Elec       q    Type
REMARK                         _______ _______ _______ _____ _____    ______ ____
ROOT
ATOM      1  C   UNK A   1       7.880  -1.924  25.013  0.00  0.00    +0.169 C 
ENDROOT
BRANCH   1   3
ATOM      2  C   UNK A   1       6.871  -2.600  22.870  0.00  0.00    +0.214 C 
ATOM      3  N   UNK A   1       7.522  -2.948  24.031  0.00  0.00    -0.303 N 
ATOM      4  H   UNK A   1       8.095  -3.784  24.011  0.00  0.00    +0.149 HD
ATOM      5  O   UNK A   1       6.530  -1.449  22.617  0.00  0.00    -0.276 OA
BRANCH   2   6
ATOM      6  C   UNK A   1       6.600  -3.756  21.924  0.00  0.00    +0.098 C 
BRANCH   6   7
ATOM      7  C   UNK A   1       7.168  -5.065  22.470  0.00  0.00    +0.039 C 
BRANCH   7   8
ATOM      8  C   UNK A   1       6.187  -6.242  22.418  0.00  0.00    +0.161 C 
BRANCH   8   9
ATOM      9  N   UNK A   1       5.319  -6.208  21.205  0.00  0.00    -0.318 NA
ATOM     10  H   UNK A   1       4.656  -6.989  21.248  0.00  0.00    +0.119 HD
ATOM     11  H   UNK A   1       4.728  -5.374  21.260  0.00  0.00    +0.119 HD
ENDBRANCH   8   9
BRANCH   8  12
ATOM     12  C   UNK A   1       5.282  -6.208  23.667  0.00  0.00    +0.322 C 
ATOM     13  O   UNK A   1       5.177  -5.262  24.430  0.00  0.00    -0.249 OA
BRANCH  12  14
ATOM     14  O   UNK A   1       4.605  -7.375  23.821  0.00  0.00    -0.480 OA
ATOM     15  H   UNK A   1       4.375  -7.427  24.782  0.00  0.00    +0.295 HD
ENDBRANCH  12  14
ENDBRANCH   8  12
ENDBRANCH   7   8
ENDBRANCH   6   7
ENDBRANCH   2   6
ENDBRANCH   1   3
BRANCH   1  16
ATOM     16  C   UNK A   1       9.091  -1.150  24.457  0.00  0.00    +0.235 C 
ATOM     17  N   GLY A   2       8.844   0.181  24.173  0.00  0.00    -0.303 N 
ATOM     18  H   GLY A   2       7.880   0.417  23.952  0.00  0.00    +0.149 HD
ATOM     19  O   UNK A   1      10.193  -1.674  24.308  0.00  0.00    -0.274 OA
BRANCH  17  20
ATOM     20  CA  GLY A   2       9.872   1.020  23.551  0.00  0.00    +0.224 C 
BRANCH  20  21
ATOM     21  C   GLY A   2       9.778   1.075  22.026  0.00  0.00    +0.322 C 
ATOM     22  OXT GLY A   2       9.409   0.137  21.335  0.00  0.00    -0.249 OA
BRANCH  21  23
ATOM     23  O   GLY A   2      10.096   2.283  21.500  0.00  0.00    -0.480 OA
ATOM     24  H   GLY A   2       9.286   2.804  21.325  0.00  0.00    +0.295 HD
ENDBRANCH  21  23
ENDBRANCH  20  21
ENDBRANCH  17  20
ENDBRANCH   1  16
BRANCH   1  25
ATOM     25  C   UNK A   1       8.252  -2.566  26.356  0.00  0.00    +0.103 C 
BRANCH  25  26
ATOM     26  S   UNK A   1       8.001  -4.379  26.343  0.00  0.00    -0.131 S 
BRANCH  26  27
ATOM     27  C   UNK A   1       9.708  -4.878  26.016  0.00  0.00    +0.225 C 
BRANCH  27  28
ATOM     28  O   UNK A   1      10.024  -4.593  24.669  0.00  0.00    -0.385 OA
ATOM     29  H   UNK A   1      10.991  -4.688  24.614  0.00  0.00    +0.211 HD
ENDBRANCH  27  28
ENDBRANCH  26  27
ENDBRANCH  25  26
ENDBRANCH   1  25
TORSDOF 15
ENDMDL
