MODEL 1
REMARK VINA RESULT:      -6.6      0.000      0.000
REMARK  Name = 
REMARK  17 active torsions:
REMARK  status: ('A' for Active; 'I' for Inactive)
REMARK    1  A    between atoms: C_1  and  C_2
REMARK    2  A    between atoms: C_2  and  C_3
REMARK    3  A    between atoms: C_2  and  O_4
REMARK    4  A    between atoms: O_4  and  C_5
REMARK    5  A    between atoms: C_5  and  C_7
REMARK    6  A    between atoms: C_7  and  C_8
REMARK    7  A    between atoms: C_8  and  C_9
REMARK    8  A    between atoms: C_9  and  C_10
REMARK    9  A    between atoms: C_11  and  C_12
REMARK   10  A    between atoms: C_12  and  C_13
REMARK   11  A    between atoms: C_15  and  O_17
REMARK   12  A    between atoms: C_19  and  O_21
REMARK   13  A    between atoms: C_22  and  C_24
REMARK   14  A    between atoms: C_25  and  C_26
REMARK   15  A    between atoms: C_26  and  C_29
REMARK   16  A    between atoms: C_29  and  O_30
REMARK   17  A    between atoms: O_30  and  C_31
REMARK                            x       y       z     vdW  Elec       q    Type
REMARK                         _______ _______ _______ _____ _____    ______ ____
ROOT
ATOM      1  C   UNL     1       5.565  -5.297  23.591  0.00  0.00    +0.031 C 
ATOM      2  C   UNL     1       5.258  -3.879  23.050  0.00  0.00    +0.046 C 
ATOM      3  C   UNL     1       6.285  -3.679  21.901  0.00  0.00    +0.124 C 
ATOM      4  C   UNL     1       7.137  -4.953  21.850  0.00  0.00    +0.063 C 
ATOM      5  C   UNL     1       6.203  -6.024  22.402  0.00  0.00    +0.121 C 
ENDROOT
BRANCH   2   6
ATOM      6  C   UNL     1       5.312  -2.754  24.068  0.00  0.00    -0.019 C 
ATOM      7  C   UNL     1       5.993  -1.599  23.951  0.00  0.00    +0.047 C 
BRANCH   7   8
ATOM      8  C   UNL     1       6.028  -0.489  24.968  0.00  0.00    +0.300 C 
ATOM      9  F   UNL     1       7.156  -0.587  25.721  0.00  0.00    -0.197 F 
ATOM     10  F   UNL     1       4.975  -0.616  25.820  0.00  0.00    -0.197 F 
BRANCH   8  11
ATOM     11  C   UNL     1       5.981   0.888  24.286  0.00  0.00    +0.308 C 
BRANCH  11  12
ATOM     12  O   UNL     1       6.642   0.837  23.017  0.00  0.00    -0.486 OA
BRANCH  12  13
ATOM     13  C   UNL     1       7.875   1.425  22.969  0.00  0.00    +0.121 A 
ATOM     14  C   UNL     1       8.793   1.304  21.921  0.00  0.00    +0.045 A 
ATOM     15  C   UNL     1      10.042   1.925  22.013  0.00  0.00    +0.004 A 
ATOM     16  C   UNL     1      10.379   2.665  23.146  0.00  0.00    +0.000 A 
ATOM     17  C   UNL     1       9.468   2.780  24.194  0.00  0.00    +0.004 A 
ATOM     18  C   UNL     1       8.223   2.155  24.106  0.00  0.00    +0.045 A 
ENDBRANCH  12  13
ENDBRANCH  11  12
ENDBRANCH   8  11
ENDBRANCH   7   8
ENDBRANCH   2   6
BRANCH   3  19
ATOM     19  O   UNL     1       5.588  -3.527  20.661  0.00  0.00    -0.391 OA
ATOM     20  H   UNL     1       5.601  -4.407  20.229  0.00  0.00    +0.210 HD
ENDBRANCH   3  19
BRANCH   5  21
ATOM     21  O   UNL     1       5.279  -6.359  21.376  0.00  0.00    -0.391 OA
ATOM     22  H   UNL     1       5.627  -7.146  20.919  0.00  0.00    +0.210 HD
ENDBRANCH   5  21
BRANCH   1  23
ATOM     23  C   UNL     1       4.391  -5.977  24.310  0.00  0.00    +0.033 C 
BRANCH  23  25
ATOM     24  C   UNL     1       5.459  -6.388  26.567  0.00  0.00    -0.031 C 
ATOM     25  C   UNL     1       4.710  -6.794  25.528  0.00  0.00    -0.031 C 
BRANCH  24  26
ATOM     26  C   UNL     1       6.145  -5.057  26.690  0.00  0.00    +0.027 C 
BRANCH  26  27
ATOM     27  C   UNL     1       7.667  -5.186  26.737  0.00  0.00    +0.015 C 
BRANCH  27  28
ATOM     28  C   UNL     1       8.387  -3.889  26.370  0.00  0.00    +0.121 C 
BRANCH  28  29
ATOM     29  C   UNL     1       9.164  -4.054  25.089  0.00  0.00    +0.307 C 
ATOM     30  O   UNL     1       9.974  -4.942  24.867  0.00  0.00    -0.251 OA
BRANCH  29  31
ATOM     31  O   UNL     1       8.816  -3.070  24.213  0.00  0.00    -0.462 OA
BRANCH  31  33
ATOM     32  C   UNL     1       9.628  -1.912  22.250  0.00  0.00    +0.052 C 
ATOM     33  C   UNL     1       9.909  -2.286  23.702  0.00  0.00    +0.170 C 
ATOM     34  C   UNL     1      10.025  -1.038  24.569  0.00  0.00    +0.052 C 
ENDBRANCH  31  33
ENDBRANCH  29  31
ENDBRANCH  28  29
ENDBRANCH  27  28
ENDBRANCH  26  27
ENDBRANCH  24  26
ENDBRANCH  23  25
ENDBRANCH   1  23
TORSDOF 15
ENDMDL
MODEL 2
REMARK VINA RESULT:      -6.5      2.007      3.167
REMARK  Name = 
REMARK  17 active torsions:
REMARK  status: ('A' for Active; 'I' for Inactive)
REMARK    1  A    between atoms: C_1  and  C_2
REMARK    2  A    between atoms: C_2  and  C_3
REMARK    3  A    between atoms: C_2  and  O_4
REMARK    4  A    between atoms: O_4  and  C_5
REMARK    5  A    between atoms: C_5  and  C_7
REMARK    6  A    between atoms: C_7  and  C_8
REMARK    7  A    between atoms: C_8  and  C_9
REMARK    8  A    between atoms: C_9  and  C_10
REMARK    9  A    between atoms: C_11  and  C_12
REMARK   10  A    between atoms: C_12  and  C_13
REMARK   11  A    between atoms: C_15  and  O_17
REMARK   12  A    between atoms: C_19  and  O_21
REMARK   13  A    between atoms: C_22  and  C_24
REMARK   14  A    between atoms: C_25  and  C_26
REMARK   15  A    between atoms: C_26  and  C_29
REMARK   16  A    between atoms: C_29  and  O_30
REMARK   17  A    between atoms: O_30  and  C_31
REMARK                            x       y       z     vdW  Elec       q    Type
REMARK                         _______ _______ _______ _____ _____    ______ ____
ROOT
ATOM      1  C   UNL     1       5.203  -4.570  23.616  0.00  0.00    +0.031 C 
ATOM      2  C   UNL     1       5.920  -3.952  22.390  0.00  0.00    +0.046 C 
ATOM      3  C   UNL     1       6.614  -5.162  21.705  0.00  0.00    +0.124 C 
ATOM      4  C   UNL     1       6.296  -6.392  22.564  0.00  0.00    +0.063 C 
ATOM      5  C   UNL     1       4.966  -6.030  23.218  0.00  0.00    +0.121 C 
ENDROOT
BRANCH   2   6
ATOM      6  C   UNL     1       6.893  -2.826  22.688  0.00  0.00    -0.019 C 
ATOM      7  C   UNL     1       8.223  -2.839  22.476  0.00  0.00    +0.047 C 
BRANCH   7   8
ATOM      8  C   UNL     1       9.173  -1.708  22.769  0.00  0.00    +0.300 C 
ATOM      9  F   UNL     1      10.380  -2.205  23.152  0.00  0.00    -0.197 F 
ATOM     10  F   UNL     1       8.702  -0.974  23.812  0.00  0.00    -0.197 F 
BRANCH   8  11
ATOM     11  C   UNL     1       9.355  -0.805  21.538  0.00  0.00    +0.308 C 
BRANCH  11  12
ATOM     12  O   UNL     1      10.196   0.309  21.859  0.00  0.00    -0.486 OA
BRANCH  12  13
ATOM     13  C   UNL     1       9.548   1.433  22.290  0.00  0.00    +0.121 A 
ATOM     14  C   UNL     1       8.312   1.888  21.824  0.00  0.00    +0.045 A 
ATOM     15  C   UNL     1       7.774   3.080  22.319  0.00  0.00    +0.004 A 
ATOM     16  C   UNL     1       8.468   3.820  23.276  0.00  0.00    +0.000 A 
ATOM     17  C   UNL     1       9.705   3.373  23.735  0.00  0.00    +0.004 A 
ATOM     18  C   UNL     1      10.245   2.186  23.237  0.00  0.00    +0.045 A 
ENDBRANCH  12  13
ENDBRANCH  11  12
ENDBRANCH   8  11
ENDBRANCH   7   8
ENDBRANCH   2   6
BRANCH   3  19
ATOM     19  O   UNL     1       6.068  -5.346  20.396  0.00  0.00    -0.391 OA
ATOM     20  H   UNL     1       5.425  -4.618  20.262  0.00  0.00    +0.210 HD
ENDBRANCH   3  19
BRANCH   5  21
ATOM     21  O   UNL     1       3.948  -6.198  22.241  0.00  0.00    -0.391 OA
ATOM     22  H   UNL     1       3.810  -5.332  21.816  0.00  0.00    +0.210 HD
ENDBRANCH   5  21
BRANCH   1  23
ATOM     23  C   UNL     1       4.008  -3.758  24.135  0.00  0.00    +0.033 C 
BRANCH  23  25
ATOM     24  C   UNL     1       3.808  -3.904  26.653  0.00  0.00    -0.031 C 
ATOM     25  C   UNL     1       4.096  -3.220  25.534  0.00  0.00    -0.031 C 
BRANCH  24  26
ATOM     26  C   UNL     1       3.311  -5.320  26.716  0.00  0.00    +0.027 C 
BRANCH  26  27
ATOM     27  C   UNL     1       4.240  -6.232  27.516  0.00  0.00    +0.015 C 
BRANCH  27  28
ATOM     28  C   UNL     1       5.641  -6.331  26.914  0.00  0.00    +0.121 C 
BRANCH  28  29
ATOM     29  C   UNL     1       6.661  -5.705  27.829  0.00  0.00    +0.307 C 
ATOM     30  O   UNL     1       6.443  -5.322  28.969  0.00  0.00    -0.251 OA
BRANCH  29  31
ATOM     31  O   UNL     1       7.867  -5.642  27.196  0.00  0.00    -0.462 OA
BRANCH  31  33
ATOM     32  C   UNL     1       7.846  -3.406  26.275  0.00  0.00    +0.052 C 
ATOM     33  C   UNL     1       7.877  -4.899  25.964  0.00  0.00    +0.170 C 
ATOM     34  C   UNL     1       9.150  -5.268  25.214  0.00  0.00    +0.052 C 
ENDBRANCH  31  33
ENDBRANCH  29  31
ENDBRANCH  28  29
ENDBRANCH  27  28
ENDBRANCH  26  27
ENDBRANCH  24  26
ENDBRANCH  23  25
ENDBRANCH   1  23
TORSDOF 15
ENDMDL
MODEL 3
REMARK VINA RESULT:      -6.3      2.154      5.104
REMARK  Name = 
REMARK  17 active torsions:
REMARK  status: ('A' for Active; 'I' for Inactive)
REMARK    1  A    between atoms: C_1  and  C_2
REMARK    2  A    between atoms: C_2  and  C_3
REMARK    3  A    between atoms: C_2  and  O_4
REMARK    4  A    between atoms: O_4  and  C_5
REMARK    5  A    between atoms: C_5  and  C_7
REMARK    6  A    between atoms: C_7  and  C_8
REMARK    7  A    between atoms: C_8  and  C_9
REMARK    8  A    between atoms: C_9  and  C_10
REMARK    9  A    between atoms: C_11  and  C_12
REMARK   10  A    between atoms: C_12  and  C_13
REMARK   11  A    between atoms: C_15  and  O_17
REMARK   12  A    between atoms: C_19  and  O_21
REMARK   13  A    between atoms: C_22  and  C_24
REMARK   14  A    between atoms: C_25  and  C_26
REMARK   15  A    between atoms: C_26  and  C_29
REMARK   16  A    between atoms: C_29  and  O_30
REMARK   17  A    between atoms: O_30  and  C_31
REMARK                            x       y       z     vdW  Elec       q    Type
REMARK                         _______ _______ _______ _____ _____    ______ ____
ROOT
ATOM      1  C   UNL     1       5.498  -0.298  25.971  0.00  0.00    +0.031 C 
ATOM      2  C   UNL     1       7.031  -0.083  25.992  0.00  0.00    +0.046 C 
ATOM      3  C   UNL     1       7.229   1.309  25.330  0.00  0.00    +0.124 C 
ATOM      4  C   UNL     1       5.833   1.810  24.942  0.00  0.00    +0.063 C 
ATOM      5  C   UNL     1       4.918   1.120  25.948  0.00  0.00    +0.121 C 
ENDROOT
BRANCH   2   6
ATOM      6  C   UNL     1       7.861  -1.161  25.318  0.00  0.00    -0.019 C 
ATOM      7  C   UNL     1       7.515  -1.880  24.234  0.00  0.00    +0.047 C 
BRANCH   7   8
ATOM      8  C   UNL     1       8.356  -2.940  23.573  0.00  0.00    +0.300 C 
ATOM      9  F   UNL     1       8.101  -2.967  22.238  0.00  0.00    -0.197 F 
ATOM     10  F   UNL     1       8.018  -4.163  24.062  0.00  0.00    -0.197 F 
BRANCH   8  11
ATOM     11  C   UNL     1       9.854  -2.683  23.807  0.00  0.00    +0.308 C 
BRANCH  11  12
ATOM     12  O   UNL     1      10.407  -1.941  22.714  0.00  0.00    -0.486 OA
BRANCH  12  13
ATOM     13  C   UNL     1      10.355  -0.581  22.836  0.00  0.00    +0.121 A 
ATOM     14  C   UNL     1      10.803   0.154  23.937  0.00  0.00    +0.045 A 
ATOM     15  C   UNL     1      10.655   1.545  23.955  0.00  0.00    +0.004 A 
ATOM     16  C   UNL     1      10.059   2.202  22.880  0.00  0.00    +0.000 A 
ATOM     17  C   UNL     1       9.604   1.471  21.786  0.00  0.00    +0.004 A 
ATOM     18  C   UNL     1       9.746   0.082  21.769  0.00  0.00    +0.045 A 
ENDBRANCH  12  13
ENDBRANCH  11  12
ENDBRANCH   8  11
ENDBRANCH   7   8
ENDBRANCH   2   6
BRANCH   3  19
ATOM     19  O   UNL     1       7.808   2.209  26.279  0.00  0.00    -0.391 OA
ATOM     20  H   UNL     1       8.344   1.658  26.888  0.00  0.00    +0.210 HD
ENDBRANCH   3  19
BRANCH   5  21
ATOM     21  O   UNL     1       5.043   1.808  27.185  0.00  0.00    -0.391 OA
ATOM     22  H   UNL     1       5.812   2.400  27.110  0.00  0.00    +0.210 HD
ENDBRANCH   5  21
BRANCH   1  23
ATOM     23  C   UNL     1       4.974  -1.277  27.032  0.00  0.00    +0.033 C 
BRANCH  23  25
ATOM     24  C   UNL     1       4.556  -3.716  26.503  0.00  0.00    -0.031 C 
ATOM     25  C   UNL     1       4.150  -2.437  26.552  0.00  0.00    -0.031 C 
BRANCH  24  26
ATOM     26  C   UNL     1       5.918  -4.222  26.885  0.00  0.00    +0.027 C 
BRANCH  26  27
ATOM     27  C   UNL     1       6.195  -5.623  26.342  0.00  0.00    +0.015 C 
BRANCH  27  28
ATOM     28  C   UNL     1       4.926  -6.461  26.180  0.00  0.00    +0.121 C 
BRANCH  28  29
ATOM     29  C   UNL     1       4.718  -6.838  24.735  0.00  0.00    +0.307 C 
ATOM     30  O   UNL     1       3.855  -7.601  24.325  0.00  0.00    -0.251 OA
BRANCH  29  31
ATOM     31  O   UNL     1       5.628  -6.188  23.956  0.00  0.00    -0.462 OA
BRANCH  31  33
ATOM     32  C   UNL     1       4.833  -4.159  22.906  0.00  0.00    +0.052 C 
ATOM     33  C   UNL     1       5.111  -5.649  22.726  0.00  0.00    +0.170 C 
ATOM     34  C   UNL     1       6.161  -5.876  21.647  0.00  0.00    +0.052 C 
ENDBRANCH  31  33
ENDBRANCH  29  31
ENDBRANCH  28  29
ENDBRANCH  27  28
ENDBRANCH  26  27
ENDBRANCH  24  26
ENDBRANCH  23  25
ENDBRANCH   1  23
TORSDOF 15
ENDMDL
MODEL 4
REMARK VINA RESULT:      -6.2      2.108      3.747
REMARK  Name = 
REMARK  17 active torsions:
REMARK  status: ('A' for Active; 'I' for Inactive)
REMARK    1  A    between atoms: C_1  and  C_2
REMARK    2  A    between atoms: C_2  and  C_3
REMARK    3  A    between atoms: C_2  and  O_4
REMARK    4  A    between atoms: O_4  and  C_5
REMARK    5  A    between atoms: C_5  and  C_7
REMARK    6  A    between atoms: C_7  and  C_8
REMARK    7  A    between atoms: C_8  and  C_9
REMARK    8  A    between atoms: C_9  and  C_10
REMARK    9  A    between atoms: C_11  and  C_12
REMARK   10  A    between atoms: C_12  and  C_13
REMARK   11  A    between atoms: C_15  and  O_17
REMARK   12  A    between atoms: C_19  and  O_21
REMARK   13  A    between atoms: C_22  and  C_24
REMARK   14  A    between atoms: C_25  and  C_26
REMARK   15  A    between atoms: C_26  and  C_29
REMARK   16  A    between atoms: C_29  and  O_30
REMARK   17  A    between atoms: O_30  and  C_31
REMARK                            x       y       z     vdW  Elec       q    Type
REMARK                         _______ _______ _______ _____ _____    ______ ____
ROOT
ATOM      1  C   UNL     1       5.934  -3.887  23.634  0.00  0.00    +0.031 C 
ATOM      2  C   UNL     1       6.631  -3.665  22.269  0.00  0.00    +0.046 C 
ATOM      3  C   UNL     1       6.688  -5.082  21.635  0.00  0.00    +0.124 C 
ATOM      4  C   UNL     1       6.060  -6.041  22.653  0.00  0.00    +0.063 C 
ATOM      5  C   UNL     1       5.093  -5.151  23.427  0.00  0.00    +0.121 C 
ENDROOT
BRANCH   2   6
ATOM      6  C   UNL     1       7.997  -3.005  22.322  0.00  0.00    -0.019 C 
ATOM      7  C   UNL     1       8.250  -1.683  22.295  0.00  0.00    +0.047 C 
BRANCH   7   8
ATOM      8  C   UNL     1       9.613  -1.045  22.357  0.00  0.00    +0.300 C 
ATOM      9  F   UNL     1       9.921  -0.493  21.153  0.00  0.00    -0.197 F 
ATOM     10  F   UNL     1      10.552  -1.996  22.606  0.00  0.00    -0.197 F 
BRANCH   8  11
ATOM     11  C   UNL     1       9.668   0.037  23.449  0.00  0.00    +0.308 C 
BRANCH  11  12
ATOM     12  O   UNL     1      10.176   1.262  22.909  0.00  0.00    -0.486 OA
BRANCH  12  13
ATOM     13  C   UNL     1       9.285   2.297  22.850  0.00  0.00    +0.121 A 
ATOM     14  C   UNL     1       8.147   2.345  22.040  0.00  0.00    +0.045 A 
ATOM     15  C   UNL     1       7.336   3.484  22.043  0.00  0.00    +0.004 A 
ATOM     16  C   UNL     1       7.659   4.575  22.849  0.00  0.00    +0.000 A 
ATOM     17  C   UNL     1       8.797   4.532  23.650  0.00  0.00    +0.004 A 
ATOM     18  C   UNL     1       9.611   3.398  23.644  0.00  0.00    +0.045 A 
ENDBRANCH  12  13
ENDBRANCH  11  12
ENDBRANCH   8  11
ENDBRANCH   7   8
ENDBRANCH   2   6
BRANCH   3  19
ATOM     19  O   UNL     1       5.916  -5.097  20.432  0.00  0.00    -0.391 OA
ATOM     20  H   UNL     1       5.401  -4.262  20.425  0.00  0.00    +0.210 HD
ENDBRANCH   3  19
BRANCH   5  21
ATOM     21  O   UNL     1       3.949  -4.947  22.608  0.00  0.00    -0.391 OA
ATOM     22  H   UNL     1       4.267  -4.779  21.703  0.00  0.00    +0.210 HD
ENDBRANCH   5  21
BRANCH   1  23
ATOM     23  C   UNL     1       5.241  -2.644  24.210  0.00  0.00    +0.033 C 
BRANCH  23  25
ATOM     24  C   UNL     1       6.148  -2.023  26.489  0.00  0.00    -0.031 C 
ATOM     25  C   UNL     1       5.178  -2.521  25.705  0.00  0.00    -0.031 C 
BRANCH  24  26
ATOM     26  C   UNL     1       7.488  -1.528  26.025  0.00  0.00    +0.027 C 
BRANCH  26  27
ATOM     27  C   UNL     1       8.483  -2.664  25.791  0.00  0.00    +0.015 C 
BRANCH  27  28
ATOM     28  C   UNL     1       8.526  -3.665  26.945  0.00  0.00    +0.121 C 
BRANCH  28  29
ATOM     29  C   UNL     1       8.209  -5.056  26.458  0.00  0.00    +0.307 C 
ATOM     30  O   UNL     1       8.411  -5.468  25.325  0.00  0.00    -0.251 OA
BRANCH  29  31
ATOM     31  O   UNL     1       7.677  -5.788  27.477  0.00  0.00    -0.462 OA
BRANCH  31  33
ATOM     32  C   UNL     1       5.422  -6.252  26.734  0.00  0.00    +0.052 C 
ATOM     33  C   UNL     1       6.290  -5.530  27.761  0.00  0.00    +0.170 C 
ATOM     34  C   UNL     1       6.004  -6.041  29.166  0.00  0.00    +0.052 C 
ENDBRANCH  31  33
ENDBRANCH  29  31
ENDBRANCH  28  29
ENDBRANCH  27  28
ENDBRANCH  26  27
ENDBRANCH  24  26
ENDBRANCH  23  25
ENDBRANCH   1  23
TORSDOF 15
ENDMDL
MODEL 5
REMARK VINA RESULT:      -6.2      2.172      6.827
REMARK  Name = 
REMARK  17 active torsions:
REMARK  status: ('A' for Active; 'I' for Inactive)
REMARK    1  A    between atoms: C_1  and  C_2
REMARK    2  A    between atoms: C_2  and  C_3
REMARK    3  A    between atoms: C_2  and  O_4
REMARK    4  A    between atoms: O_4  and  C_5
REMARK    5  A    between atoms: C_5  and  C_7
REMARK    6  A    between atoms: C_7  and  C_8
REMARK    7  A    between atoms: C_8  and  C_9
REMARK    8  A    between atoms: C_9  and  C_10
REMARK    9  A    between atoms: C_11  and  C_12
REMARK   10  A    between atoms: C_12  and  C_13
REMARK   11  A    between atoms: C_15  and  O_17
REMARK   12  A    between atoms: C_19  and  O_21
REMARK   13  A    between atoms: C_22  and  C_24
REMARK   14  A    between atoms: C_25  and  C_26
REMARK   15  A    between atoms: C_26  and  C_29
REMARK   16  A    between atoms: C_29  and  O_30
REMARK   17  A    between atoms: O_30  and  C_31
REMARK                            x       y       z     vdW  Elec       q    Type
REMARK                         _______ _______ _______ _____ _____    ______ ____
ROOT
ATOM      1  C   UNL     1       7.962  -0.971  25.898  0.00  0.00    +0.031 C 
ATOM      2  C   UNL     1       7.042  -0.591  24.712  0.00  0.00    +0.046 C 
ATOM      3  C   UNL     1       5.711  -0.158  25.386  0.00  0.00    +0.124 C 
ATOM      4  C   UNL     1       5.910  -0.329  26.897  0.00  0.00    +0.063 C 
ATOM      5  C   UNL     1       7.415  -0.157  27.075  0.00  0.00    +0.121 C 
ENDROOT
BRANCH   2   6
ATOM      6  C   UNL     1       6.829  -1.670  23.666  0.00  0.00    -0.019 C 
ATOM      7  C   UNL     1       5.706  -2.387  23.470  0.00  0.00    +0.047 C 
BRANCH   7   8
ATOM      8  C   UNL     1       5.510  -3.449  22.420  0.00  0.00    +0.300 C 
ATOM      9  F   UNL     1       5.337  -2.869  21.202  0.00  0.00    -0.197 F 
ATOM     10  F   UNL     1       4.376  -4.150  22.686  0.00  0.00    -0.197 F 
BRANCH   8  11
ATOM     11  C   UNL     1       6.713  -4.405  22.369  0.00  0.00    +0.308 C 
BRANCH  11  12
ATOM     12  O   UNL     1       6.609  -5.389  23.404  0.00  0.00    -0.486 OA
BRANCH  12  13
ATOM     13  C   UNL     1       7.337  -5.137  24.534  0.00  0.00    +0.121 A 
ATOM     14  C   UNL     1       6.807  -4.899  25.805  0.00  0.00    +0.045 A 
ATOM     15  C   UNL     1       7.661  -4.612  26.874  0.00  0.00    +0.004 A 
ATOM     16  C   UNL     1       9.041  -4.562  26.678  0.00  0.00    +0.000 A 
ATOM     17  C   UNL     1       9.570  -4.791  25.410  0.00  0.00    +0.004 A 
ATOM     18  C   UNL     1       8.717  -5.071  24.341  0.00  0.00    +0.045 A 
ENDBRANCH  12  13
ENDBRANCH  11  12
ENDBRANCH   8  11
ENDBRANCH   7   8
ENDBRANCH   2   6
BRANCH   3  19
ATOM     19  O   UNL     1       5.456   1.219  25.096  0.00  0.00    -0.391 OA
ATOM     20  H   UNL     1       4.641   1.239  24.552  0.00  0.00    +0.210 HD
ENDBRANCH   3  19
BRANCH   5  21
ATOM     21  O   UNL     1       7.701   1.233  26.991  0.00  0.00    -0.391 OA
ATOM     22  H   UNL     1       7.133   1.602  26.291  0.00  0.00    +0.210 HD
ENDBRANCH   5  21
BRANCH   1  23
ATOM     23  C   UNL     1       9.465  -0.885  25.596  0.00  0.00    +0.033 C 
BRANCH  23  25
ATOM     24  C   UNL     1      10.306  -0.470  23.245  0.00  0.00    -0.031 C 
ATOM     25  C   UNL     1       9.916  -1.301  24.225  0.00  0.00    -0.031 C 
BRANCH  24  26
ATOM     26  C   UNL     1      10.332   1.030  23.322  0.00  0.00    +0.027 C 
BRANCH  26  27
ATOM     27  C   UNL     1       9.985   1.690  21.989  0.00  0.00    +0.015 C 
BRANCH  27  28
ATOM     28  C   UNL     1       8.642   1.228  21.426  0.00  0.00    +0.121 C 
BRANCH  28  29
ATOM     29  C   UNL     1       7.517   2.076  21.962  0.00  0.00    +0.307 C 
ATOM     30  O   UNL     1       6.421   1.657  22.305  0.00  0.00    -0.251 OA
BRANCH  29  31
ATOM     31  O   UNL     1       7.914   3.379  22.019  0.00  0.00    -0.462 OA
BRANCH  31  33
ATOM     32  C   UNL     1       8.177   4.074  24.321  0.00  0.00    +0.052 C 
ATOM     33  C   UNL     1       7.312   4.160  23.067  0.00  0.00    +0.170 C 
ATOM     34  C   UNL     1       7.217   5.598  22.573  0.00  0.00    +0.052 C 
ENDBRANCH  31  33
ENDBRANCH  29  31
ENDBRANCH  28  29
ENDBRANCH  27  28
ENDBRANCH  26  27
ENDBRANCH  24  26
ENDBRANCH  23  25
ENDBRANCH   1  23
TORSDOF 15
ENDMDL
MODEL 6
REMARK VINA RESULT:      -6.1      2.763      5.455
REMARK  Name = 
REMARK  17 active torsions:
REMARK  status: ('A' for Active; 'I' for Inactive)
REMARK    1  A    between atoms: C_1  and  C_2
REMARK    2  A    between atoms: C_2  and  C_3
REMARK    3  A    between atoms: C_2  and  O_4
REMARK    4  A    between atoms: O_4  and  C_5
REMARK    5  A    between atoms: C_5  and  C_7
REMARK    6  A    between atoms: C_7  and  C_8
REMARK    7  A    between atoms: C_8  and  C_9
REMARK    8  A    between atoms: C_9  and  C_10
REMARK    9  A    between atoms: C_11  and  C_12
REMARK   10  A    between atoms: C_12  and  C_13
REMARK   11  A    between atoms: C_15  and  O_17
REMARK   12  A    between atoms: C_19  and  O_21
REMARK   13  A    between atoms: C_22  and  C_24
REMARK   14  A    between atoms: C_25  and  C_26
REMARK   15  A    between atoms: C_26  and  C_29
REMARK   16  A    between atoms: C_29  and  O_30
REMARK   17  A    between atoms: O_30  and  C_31
REMARK                            x       y       z     vdW  Elec       q    Type
REMARK                         _______ _______ _______ _____ _____    ______ ____
ROOT
ATOM      1  C   UNL     1       5.282  -4.223  28.401  0.00  0.00    +0.031 C 
ATOM      2  C   UNL     1       6.012  -5.442  27.786  0.00  0.00    +0.046 C 
ATOM      3  C   UNL     1       6.113  -6.456  28.959  0.00  0.00    +0.124 C 
ATOM      4  C   UNL     1       5.475  -5.780  30.178  0.00  0.00    +0.063 C 
ATOM      5  C   UNL     1       4.470  -4.813  29.559  0.00  0.00    +0.121 C 
ENDROOT
BRANCH   2   6
ATOM      6  C   UNL     1       7.363  -5.158  27.157  0.00  0.00    -0.019 C 
ATOM      7  C   UNL     1       7.642  -5.117  25.840  0.00  0.00    +0.047 C 
BRANCH   7   8
ATOM      8  C   UNL     1       8.988  -4.825  25.232  0.00  0.00    +0.300 C 
ATOM      9  F   UNL     1       9.114  -5.480  24.047  0.00  0.00    -0.197 F 
ATOM     10  F   UNL     1       9.970  -5.295  26.047  0.00  0.00    -0.197 F 
BRANCH   8  11
ATOM     11  C   UNL     1       9.178  -3.315  25.009  0.00  0.00    +0.308 C 
BRANCH  11  12
ATOM     12  O   UNL     1       9.746  -3.072  23.717  0.00  0.00    -0.486 OA
BRANCH  12  13
ATOM     13  C   UNL     1       9.832  -1.758  23.347  0.00  0.00    +0.121 A 
ATOM     14  C   UNL     1      10.077  -0.686  24.210  0.00  0.00    +0.045 A 
ATOM     15  C   UNL     1      10.101   0.620  23.710  0.00  0.00    +0.004 A 
ATOM     16  C   UNL     1       9.879   0.858  22.354  0.00  0.00    +0.000 A 
ATOM     17  C   UNL     1       9.626  -0.209  21.495  0.00  0.00    +0.004 A 
ATOM     18  C   UNL     1       9.597  -1.512  21.994  0.00  0.00    +0.045 A 
ENDBRANCH  12  13
ENDBRANCH  11  12
ENDBRANCH   8  11
ENDBRANCH   7   8
ENDBRANCH   2   6
BRANCH   3  19
ATOM     19  O   UNL     1       5.374  -7.637  28.633  0.00  0.00    -0.391 OA
ATOM     20  H   UNL     1       4.831  -7.413  27.847  0.00  0.00    +0.210 HD
ENDBRANCH   3  19
BRANCH   5  21
ATOM     21  O   UNL     1       3.346  -5.574  29.138  0.00  0.00    -0.391 OA
ATOM     22  H   UNL     1       3.238  -5.425  28.182  0.00  0.00    +0.210 HD
ENDBRANCH   5  21
BRANCH   1  23
ATOM     23  C   UNL     1       4.550  -3.335  27.384  0.00  0.00    +0.033 C 
BRANCH  23  25
ATOM     24  C   UNL     1       5.473  -1.068  26.738  0.00  0.00    -0.031 C 
ATOM     25  C   UNL     1       4.714  -1.849  27.525  0.00  0.00    -0.031 C 
BRANCH  24  26
ATOM     26  C   UNL     1       6.326  -1.537  25.594  0.00  0.00    +0.027 C 
BRANCH  26  27
ATOM     27  C   UNL     1       5.508  -2.204  24.489  0.00  0.00    +0.015 C 
BRANCH  27  28
ATOM     28  C   UNL     1       6.117  -2.016  23.100  0.00  0.00    +0.121 C 
BRANCH  28  29
ATOM     29  C   UNL     1       5.917  -3.250  22.258  0.00  0.00    +0.307 C 
ATOM     30  O   UNL     1       5.558  -3.254  21.090  0.00  0.00    -0.251 OA
BRANCH  29  31
ATOM     31  O   UNL     1       6.210  -4.359  22.995  0.00  0.00    -0.462 OA
BRANCH  31  33
ATOM     32  C   UNL     1       6.720  -6.477  21.942  0.00  0.00    +0.052 C 
ATOM     33  C   UNL     1       5.625  -5.585  22.520  0.00  0.00    +0.170 C 
ATOM     34  C   UNL     1       4.946  -6.261  23.705  0.00  0.00    +0.052 C 
ENDBRANCH  31  33
ENDBRANCH  29  31
ENDBRANCH  28  29
ENDBRANCH  27  28
ENDBRANCH  26  27
ENDBRANCH  24  26
ENDBRANCH  23  25
ENDBRANCH   1  23
TORSDOF 15
ENDMDL
MODEL 7
REMARK VINA RESULT:      -6.1      1.990      4.189
REMARK  Name = 
REMARK  17 active torsions:
REMARK  status: ('A' for Active; 'I' for Inactive)
REMARK    1  A    between atoms: C_1  and  C_2
REMARK    2  A    between atoms: C_2  and  C_3
REMARK    3  A    between atoms: C_2  and  O_4
REMARK    4  A    between atoms: O_4  and  C_5
REMARK    5  A    between atoms: C_5  and  C_7
REMARK    6  A    between atoms: C_7  and  C_8
REMARK    7  A    between atoms: C_8  and  C_9
REMARK    8  A    between atoms: C_9  and  C_10
REMARK    9  A    between atoms: C_11  and  C_12
REMARK   10  A    between atoms: C_12  and  C_13
REMARK   11  A    between atoms: C_15  and  O_17
REMARK   12  A    between atoms: C_19  and  O_21
REMARK   13  A    between atoms: C_22  and  C_24
REMARK   14  A    between atoms: C_25  and  C_26
REMARK   15  A    between atoms: C_26  and  C_29
REMARK   16  A    between atoms: C_29  and  O_30
REMARK   17  A    between atoms: O_30  and  C_31
REMARK                            x       y       z     vdW  Elec       q    Type
REMARK                         _______ _______ _______ _____ _____    ______ ____
ROOT
ATOM      1  C   UNL     1       4.543  -4.523  24.660  0.00  0.00    +0.031 C 
ATOM      2  C   UNL     1       5.741  -4.765  23.709  0.00  0.00    +0.046 C 
ATOM      3  C   UNL     1       5.561  -6.235  23.238  0.00  0.00    +0.124 C 
ATOM      4  C   UNL     1       4.311  -6.771  23.946  0.00  0.00    +0.063 C 
ATOM      5  C   UNL     1       3.478  -5.517  24.187  0.00  0.00    +0.121 C 
ENDROOT
BRANCH   2   6
ATOM      6  C   UNL     1       7.117  -4.516  24.297  0.00  0.00    -0.019 C 
ATOM      7  C   UNL     1       7.956  -3.511  23.978  0.00  0.00    +0.047 C 
BRANCH   7   8
ATOM      8  C   UNL     1       9.315  -3.274  24.580  0.00  0.00    +0.300 C 
ATOM      9  F   UNL     1       9.856  -4.454  24.984  0.00  0.00    -0.197 F 
ATOM     10  F   UNL     1       9.195  -2.497  25.690  0.00  0.00    -0.197 F 
BRANCH   8  11
ATOM     11  C   UNL     1      10.256  -2.595  23.571  0.00  0.00    +0.308 C 
BRANCH  11  12
ATOM     12  O   UNL     1       9.525  -1.675  22.752  0.00  0.00    -0.486 OA
BRANCH  12  13
ATOM     13  C   UNL     1       9.856  -0.357  22.903  0.00  0.00    +0.121 A 
ATOM     14  C   UNL     1      10.391   0.218  24.058  0.00  0.00    +0.045 A 
ATOM     15  C   UNL     1      10.649   1.593  24.098  0.00  0.00    +0.004 A 
ATOM     16  C   UNL     1      10.372   2.392  22.990  0.00  0.00    +0.000 A 
ATOM     17  C   UNL     1       9.831   1.821  21.841  0.00  0.00    +0.004 A 
ATOM     18  C   UNL     1       9.568   0.450  21.802  0.00  0.00    +0.045 A 
ENDBRANCH  12  13
ENDBRANCH  11  12
ENDBRANCH   8  11
ENDBRANCH   7   8
ENDBRANCH   2   6
BRANCH   3  19
ATOM     19  O   UNL     1       5.351  -6.260  21.824  0.00  0.00    -0.391 OA
ATOM     20  H   UNL     1       5.917  -6.981  21.475  0.00  0.00    +0.210 HD
ENDBRANCH   3  19
BRANCH   5  21
ATOM     21  O   UNL     1       2.872  -5.160  22.951  0.00  0.00    -0.391 OA
ATOM     22  H   UNL     1       2.235  -5.862  22.728  0.00  0.00    +0.210 HD
ENDBRANCH   5  21
BRANCH   1  23
ATOM     23  C   UNL     1       4.139  -3.050  24.819  0.00  0.00    +0.033 C 
BRANCH  23  25
ATOM     24  C   UNL     1       4.702  -2.058  27.078  0.00  0.00    -0.031 C 
ATOM     25  C   UNL     1       3.818  -2.569  26.205  0.00  0.00    -0.031 C 
BRANCH  24  26
ATOM     26  C   UNL     1       6.178  -1.902  26.847  0.00  0.00    +0.027 C 
BRANCH  26  27
ATOM     27  C   UNL     1       6.577  -0.454  26.573  0.00  0.00    +0.015 C 
BRANCH  27  28
ATOM     28  C   UNL     1       6.847  -0.179  25.094  0.00  0.00    +0.121 C 
BRANCH  28  29
ATOM     29  C   UNL     1       5.944   0.912  24.580  0.00  0.00    +0.307 C 
ATOM     30  O   UNL     1       4.780   1.078  24.914  0.00  0.00    -0.251 OA
BRANCH  29  31
ATOM     31  O   UNL     1       6.627   1.694  23.696  0.00  0.00    -0.462 OA
BRANCH  31  33
ATOM     32  C   UNL     1       7.583   3.481  25.016  0.00  0.00    +0.052 C 
ATOM     33  C   UNL     1       6.560   3.109  23.947  0.00  0.00    +0.170 C 
ATOM     34  C   UNL     1       6.863   3.824  22.636  0.00  0.00    +0.052 C 
ENDBRANCH  31  33
ENDBRANCH  29  31
ENDBRANCH  28  29
ENDBRANCH  27  28
ENDBRANCH  26  27
ENDBRANCH  24  26
ENDBRANCH  23  25
ENDBRANCH   1  23
TORSDOF 15
ENDMDL
MODEL 8
REMARK VINA RESULT:      -6.0      1.863      6.767
REMARK  Name = 
REMARK  17 active torsions:
REMARK  status: ('A' for Active; 'I' for Inactive)
REMARK    1  A    between atoms: C_1  and  C_2
REMARK    2  A    between atoms: C_2  and  C_3
REMARK    3  A    between atoms: C_2  and  O_4
REMARK    4  A    between atoms: O_4  and  C_5
REMARK    5  A    between atoms: C_5  and  C_7
REMARK    6  A    between atoms: C_7  and  C_8
REMARK    7  A    between atoms: C_8  and  C_9
REMARK    8  A    between atoms: C_9  and  C_10
REMARK    9  A    between atoms: C_11  and  C_12
REMARK   10  A    between atoms: C_12  and  C_13
REMARK   11  A    between atoms: C_15  and  O_17
REMARK   12  A    between atoms: C_19  and  O_21
REMARK   13  A    between atoms: C_22  and  C_24
REMARK   14  A    between atoms: C_25  and  C_26
REMARK   15  A    between atoms: C_26  and  C_29
REMARK   16  A    between atoms: C_29  and  O_30
REMARK   17  A    between atoms: O_30  and  C_31
REMARK                            x       y       z     vdW  Elec       q    Type
REMARK                         _______ _______ _______ _____ _____    ______ ____
ROOT
ATOM      1  C   UNL     1       9.568   1.725  23.980  0.00  0.00    +0.031 C 
ATOM      2  C   UNL     1       8.220   1.970  23.257  0.00  0.00    +0.046 C 
ATOM      3  C   UNL     1       8.013   3.507  23.350  0.00  0.00    +0.124 C 
ATOM      4  C   UNL     1       9.212   4.063  24.128  0.00  0.00    +0.063 C 
ATOM      5  C   UNL     1      10.318   3.053  23.841  0.00  0.00    +0.121 C 
ENDROOT
BRANCH   2   6
ATOM      6  C   UNL     1       7.028   1.199  23.795  0.00  0.00    -0.019 C 
ATOM      7  C   UNL     1       6.938   0.599  24.997  0.00  0.00    +0.047 C 
BRANCH   7   8
ATOM      8  C   UNL     1       5.743  -0.155  25.518  0.00  0.00    +0.300 C 
ATOM      9  F   UNL     1       5.315  -1.046  24.585  0.00  0.00    -0.197 F 
ATOM     10  F   UNL     1       4.716   0.710  25.737  0.00  0.00    -0.197 F 
BRANCH   8  11
ATOM     11  C   UNL     1       6.083  -0.898  26.821  0.00  0.00    +0.308 C 
BRANCH  11  12
ATOM     12  O   UNL     1       5.561  -2.230  26.784  0.00  0.00    -0.486 OA
BRANCH  12  13
ATOM     13  C   UNL     1       6.485  -3.223  26.609  0.00  0.00    +0.121 A 
ATOM     14  C   UNL     1       6.216  -4.594  26.613  0.00  0.00    +0.045 A 
ATOM     15  C   UNL     1       7.261  -5.511  26.463  0.00  0.00    +0.004 A 
ATOM     16  C   UNL     1       8.573  -5.064  26.311  0.00  0.00    +0.000 A 
ATOM     17  C   UNL     1       8.844  -3.697  26.315  0.00  0.00    +0.004 A 
ATOM     18  C   UNL     1       7.802  -2.781  26.470  0.00  0.00    +0.045 A 
ENDBRANCH  12  13
ENDBRANCH  11  12
ENDBRANCH   8  11
ENDBRANCH   7   8
ENDBRANCH   2   6
BRANCH   3  19
ATOM     19  O   UNL     1       8.004   4.067  22.033  0.00  0.00    -0.391 OA
ATOM     20  H   UNL     1       8.603   3.508  21.493  0.00  0.00    +0.210 HD
ENDBRANCH   3  19
BRANCH   5  21
ATOM     21  O   UNL     1      10.797   3.303  22.527  0.00  0.00    -0.391 OA
ATOM     22  H   UNL     1      11.107   4.227  22.503  0.00  0.00    +0.210 HD
ENDBRANCH   5  21
BRANCH   1  23
ATOM     23  C   UNL     1      10.293   0.437  23.562  0.00  0.00    +0.033 C 
BRANCH  23  25
ATOM     24  C   UNL     1       9.400  -1.258  21.908  0.00  0.00    -0.031 C 
ATOM     25  C   UNL     1      10.012  -0.095  22.186  0.00  0.00    -0.031 C 
BRANCH  24  26
ATOM     26  C   UNL     1       8.914  -2.259  22.916  0.00  0.00    +0.027 C 
BRANCH  26  27
ATOM     27  C   UNL     1       7.544  -2.831  22.558  0.00  0.00    +0.015 C 
BRANCH  27  28
ATOM     28  C   UNL     1       7.406  -4.313  22.907  0.00  0.00    +0.121 C 
BRANCH  28  29
ATOM     29  C   UNL     1       6.165  -4.896  22.282  0.00  0.00    +0.307 C 
ATOM     30  O   UNL     1       5.722  -4.595  21.183  0.00  0.00    -0.251 OA
BRANCH  29  31
ATOM     31  O   UNL     1       5.619  -5.819  23.124  0.00  0.00    -0.462 OA
BRANCH  31  33
ATOM     32  C   UNL     1       3.715  -6.904  24.148  0.00  0.00    +0.052 C 
ATOM     33  C   UNL     1       4.187  -5.760  23.256  0.00  0.00    +0.170 C 
ATOM     34  C   UNL     1       3.837  -4.413  23.874  0.00  0.00    +0.052 C 
ENDBRANCH  31  33
ENDBRANCH  29  31
ENDBRANCH  28  29
ENDBRANCH  27  28
ENDBRANCH  26  27
ENDBRANCH  24  26
ENDBRANCH  23  25
ENDBRANCH   1  23
TORSDOF 15
ENDMDL
MODEL 9
REMARK VINA RESULT:      -6.0      2.396      6.623
REMARK  Name = 
REMARK  17 active torsions:
REMARK  status: ('A' for Active; 'I' for Inactive)
REMARK    1  A    between atoms: C_1  and  C_2
REMARK    2  A    between atoms: C_2  and  C_3
REMARK    3  A    between atoms: C_2  and  O_4
REMARK    4  A    between atoms: O_4  and  C_5
REMARK    5  A    between atoms: C_5  and  C_7
REMARK    6  A    between atoms: C_7  and  C_8
REMARK    7  A    between atoms: C_8  and  C_9
REMARK    8  A    between atoms: C_9  and  C_10
REMARK    9  A    between atoms: C_11  and  C_12
REMARK   10  A    between atoms: C_12  and  C_13
REMARK   11  A    between atoms: C_15  and  O_17
REMARK   12  A    between atoms: C_19  and  O_21
REMARK   13  A    between atoms: C_22  and  C_24
REMARK   14  A    between atoms: C_25  and  C_26
REMARK   15  A    between atoms: C_26  and  C_29
REMARK   16  A    between atoms: C_29  and  O_30
REMARK   17  A    between atoms: O_30  and  C_31
REMARK                            x       y       z     vdW  Elec       q    Type
REMARK                         _______ _______ _______ _____ _____    ______ ____
ROOT
ATOM      1  C   UNL     1       7.369  -0.046  22.950  0.00  0.00    +0.031 C 
ATOM      2  C   UNL     1       8.036  -1.438  23.078  0.00  0.00    +0.046 C 
ATOM      3  C   UNL     1       9.284  -1.347  22.156  0.00  0.00    +0.124 C 
ATOM      4  C   UNL     1       9.264   0.053  21.531  0.00  0.00    +0.063 C 
ATOM      5  C   UNL     1       8.518   0.890  22.564  0.00  0.00    +0.121 C 
ENDROOT
BRANCH   2   6
ATOM      6  C   UNL     1       7.159  -2.628  22.738  0.00  0.00    -0.019 C 
ATOM      7  C   UNL     1       7.575  -3.879  22.465  0.00  0.00    +0.047 C 
BRANCH   7   8
ATOM      8  C   UNL     1       6.688  -5.052  22.139  0.00  0.00    +0.300 C 
ATOM      9  F   UNL     1       7.000  -6.105  22.941  0.00  0.00    -0.197 F 
ATOM     10  F   UNL     1       6.912  -5.453  20.860  0.00  0.00    -0.197 F 
BRANCH   8  11
ATOM     11  C   UNL     1       5.204  -4.690  22.318  0.00  0.00    +0.308 C 
BRANCH  11  12
ATOM     12  O   UNL     1       4.403  -5.876  22.342  0.00  0.00    -0.486 OA
BRANCH  12  13
ATOM     13  C   UNL     1       3.653  -6.060  23.471  0.00  0.00    +0.121 A 
ATOM     14  C   UNL     1       2.429  -5.442  23.742  0.00  0.00    +0.045 A 
ATOM     15  C   UNL     1       1.779  -5.685  24.957  0.00  0.00    +0.004 A 
ATOM     16  C   UNL     1       2.348  -6.539  25.900  0.00  0.00    +0.000 A 
ATOM     17  C   UNL     1       3.572  -7.149  25.634  0.00  0.00    +0.004 A 
ATOM     18  C   UNL     1       4.225  -6.902  24.425  0.00  0.00    +0.045 A 
ENDBRANCH  12  13
ENDBRANCH  11  12
ENDBRANCH   8  11
ENDBRANCH   7   8
ENDBRANCH   2   6
BRANCH   3  19
ATOM     19  O   UNL     1      10.469  -1.497  22.942  0.00  0.00    -0.391 OA
ATOM     20  H   UNL     1      10.475  -0.749  23.576  0.00  0.00    +0.210 HD
ENDBRANCH   3  19
BRANCH   5  21
ATOM     21  O   UNL     1       9.419   1.158  23.631  0.00  0.00    -0.391 OA
ATOM     22  H   UNL     1       9.878   1.991  23.419  0.00  0.00    +0.210 HD
ENDBRANCH   5  21
BRANCH   1  23
ATOM     23  C   UNL     1       6.481   0.350  24.140  0.00  0.00    +0.033 C 
BRANCH  23  25
ATOM     24  C   UNL     1       6.123  -1.218  26.094  0.00  0.00    -0.031 C 
ATOM     25  C   UNL     1       6.816  -0.247  25.476  0.00  0.00    -0.031 C 
BRANCH  24  26
ATOM     26  C   UNL     1       4.866  -1.864  25.583  0.00  0.00    +0.027 C 
BRANCH  26  27
ATOM     27  C   UNL     1       4.926  -3.389  25.644  0.00  0.00    +0.015 C 
BRANCH  27  28
ATOM     28  C   UNL     1       5.330  -3.915  27.021  0.00  0.00    +0.121 C 
BRANCH  28  29
ATOM     29  C   UNL     1       6.330  -5.035  26.892  0.00  0.00    +0.307 C 
ATOM     30  O   UNL     1       6.360  -6.036  27.593  0.00  0.00    -0.251 OA
BRANCH  29  31
ATOM     31  O   UNL     1       7.188  -4.767  25.867  0.00  0.00    -0.462 OA
BRANCH  31  33
ATOM     32  C   UNL     1       9.402  -5.485  25.209  0.00  0.00    +0.052 C 
ATOM     33  C   UNL     1       8.579  -4.704  26.230  0.00  0.00    +0.170 C 
ATOM     34  C   UNL     1       8.986  -3.236  26.244  0.00  0.00    +0.052 C 
ENDBRANCH  31  33
ENDBRANCH  29  31
ENDBRANCH  28  29
ENDBRANCH  27  28
ENDBRANCH  26  27
ENDBRANCH  24  26
ENDBRANCH  23  25
ENDBRANCH   1  23
TORSDOF 15
ENDMDL
