MODEL 1
REMARK VINA RESULT:      -7.0      0.000      0.000
REMARK  Name = 
REMARK  8 active torsions:
REMARK  status: ('A' for Active; 'I' for Inactive)
REMARK    1  A    between atoms: C_1  and  O_2
REMARK    2  A    between atoms: O_2  and  C_3
REMARK    3  A    between atoms: C_6  and  C_7
REMARK    4  A    between atoms: C_7  and  N_8
REMARK    5  A    between atoms: N_8  and  S_9
REMARK    6  A    between atoms: S_9  and  C_12
REMARK    7  A    between atoms: C_15  and  S_17
REMARK    8  A    between atoms: S_17  and  N_18
REMARK                            x       y       z     vdW  Elec       q    Type
REMARK                         _______ _______ _______ _____ _____    ______ ____
ROOT
ATOM      1  S   UNL     1       9.199  -4.021  24.835  0.00  0.00    +0.065 S 
ATOM      2  O   UNL     1       8.692  -3.122  25.845  0.00  0.00    -0.153 OA
ATOM      3  O   UNL     1      10.096  -5.108  25.159  0.00  0.00    -0.153 OA
ENDROOT
BRANCH   1   4
ATOM      4  C   UNL     1       7.807  -4.805  24.043  0.00  0.00    +0.144 A 
ATOM      5  S   UNL     1       6.342  -4.893  24.920  0.00  0.00    -0.049 S 
ATOM      6  C   UNL     1       5.533  -5.678  23.634  0.00  0.00    +0.144 A 
ATOM      7  C   UNL     1       6.369  -5.873  22.551  0.00  0.00    +0.038 A 
ATOM      8  C   UNL     1       7.679  -5.369  22.787  0.00  0.00    +0.038 A 
BRANCH   6   9
ATOM      9  S   UNL     1       3.833  -6.111  23.920  0.00  0.00    +0.062 S 
ATOM     10  O   UNL     1       3.185  -5.909  22.647  0.00  0.00    -0.153 OA
ATOM     11  O   UNL     1       3.449  -5.417  25.126  0.00  0.00    -0.153 OA
BRANCH   9  12
ATOM     12  N   UNL     1       3.799  -7.757  24.237  0.00  0.00    -0.203 NA
ATOM     13  H   UNL     1       4.271  -8.303  23.519  0.00  0.00    +0.144 HD
ATOM     14  H   UNL     1       4.059  -7.976  25.197  0.00  0.00    +0.144 HD
ENDBRANCH   9  12
ENDBRANCH   6   9
ENDBRANCH   1   4
BRANCH   1  15
ATOM     15  N   UNL     1       9.965  -3.092  23.652  0.00  0.00    -0.185 NA
ATOM     16  H   UNL     1      10.818  -2.684  24.039  0.00  0.00    +0.148 HD
BRANCH  15  17
ATOM     17  C   UNL     1       9.101  -2.095  23.007  0.00  0.00    +0.141 C 
BRANCH  17  21
ATOM     18  C   UNL     1      10.498   1.970  23.383  0.00  0.00    +0.120 A 
ATOM     19  C   UNL     1      10.643   1.074  24.441  0.00  0.00    +0.046 A 
ATOM     20  C   UNL     1      10.226  -0.251  24.301  0.00  0.00    +0.008 A 
ATOM     21  C   UNL     1       9.665  -0.700  23.099  0.00  0.00    -0.032 A 
ATOM     22  C   UNL     1       9.578   0.190  22.019  0.00  0.00    +0.008 A 
ATOM     23  C   UNL     1      10.000   1.515  22.162  0.00  0.00    +0.046 A 
BRANCH  18  25
ATOM     24  C   UNL     1       9.757   4.166  23.787  0.00  0.00    +0.277 C 
ATOM     25  O   UNL     1      10.832   3.296  23.439  0.00  0.00    -0.495 OA
ENDBRANCH  18  25
ENDBRANCH  17  21
ENDBRANCH  15  17
ENDBRANCH   1  15
TORSDOF 7
ENDMDL
MODEL 2
REMARK VINA RESULT:      -6.8      2.386      3.297
REMARK  Name = 
REMARK  8 active torsions:
REMARK  status: ('A' for Active; 'I' for Inactive)
REMARK    1  A    between atoms: C_1  and  O_2
REMARK    2  A    between atoms: O_2  and  C_3
REMARK    3  A    between atoms: C_6  and  C_7
REMARK    4  A    between atoms: C_7  and  N_8
REMARK    5  A    between atoms: N_8  and  S_9
REMARK    6  A    between atoms: S_9  and  C_12
REMARK    7  A    between atoms: C_15  and  S_17
REMARK    8  A    between atoms: S_17  and  N_18
REMARK                            x       y       z     vdW  Elec       q    Type
REMARK                         _______ _______ _______ _____ _____    ______ ____
ROOT
ATOM      1  S   UNL     1       6.524  -4.798  22.352  0.00  0.00    +0.065 S 
ATOM      2  O   UNL     1       7.171  -5.835  21.583  0.00  0.00    -0.153 OA
ATOM      3  O   UNL     1       5.419  -4.029  21.825  0.00  0.00    -0.153 OA
ENDROOT
BRANCH   1   4
ATOM      4  C   UNL     1       5.889  -5.532  23.848  0.00  0.00    +0.144 A 
ATOM      5  S   UNL     1       6.598  -5.053  25.329  0.00  0.00    -0.049 S 
ATOM      6  C   UNL     1       5.557  -6.060  26.238  0.00  0.00    +0.144 A 
ATOM      7  C   UNL     1       4.683  -6.754  25.425  0.00  0.00    +0.038 A 
ATOM      8  C   UNL     1       4.874  -6.449  24.048  0.00  0.00    +0.038 A 
BRANCH   6   9
ATOM      9  S   UNL     1       5.797  -6.054  28.000  0.00  0.00    +0.062 S 
ATOM     10  O   UNL     1       4.887  -5.046  28.489  0.00  0.00    -0.153 OA
ATOM     11  O   UNL     1       7.225  -6.001  28.202  0.00  0.00    -0.153 OA
BRANCH   9  12
ATOM     12  N   UNL     1       5.248  -7.532  28.568  0.00  0.00    -0.203 NA
ATOM     13  H   UNL     1       5.997  -8.215  28.667  0.00  0.00    +0.144 HD
ATOM     14  H   UNL     1       4.631  -7.438  29.373  0.00  0.00    +0.144 HD
ENDBRANCH   9  12
ENDBRANCH   6   9
ENDBRANCH   1   4
BRANCH   1  15
ATOM     15  N   UNL     1       7.707  -3.690  22.825  0.00  0.00    -0.185 NA
ATOM     16  H   UNL     1       7.538  -3.403  23.790  0.00  0.00    +0.148 HD
BRANCH  15  17
ATOM     17  C   UNL     1       7.872  -2.549  21.914  0.00  0.00    +0.141 C 
BRANCH  17  21
ATOM     18  C   UNL     1      10.339   0.566  23.596  0.00  0.00    +0.120 A 
ATOM     19  C   UNL     1       9.954  -0.524  24.373  0.00  0.00    +0.046 A 
ATOM     20  C   UNL     1       9.189  -1.550  23.814  0.00  0.00    +0.008 A 
ATOM     21  C   UNL     1       8.805  -1.502  22.468  0.00  0.00    -0.032 A 
ATOM     22  C   UNL     1       9.248  -0.433  21.677  0.00  0.00    +0.008 A 
ATOM     23  C   UNL     1      10.016   0.590  22.239  0.00  0.00    +0.046 A 
BRANCH  18  25
ATOM     24  C   UNL     1      10.663   2.895  23.503  0.00  0.00    +0.277 C 
ATOM     25  O   UNL     1      11.046   1.641  24.063  0.00  0.00    -0.495 OA
ENDBRANCH  18  25
ENDBRANCH  17  21
ENDBRANCH  15  17
ENDBRANCH   1  15
TORSDOF 7
ENDMDL
MODEL 3
REMARK VINA RESULT:      -6.6      2.190      2.666
REMARK  Name = 
REMARK  8 active torsions:
REMARK  status: ('A' for Active; 'I' for Inactive)
REMARK    1  A    between atoms: C_1  and  O_2
REMARK    2  A    between atoms: O_2  and  C_3
REMARK    3  A    between atoms: C_6  and  C_7
REMARK    4  A    between atoms: C_7  and  N_8
REMARK    5  A    between atoms: N_8  and  S_9
REMARK    6  A    between atoms: S_9  and  C_12
REMARK    7  A    between atoms: C_15  and  S_17
REMARK    8  A    between atoms: S_17  and  N_18
REMARK                            x       y       z     vdW  Elec       q    Type
REMARK                         _______ _______ _______ _____ _____    ______ ____
ROOT
ATOM      1  S   UNL     1       9.527  -1.729  23.357  0.00  0.00    +0.065 S 
ATOM      2  O   UNL     1       9.632  -0.931  24.555  0.00  0.00    -0.153 OA
ATOM      3  O   UNL     1      10.688  -2.302  22.714  0.00  0.00    -0.153 OA
ENDROOT
BRANCH   1   4
ATOM      4  C   UNL     1       8.473  -3.124  23.711  0.00  0.00    +0.144 A 
ATOM      5  S   UNL     1       7.171  -3.424  22.644  0.00  0.00    -0.049 S 
ATOM      6  C   UNL     1       6.669  -4.801  23.526  0.00  0.00    +0.144 A 
ATOM      7  C   UNL     1       7.481  -5.027  24.621  0.00  0.00    +0.038 A 
ATOM      8  C   UNL     1       8.521  -4.061  24.726  0.00  0.00    +0.038 A 
BRANCH   6   9
ATOM      9  S   UNL     1       5.229  -5.646  22.915  0.00  0.00    +0.062 S 
ATOM     10  O   UNL     1       4.289  -4.594  22.612  0.00  0.00    -0.153 OA
ATOM     11  O   UNL     1       4.962  -6.702  23.862  0.00  0.00    -0.153 OA
BRANCH   9  12
ATOM     12  N   UNL     1       5.664  -6.354  21.459  0.00  0.00    -0.203 NA
ATOM     13  H   UNL     1       5.372  -7.328  21.396  0.00  0.00    +0.144 HD
ATOM     14  H   UNL     1       5.432  -5.773  20.656  0.00  0.00    +0.144 HD
ENDBRANCH   9  12
ENDBRANCH   6   9
ENDBRANCH   1   4
BRANCH   1  15
ATOM     15  N   UNL     1       8.728  -0.808  22.189  0.00  0.00    -0.185 NA
ATOM     16  H   UNL     1       8.282  -1.428  21.512  0.00  0.00    +0.148 HD
BRANCH  15  17
ATOM     17  C   UNL     1       9.559   0.222  21.553  0.00  0.00    +0.141 C 
BRANCH  17  21
ATOM     18  C   UNL     1       8.731   4.051  23.362  0.00  0.00    +0.120 A 
ATOM     19  C   UNL     1       9.954   3.419  23.579  0.00  0.00    +0.046 A 
ATOM     20  C   UNL     1      10.233   2.199  22.960  0.00  0.00    +0.008 A 
ATOM     21  C   UNL     1       9.296   1.599  22.110  0.00  0.00    -0.032 A 
ATOM     22  C   UNL     1       8.094   2.270  21.848  0.00  0.00    +0.008 A 
ATOM     23  C   UNL     1       7.819   3.493  22.467  0.00  0.00    +0.046 A 
BRANCH  18  25
ATOM     24  C   UNL     1       8.824   6.402  23.318  0.00  0.00    +0.277 C 
ATOM     25  O   UNL     1       8.346   5.221  23.959  0.00  0.00    -0.495 OA
ENDBRANCH  18  25
ENDBRANCH  17  21
ENDBRANCH  15  17
ENDBRANCH   1  15
TORSDOF 7
ENDMDL
MODEL 4
REMARK VINA RESULT:      -6.6      2.583      3.059
REMARK  Name = 
REMARK  8 active torsions:
REMARK  status: ('A' for Active; 'I' for Inactive)
REMARK    1  A    between atoms: C_1  and  O_2
REMARK    2  A    between atoms: O_2  and  C_3
REMARK    3  A    between atoms: C_6  and  C_7
REMARK    4  A    between atoms: C_7  and  N_8
REMARK    5  A    between atoms: N_8  and  S_9
REMARK    6  A    between atoms: S_9  and  C_12
REMARK    7  A    between atoms: C_15  and  S_17
REMARK    8  A    between atoms: S_17  and  N_18
REMARK                            x       y       z     vdW  Elec       q    Type
REMARK                         _______ _______ _______ _____ _____    ______ ____
ROOT
ATOM      1  S   UNL     1       9.554  -1.695  23.429  0.00  0.00    +0.065 S 
ATOM      2  O   UNL     1       9.776  -0.860  24.586  0.00  0.00    -0.153 OA
ATOM      3  O   UNL     1      10.642  -2.346  22.735  0.00  0.00    -0.153 OA
ENDROOT
BRANCH   1   4
ATOM      4  C   UNL     1       8.464  -3.024  23.907  0.00  0.00    +0.144 A 
ATOM      5  S   UNL     1       8.205  -3.274  25.578  0.00  0.00    -0.049 S 
ATOM      6  C   UNL     1       7.133  -4.575  25.292  0.00  0.00    +0.144 A 
ATOM      7  C   UNL     1       6.977  -4.819  23.941  0.00  0.00    +0.038 A 
ATOM      8  C   UNL     1       7.744  -3.924  23.143  0.00  0.00    +0.038 A 
BRANCH   6   9
ATOM      9  S   UNL     1       6.459  -5.371  26.733  0.00  0.00    +0.062 S 
ATOM     10  O   UNL     1       5.735  -6.507  26.217  0.00  0.00    -0.153 OA
ATOM     11  O   UNL     1       5.843  -4.321  27.508  0.00  0.00    -0.153 OA
BRANCH   9  12
ATOM     12  N   UNL     1       7.758  -5.968  27.609  0.00  0.00    -0.203 NA
ATOM     13  H   UNL     1       8.241  -6.723  27.126  0.00  0.00    +0.144 HD
ATOM     14  H   UNL     1       8.354  -5.229  27.977  0.00  0.00    +0.144 HD
ENDBRANCH   9  12
ENDBRANCH   6   9
ENDBRANCH   1   4
BRANCH   1  15
ATOM     15  N   UNL     1       8.721  -0.780  22.281  0.00  0.00    -0.185 NA
ATOM     16  H   UNL     1       8.240  -1.404  21.631  0.00  0.00    +0.148 HD
BRANCH  15  17
ATOM     17  C   UNL     1       9.540   0.230  21.597  0.00  0.00    +0.141 C 
BRANCH  17  21
ATOM     18  C   UNL     1       8.782   4.108  23.331  0.00  0.00    +0.120 A 
ATOM     19  C   UNL     1      10.016   3.485  23.510  0.00  0.00    +0.046 A 
ATOM     20  C   UNL     1      10.271   2.248  22.913  0.00  0.00    +0.008 A 
ATOM     21  C   UNL     1       9.298   1.621  22.125  0.00  0.00    -0.032 A 
ATOM     22  C   UNL     1       8.082   2.281  21.900  0.00  0.00    +0.008 A 
ATOM     23  C   UNL     1       7.831   3.521  22.496  0.00  0.00    +0.046 A 
BRANCH  18  25
ATOM     24  C   UNL     1       9.169   6.424  23.471  0.00  0.00    +0.277 C 
ATOM     25  O   UNL     1       8.421   5.293  23.911  0.00  0.00    -0.495 OA
ENDBRANCH  18  25
ENDBRANCH  17  21
ENDBRANCH  15  17
ENDBRANCH   1  15
TORSDOF 7
ENDMDL
MODEL 5
REMARK VINA RESULT:      -6.5      2.290      2.958
REMARK  Name = 
REMARK  8 active torsions:
REMARK  status: ('A' for Active; 'I' for Inactive)
REMARK    1  A    between atoms: C_1  and  O_2
REMARK    2  A    between atoms: O_2  and  C_3
REMARK    3  A    between atoms: C_6  and  C_7
REMARK    4  A    between atoms: C_7  and  N_8
REMARK    5  A    between atoms: N_8  and  S_9
REMARK    6  A    between atoms: S_9  and  C_12
REMARK    7  A    between atoms: C_15  and  S_17
REMARK    8  A    between atoms: S_17  and  N_18
REMARK                            x       y       z     vdW  Elec       q    Type
REMARK                         _______ _______ _______ _____ _____    ______ ____
ROOT
ATOM      1  S   UNL     1       9.579  -1.468  22.912  0.00  0.00    +0.065 S 
ATOM      2  O   UNL     1      10.901  -1.935  22.566  0.00  0.00    -0.153 OA
ATOM      3  O   UNL     1       8.791  -0.661  22.008  0.00  0.00    -0.153 OA
ENDROOT
BRANCH   1   4
ATOM      4  C   UNL     1       8.560  -2.891  23.253  0.00  0.00    +0.144 A 
ATOM      5  S   UNL     1       7.178  -3.129  22.275  0.00  0.00    -0.049 S 
ATOM      6  C   UNL     1       6.752  -4.566  23.097  0.00  0.00    +0.144 A 
ATOM      7  C   UNL     1       7.649  -4.860  24.106  0.00  0.00    +0.038 A 
ATOM      8  C   UNL     1       8.691  -3.895  24.195  0.00  0.00    +0.038 A 
BRANCH   6   9
ATOM      9  S   UNL     1       5.270  -5.379  22.546  0.00  0.00    +0.062 S 
ATOM     10  O   UNL     1       5.589  -5.865  21.225  0.00  0.00    -0.153 OA
ATOM     11  O   UNL     1       4.193  -4.456  22.814  0.00  0.00    -0.153 OA
BRANCH   9  12
ATOM     12  N   UNL     1       5.059  -6.721  23.529  0.00  0.00    -0.203 NA
ATOM     13  H   UNL     1       5.312  -6.538  24.498  0.00  0.00    +0.144 HD
ATOM     14  H   UNL     1       4.157  -7.171  23.388  0.00  0.00    +0.144 HD
ENDBRANCH   9  12
ENDBRANCH   6   9
ENDBRANCH   1   4
BRANCH   1  15
ATOM     15  N   UNL     1       9.698  -0.605  24.358  0.00  0.00    -0.185 NA
ATOM     16  H   UNL     1       9.724  -1.257  25.143  0.00  0.00    +0.148 HD
BRANCH  15  17
ATOM     17  C   UNL     1       8.682   0.444  24.527  0.00  0.00    +0.141 C 
BRANCH  17  21
ATOM     18  C   UNL     1      10.160   4.439  23.841  0.00  0.00    +0.120 A 
ATOM     19  C   UNL     1       9.001   4.235  24.589  0.00  0.00    +0.046 A 
ATOM     20  C   UNL     1       8.549   2.938  24.842  0.00  0.00    +0.008 A 
ATOM     21  C   UNL     1       9.252   1.829  24.356  0.00  0.00    -0.032 A 
ATOM     22  C   UNL     1      10.449   2.040  23.657  0.00  0.00    +0.008 A 
ATOM     23  C   UNL     1      10.901   3.340  23.408  0.00  0.00    +0.046 A 
BRANCH  18  25
ATOM     24  C   UNL     1      11.893   6.006  24.123  0.00  0.00    +0.277 C 
ATOM     25  O   UNL     1      10.655   5.668  23.499  0.00  0.00    -0.495 OA
ENDBRANCH  18  25
ENDBRANCH  17  21
ENDBRANCH  15  17
ENDBRANCH   1  15
TORSDOF 7
ENDMDL
MODEL 6
REMARK VINA RESULT:      -6.2      3.152      8.412
REMARK  Name = 
REMARK  8 active torsions:
REMARK  status: ('A' for Active; 'I' for Inactive)
REMARK    1  A    between atoms: C_1  and  O_2
REMARK    2  A    between atoms: O_2  and  C_3
REMARK    3  A    between atoms: C_6  and  C_7
REMARK    4  A    between atoms: C_7  and  N_8
REMARK    5  A    between atoms: N_8  and  S_9
REMARK    6  A    between atoms: S_9  and  C_12
REMARK    7  A    between atoms: C_15  and  S_17
REMARK    8  A    between atoms: S_17  and  N_18
REMARK                            x       y       z     vdW  Elec       q    Type
REMARK                         _______ _______ _______ _____ _____    ______ ____
ROOT
ATOM      1  S   UNL     1       9.226  -2.012  23.431  0.00  0.00    +0.065 S 
ATOM      2  O   UNL     1      10.497  -2.668  23.230  0.00  0.00    -0.153 OA
ATOM      3  O   UNL     1       8.579  -1.977  24.723  0.00  0.00    -0.153 OA
ENDROOT
BRANCH   1   4
ATOM      4  C   UNL     1       9.409  -0.298  22.970  0.00  0.00    +0.144 A 
ATOM      5  S   UNL     1       9.168   0.879  24.187  0.00  0.00    -0.049 S 
ATOM      6  C   UNL     1       9.503   2.166  23.111  0.00  0.00    +0.144 A 
ATOM      7  C   UNL     1       9.792   1.705  21.841  0.00  0.00    +0.038 A 
ATOM      8  C   UNL     1       9.739   0.285  21.761  0.00  0.00    +0.038 A 
BRANCH   6   9
ATOM      9  S   UNL     1       9.396   3.806  23.788  0.00  0.00    +0.062 S 
ATOM     10  O   UNL     1      10.722   4.353  23.633  0.00  0.00    -0.153 OA
ATOM     11  O   UNL     1       8.740   3.662  25.066  0.00  0.00    -0.153 OA
BRANCH   9  12
ATOM     12  N   UNL     1       8.380   4.680  22.781  0.00  0.00    -0.203 NA
ATOM     13  H   UNL     1       7.629   4.111  22.394  0.00  0.00    +0.144 HD
ATOM     14  H   UNL     1       8.092   5.568  23.189  0.00  0.00    +0.144 HD
ENDBRANCH   9  12
ENDBRANCH   6   9
ENDBRANCH   1   4
BRANCH   1  15
ATOM     15  N   UNL     1       8.119  -2.685  22.348  0.00  0.00    -0.185 NA
ATOM     16  H   UNL     1       8.330  -2.364  21.402  0.00  0.00    +0.148 HD
BRANCH  15  17
ATOM     17  C   UNL     1       6.711  -2.484  22.714  0.00  0.00    +0.141 C 
BRANCH  17  21
ATOM     18  C   UNL     1       4.854  -6.207  23.859  0.00  0.00    +0.120 A 
ATOM     19  C   UNL     1       4.402  -5.001  24.391  0.00  0.00    +0.046 A 
ATOM     20  C   UNL     1       4.979  -3.795  23.988  0.00  0.00    +0.008 A 
ATOM     21  C   UNL     1       6.012  -3.779  23.042  0.00  0.00    -0.032 A 
ATOM     22  C   UNL     1       6.420  -4.990  22.466  0.00  0.00    +0.008 A 
ATOM     23  C   UNL     1       5.838  -6.195  22.870  0.00  0.00    +0.046 A 
BRANCH  18  25
ATOM     24  C   UNL     1       3.454  -7.427  25.304  0.00  0.00    +0.277 C 
ATOM     25  O   UNL     1       4.387  -7.440  24.226  0.00  0.00    -0.495 OA
ENDBRANCH  18  25
ENDBRANCH  17  21
ENDBRANCH  15  17
ENDBRANCH   1  15
TORSDOF 7
ENDMDL
MODEL 7
REMARK VINA RESULT:      -6.1      4.047      8.043
REMARK  Name = 
REMARK  8 active torsions:
REMARK  status: ('A' for Active; 'I' for Inactive)
REMARK    1  A    between atoms: C_1  and  O_2
REMARK    2  A    between atoms: O_2  and  C_3
REMARK    3  A    between atoms: C_6  and  C_7
REMARK    4  A    between atoms: C_7  and  N_8
REMARK    5  A    between atoms: N_8  and  S_9
REMARK    6  A    between atoms: S_9  and  C_12
REMARK    7  A    between atoms: C_15  and  S_17
REMARK    8  A    between atoms: S_17  and  N_18
REMARK                            x       y       z     vdW  Elec       q    Type
REMARK                         _______ _______ _______ _____ _____    ______ ____
ROOT
ATOM      1  S   UNL     1       9.981   0.234  24.365  0.00  0.00    +0.065 S 
ATOM      2  O   UNL     1      11.327   0.745  24.478  0.00  0.00    -0.153 OA
ATOM      3  O   UNL     1       9.166  -0.042  25.526  0.00  0.00    -0.153 OA
ENDROOT
BRANCH   1   4
ATOM      4  C   UNL     1       9.026   1.397  23.407  0.00  0.00    +0.144 A 
ATOM      5  S   UNL     1       8.605   2.878  24.151  0.00  0.00    -0.049 S 
ATOM      6  C   UNL     1       7.794   3.434  22.752  0.00  0.00    +0.144 A 
ATOM      7  C   UNL     1       7.841   2.503  21.732  0.00  0.00    +0.038 A 
ATOM      8  C   UNL     1       8.552   1.329  22.110  0.00  0.00    +0.038 A 
BRANCH   6   9
ATOM      9  S   UNL     1       7.040   5.040  22.865  0.00  0.00    +0.062 S 
ATOM     10  O   UNL     1       7.619   5.634  24.046  0.00  0.00    -0.153 OA
ATOM     11  O   UNL     1       5.623   4.821  22.700  0.00  0.00    -0.153 OA
BRANCH   9  12
ATOM     12  N   UNL     1       7.584   5.925  21.549  0.00  0.00    -0.203 NA
ATOM     13  H   UNL     1       8.570   6.170  21.624  0.00  0.00    +0.144 HD
ATOM     14  H   UNL     1       7.298   5.520  20.660  0.00  0.00    +0.144 HD
ENDBRANCH   9  12
ENDBRANCH   6   9
ENDBRANCH   1   4
BRANCH   1  15
ATOM     15  N   UNL     1      10.044  -1.193  23.464  0.00  0.00    -0.185 NA
ATOM     16  H   UNL     1       9.570  -1.052  22.570  0.00  0.00    +0.148 HD
BRANCH  15  17
ATOM     17  C   UNL     1       9.568  -2.385  24.177  0.00  0.00    +0.141 C 
BRANCH  17  21
ATOM     18  C   UNL     1       5.823  -3.925  22.686  0.00  0.00    +0.120 A 
ATOM     19  C   UNL     1       6.122  -2.568  22.574  0.00  0.00    +0.046 A 
ATOM     20  C   UNL     1       7.352  -2.081  23.021  0.00  0.00    +0.008 A 
ATOM     21  C   UNL     1       8.301  -2.945  23.581  0.00  0.00    -0.032 A 
ATOM     22  C   UNL     1       8.018  -4.317  23.635  0.00  0.00    +0.008 A 
ATOM     23  C   UNL     1       6.788  -4.801  23.183  0.00  0.00    +0.046 A 
BRANCH  18  25
ATOM     24  C   UNL     1       4.329  -5.720  22.975  0.00  0.00    +0.277 C 
ATOM     25  O   UNL     1       4.631  -4.489  22.321  0.00  0.00    -0.495 OA
ENDBRANCH  18  25
ENDBRANCH  17  21
ENDBRANCH  15  17
ENDBRANCH   1  15
TORSDOF 7
ENDMDL
MODEL 8
REMARK VINA RESULT:      -6.1      2.694      3.218
REMARK  Name = 
REMARK  8 active torsions:
REMARK  status: ('A' for Active; 'I' for Inactive)
REMARK    1  A    between atoms: C_1  and  O_2
REMARK    2  A    between atoms: O_2  and  C_3
REMARK    3  A    between atoms: C_6  and  C_7
REMARK    4  A    between atoms: C_7  and  N_8
REMARK    5  A    between atoms: N_8  and  S_9
REMARK    6  A    between atoms: S_9  and  C_12
REMARK    7  A    between atoms: C_15  and  S_17
REMARK    8  A    between atoms: S_17  and  N_18
REMARK                            x       y       z     vdW  Elec       q    Type
REMARK                         _______ _______ _______ _____ _____    ______ ____
ROOT
ATOM      1  S   UNL     1       8.571  -3.984  24.280  0.00  0.00    +0.065 S 
ATOM      2  O   UNL     1       9.788  -4.675  24.637  0.00  0.00    -0.153 OA
ATOM      3  O   UNL     1       7.944  -4.156  22.989  0.00  0.00    -0.153 OA
ENDROOT
BRANCH   1   4
ATOM      4  C   UNL     1       7.311  -4.437  25.459  0.00  0.00    +0.144 A 
ATOM      5  S   UNL     1       7.796  -5.331  26.833  0.00  0.00    -0.049 S 
ATOM      6  C   UNL     1       6.206  -5.373  27.459  0.00  0.00    +0.144 A 
ATOM      7  C   UNL     1       5.316  -4.716  26.631  0.00  0.00    +0.038 A 
ATOM      8  C   UNL     1       5.953  -4.177  25.479  0.00  0.00    +0.038 A 
BRANCH   6   9
ATOM      9  S   UNL     1       5.985  -6.245  28.993  0.00  0.00    +0.062 S 
ATOM     10  O   UNL     1       5.611  -5.225  29.942  0.00  0.00    -0.153 OA
ATOM     11  O   UNL     1       7.155  -7.078  29.142  0.00  0.00    -0.153 OA
BRANCH   9  12
ATOM     12  N   UNL     1       4.657  -7.248  28.793  0.00  0.00    -0.203 NA
ATOM     13  H   UNL     1       4.640  -8.012  29.466  0.00  0.00    +0.144 HD
ATOM     14  H   UNL     1       3.786  -6.729  28.696  0.00  0.00    +0.144 HD
ENDBRANCH   9  12
ENDBRANCH   6   9
ENDBRANCH   1   4
BRANCH   1  15
ATOM     15  N   UNL     1       8.839  -2.329  24.476  0.00  0.00    -0.185 NA
ATOM     16  H   UNL     1       7.949  -1.831  24.420  0.00  0.00    +0.148 HD
BRANCH  15  17
ATOM     17  C   UNL     1       9.861  -1.768  23.582  0.00  0.00    +0.141 C 
BRANCH  17  21
ATOM     18  C   UNL     1       9.370   2.509  23.288  0.00  0.00    +0.120 A 
ATOM     19  C   UNL     1       9.252   1.869  24.521  0.00  0.00    +0.046 A 
ATOM     20  C   UNL     1       9.451   0.491  24.618  0.00  0.00    +0.008 A 
ATOM     21  C   UNL     1       9.777  -0.265  23.485  0.00  0.00    -0.032 A 
ATOM     22  C   UNL     1       9.953   0.393  22.261  0.00  0.00    +0.008 A 
ATOM     23  C   UNL     1       9.757   1.774  22.168  0.00  0.00    +0.046 A 
BRANCH  18  25
ATOM     24  C   UNL     1       9.831   4.708  23.989  0.00  0.00    +0.277 C 
ATOM     25  O   UNL     1       9.147   3.844  23.083  0.00  0.00    -0.495 OA
ENDBRANCH  18  25
ENDBRANCH  17  21
ENDBRANCH  15  17
ENDBRANCH   1  15
TORSDOF 7
ENDMDL
MODEL 9
REMARK VINA RESULT:      -6.0      2.586      3.459
REMARK  Name = 
REMARK  8 active torsions:
REMARK  status: ('A' for Active; 'I' for Inactive)
REMARK    1  A    between atoms: C_1  and  O_2
REMARK    2  A    between atoms: O_2  and  C_3
REMARK    3  A    between atoms: C_6  and  C_7
REMARK    4  A    between atoms: C_7  and  N_8
REMARK    5  A    between atoms: N_8  and  S_9
REMARK    6  A    between atoms: S_9  and  C_12
REMARK    7  A    between atoms: C_15  and  S_17
REMARK    8  A    between atoms: S_17  and  N_18
REMARK                            x       y       z     vdW  Elec       q    Type
REMARK                         _______ _______ _______ _____ _____    ______ ____
ROOT
ATOM      1  S   UNL     1       9.569  -1.680  23.428  0.00  0.00    +0.065 S 
ATOM      2  O   UNL     1       9.740  -0.814  24.570  0.00  0.00    -0.153 OA
ATOM      3  O   UNL     1      10.689  -2.324  22.779  0.00  0.00    -0.153 OA
ENDROOT
BRANCH   1   4
ATOM      4  C   UNL     1       8.493  -3.021  23.905  0.00  0.00    +0.144 A 
ATOM      5  S   UNL     1       8.282  -3.309  25.577  0.00  0.00    -0.049 S 
ATOM      6  C   UNL     1       7.203  -4.605  25.293  0.00  0.00    +0.144 A 
ATOM      7  C   UNL     1       7.008  -4.817  23.942  0.00  0.00    +0.038 A 
ATOM      8  C   UNL     1       7.751  -3.903  23.143  0.00  0.00    +0.038 A 
BRANCH   6   9
ATOM      9  S   UNL     1       6.571  -5.434  26.733  0.00  0.00    +0.062 S 
ATOM     10  O   UNL     1       7.731  -5.668  27.558  0.00  0.00    -0.153 OA
ATOM     11  O   UNL     1       5.722  -6.491  26.236  0.00  0.00    -0.153 OA
BRANCH   9  12
ATOM     12  N   UNL     1       5.602  -4.330  27.542  0.00  0.00    -0.203 NA
ATOM     13  H   UNL     1       6.135  -3.555  27.931  0.00  0.00    +0.144 HD
ATOM     14  H   UNL     1       4.775  -4.071  27.008  0.00  0.00    +0.144 HD
ENDBRANCH   9  12
ENDBRANCH   6   9
ENDBRANCH   1   4
BRANCH   1  15
ATOM     15  N   UNL     1       8.750  -0.809  22.236  0.00  0.00    -0.185 NA
ATOM     16  H   UNL     1       8.440  -1.446  21.500  0.00  0.00    +0.148 HD
BRANCH  15  17
ATOM     17  C   UNL     1       9.489   0.347  21.711  0.00  0.00    +0.141 C 
BRANCH  17  21
ATOM     18  C   UNL     1       8.011   4.207  22.949  0.00  0.00    +0.120 A 
ATOM     19  C   UNL     1       7.252   3.400  22.102  0.00  0.00    +0.046 A 
ATOM     20  C   UNL     1       7.717   2.135  21.736  0.00  0.00    +0.008 A 
ATOM     21  C   UNL     1       8.942   1.657  22.217  0.00  0.00    -0.032 A 
ATOM     22  C   UNL     1       9.670   2.448  23.117  0.00  0.00    +0.008 A 
ATOM     23  C   UNL     1       9.201   3.713  23.484  0.00  0.00    +0.046 A 
BRANCH  18  25
ATOM     24  C   UNL     1       6.477   5.563  24.109  0.00  0.00    +0.277 C 
ATOM     25  O   UNL     1       7.665   5.476  23.326  0.00  0.00    -0.495 OA
ENDBRANCH  18  25
ENDBRANCH  17  21
ENDBRANCH  15  17
ENDBRANCH   1  15
TORSDOF 7
ENDMDL
