MODEL 1
REMARK VINA RESULT:      -7.8      0.000      0.000
REMARK  Name = 
REMARK  3 active torsions:
REMARK  status: ('A' for Active; 'I' for Inactive)
REMARK    1  A    between atoms: O_1  and  C_2
REMARK    2  A    between atoms: C_2  and  CA_4
REMARK    3  A    between atoms: C_7  and  O_8
REMARK                            x       y       z     vdW  Elec       q    Type
REMARK                         _______ _______ _______ _____ _____    ______ ____
ROOT
ATOM      1  CA  UNL     1       5.662  -5.609  22.417  0.00  0.00    +0.135 A 
ATOM      2  N   UNL     1       4.565  -6.445  22.607  0.00  0.00    -0.320 N 
ATOM      3  H   UNL     1       4.124  -6.962  21.858  0.00  0.00    +0.169 HD
ATOM      4  C   UNL     1       4.295  -6.640  23.946  0.00  0.00    +0.199 A 
ATOM      5  C   UNL     1       5.125  -5.781  24.620  0.00  0.00    +0.054 A 
ATOM      6  C   UNL     1       5.292  -5.581  26.005  0.00  0.00    +0.022 A 
ATOM      7  C   UNL     1       4.830  -5.997  27.301  0.00  0.00    +0.008 A 
ATOM      8  C   UNL     1       3.826  -6.854  27.813  0.00  0.00    +0.010 A 
ATOM      9  C   UNL     1       3.673  -7.048  29.200  0.00  0.00    +0.001 A 
ATOM     10  C   UNL     1       4.504  -6.414  30.111  0.00  0.00    +0.002 A 
ATOM     11  C   UNL     1       5.497  -5.548  29.669  0.00  0.00    +0.026 A 
ATOM     12  C   UNL     1       5.642  -5.335  28.291  0.00  0.00    +0.048 A 
ATOM     13  N   UNL     1       6.557  -4.483  27.697  0.00  0.00    -0.352 N 
ATOM     14  H   UNL     1       7.246  -3.903  28.149  0.00  0.00    +0.166 HD
ATOM     15  C   UNL     1       6.290  -4.665  26.382  0.00  0.00    +0.073 A 
ATOM     16  C   UNL     1       7.005  -3.929  25.450  0.00  0.00    +0.072 A 
ATOM     17  N   UNL     1       7.891  -2.996  25.880  0.00  0.00    -0.352 N 
ATOM     18  H   UNL     1       8.142  -2.714  26.814  0.00  0.00    +0.166 HD
ATOM     19  C   UNL     1       8.356  -2.476  24.681  0.00  0.00    +0.048 A 
ATOM     20  C   UNL     1       9.312  -1.463  24.526  0.00  0.00    +0.026 A 
ATOM     21  C   UNL     1       9.641  -1.047  23.240  0.00  0.00    +0.002 A 
ATOM     22  C   UNL     1       9.007  -1.599  22.137  0.00  0.00    +0.001 A 
ATOM     23  C   UNL     1       8.039  -2.603  22.288  0.00  0.00    +0.010 A 
ATOM     24  C   UNL     1       7.708  -3.109  23.564  0.00  0.00    +0.008 A 
ATOM     25  C   UNL     1       6.826  -4.110  24.071  0.00  0.00    +0.019 A 
ATOM     26  C   UNL     1       5.914  -5.098  23.671  0.00  0.00    +0.028 A 
ENDROOT
BRANCH   1  27
ATOM     27  C   UNL     1       6.322  -5.516  21.150  0.00  0.00    +0.354 C 
ATOM     28  OXT UNL     1       5.940  -5.015  20.105  0.00  0.00    -0.243 OA
BRANCH  27  29
ATOM     29  O   UNL     1       7.586  -5.994  21.232  0.00  0.00    -0.476 OA
ATOM     30  H   UNL     1       7.672  -6.485  20.387  0.00  0.00    +0.295 HD
ENDBRANCH  27  29
ENDBRANCH   1  27
BRANCH   4  31
ATOM     31  O   UNL     1       3.392  -7.544  24.280  0.00  0.00    -0.493 OA
ATOM     32  H   UNL     1       3.291  -8.125  23.511  0.00  0.00    +0.294 HD
ENDBRANCH   4  31
TORSDOF 3
ENDMDL
MODEL 2
REMARK VINA RESULT:      -7.6      0.663      5.942
REMARK  Name = 
REMARK  3 active torsions:
REMARK  status: ('A' for Active; 'I' for Inactive)
REMARK    1  A    between atoms: O_1  and  C_2
REMARK    2  A    between atoms: C_2  and  CA_4
REMARK    3  A    between atoms: C_7  and  O_8
REMARK                            x       y       z     vdW  Elec       q    Type
REMARK                         _______ _______ _______ _____ _____    ______ ____
ROOT
ATOM      1  CA  UNL     1       4.348  -6.137  23.691  0.00  0.00    +0.135 A 
ATOM      2  N   UNL     1       4.737  -6.030  22.359  0.00  0.00    -0.320 N 
ATOM      3  H   UNL     1       4.241  -6.476  21.598  0.00  0.00    +0.169 HD
ATOM      4  C   UNL     1       5.733  -5.090  22.189  0.00  0.00    +0.199 A 
ATOM      5  C   UNL     1       6.106  -4.713  23.453  0.00  0.00    +0.054 A 
ATOM      6  C   UNL     1       7.058  -3.763  23.873  0.00  0.00    +0.022 A 
ATOM      7  C   UNL     1       8.037  -2.819  23.408  0.00  0.00    +0.008 A 
ATOM      8  C   UNL     1       8.586  -2.431  22.162  0.00  0.00    +0.010 A 
ATOM      9  C   UNL     1       9.550  -1.406  22.080  0.00  0.00    +0.001 A 
ATOM     10  C   UNL     1       9.987  -0.736  23.213  0.00  0.00    +0.002 A 
ATOM     11  C   UNL     1       9.496  -1.085  24.465  0.00  0.00    +0.026 A 
ATOM     12  C   UNL     1       8.552  -2.117  24.557  0.00  0.00    +0.048 A 
ATOM     13  N   UNL     1       7.994  -2.600  25.728  0.00  0.00    -0.352 N 
ATOM     14  H   UNL     1       8.170  -2.290  26.670  0.00  0.00    +0.166 HD
ATOM     15  C   UNL     1       7.155  -3.554  25.260  0.00  0.00    +0.073 A 
ATOM     16  C   UNL     1       6.425  -4.302  26.171  0.00  0.00    +0.072 A 
ATOM     17  N   UNL     1       6.630  -4.114  27.498  0.00  0.00    -0.352 N 
ATOM     18  H   UNL     1       7.258  -3.493  27.981  0.00  0.00    +0.166 HD
ATOM     19  C   UNL     1       5.762  -5.046  28.051  0.00  0.00    +0.048 A 
ATOM     20  C   UNL     1       5.556  -5.286  29.417  0.00  0.00    +0.026 A 
ATOM     21  C   UNL     1       4.661  -6.283  29.791  0.00  0.00    +0.002 A 
ATOM     22  C   UNL     1       4.014  -7.047  28.830  0.00  0.00    +0.001 A 
ATOM     23  C   UNL     1       4.228  -6.819  27.463  0.00  0.00    +0.010 A 
ATOM     24  C   UNL     1       5.078  -5.781  27.021  0.00  0.00    +0.008 A 
ATOM     25  C   UNL     1       5.491  -5.264  25.757  0.00  0.00    +0.019 A 
ATOM     26  C   UNL     1       5.299  -5.412  24.375  0.00  0.00    +0.028 A 
ENDROOT
BRANCH   1  27
ATOM     27  C   UNL     1       3.134  -6.797  24.066  0.00  0.00    +0.354 C 
ATOM     28  OXT UNL     1       2.018  -6.338  24.244  0.00  0.00    -0.243 OA
BRANCH  27  29
ATOM     29  O   UNL     1       3.315  -8.137  24.121  0.00  0.00    -0.476 OA
ATOM     30  H   UNL     1       2.396  -8.470  24.039  0.00  0.00    +0.295 HD
ENDBRANCH  27  29
ENDBRANCH   1  27
BRANCH   4  31
ATOM     31  O   UNL     1       6.081  -4.759  20.959  0.00  0.00    -0.493 OA
ATOM     32  H   UNL     1       5.482  -5.239  20.367  0.00  0.00    +0.294 HD
ENDBRANCH   4  31
TORSDOF 3
ENDMDL
MODEL 3
REMARK VINA RESULT:      -7.6      3.152      6.868
REMARK  Name = 
REMARK  3 active torsions:
REMARK  status: ('A' for Active; 'I' for Inactive)
REMARK    1  A    between atoms: O_1  and  C_2
REMARK    2  A    between atoms: C_2  and  CA_4
REMARK    3  A    between atoms: C_7  and  O_8
REMARK                            x       y       z     vdW  Elec       q    Type
REMARK                         _______ _______ _______ _____ _____    ______ ____
ROOT
ATOM      1  CA  UNL     1       7.171  -5.256  27.178  0.00  0.00    +0.135 A 
ATOM      2  N   UNL     1       8.436  -5.650  26.750  0.00  0.00    -0.320 N 
ATOM      3  H   UNL     1       8.859  -6.534  27.005  0.00  0.00    +0.169 HD
ATOM      4  C   UNL     1       8.940  -4.801  25.787  0.00  0.00    +0.199 A 
ATOM      5  C   UNL     1       8.058  -3.753  25.720  0.00  0.00    +0.054 A 
ATOM      6  C   UNL     1       8.063  -2.615  24.889  0.00  0.00    +0.022 A 
ATOM      7  C   UNL     1       8.792  -1.941  23.850  0.00  0.00    +0.008 A 
ATOM      8  C   UNL     1      10.020  -2.119  23.168  0.00  0.00    +0.010 A 
ATOM      9  C   UNL     1      10.418  -1.238  22.144  0.00  0.00    +0.001 A 
ATOM     10  C   UNL     1       9.618  -0.172  21.760  0.00  0.00    +0.002 A 
ATOM     11  C   UNL     1       8.410   0.064  22.405  0.00  0.00    +0.026 A 
ATOM     12  C   UNL     1       8.017  -0.797  23.439  0.00  0.00    +0.048 A 
ATOM     13  N   UNL     1       6.864  -0.679  24.195  0.00  0.00    -0.352 N 
ATOM     14  H   UNL     1       6.144   0.022  24.119  0.00  0.00    +0.166 HD
ATOM     15  C   UNL     1       6.962  -1.750  25.018  0.00  0.00    +0.073 A 
ATOM     16  C   UNL     1       5.975  -1.949  25.970  0.00  0.00    +0.072 A 
ATOM     17  N   UNL     1       4.988  -1.029  26.104  0.00  0.00    -0.352 N 
ATOM     18  H   UNL     1       4.826  -0.166  25.611  0.00  0.00    +0.166 HD
ATOM     19  C   UNL     1       4.247  -1.562  27.151  0.00  0.00    +0.048 A 
ATOM     20  C   UNL     1       3.086  -1.015  27.714  0.00  0.00    +0.026 A 
ATOM     21  C   UNL     1       2.487  -1.677  28.781  0.00  0.00    +0.002 A 
ATOM     22  C   UNL     1       3.050  -2.834  29.298  0.00  0.00    +0.001 A 
ATOM     23  C   UNL     1       4.220  -3.377  28.747  0.00  0.00    +0.010 A 
ATOM     24  C   UNL     1       4.839  -2.784  27.624  0.00  0.00    +0.008 A 
ATOM     25  C   UNL     1       5.979  -3.069  26.815  0.00  0.00    +0.019 A 
ATOM     26  C   UNL     1       7.009  -4.003  26.629  0.00  0.00    +0.028 A 
ENDROOT
BRANCH   1  27
ATOM     27  C   UNL     1       6.323  -6.138  27.922  0.00  0.00    +0.354 C 
ATOM     28  OXT UNL     1       5.555  -7.000  27.528  0.00  0.00    -0.243 OA
BRANCH  27  29
ATOM     29  O   UNL     1       6.533  -5.996  29.251  0.00  0.00    -0.476 OA
ATOM     30  H   UNL     1       6.096  -6.797  29.613  0.00  0.00    +0.295 HD
ENDBRANCH  27  29
ENDBRANCH   1  27
BRANCH   4  31
ATOM     31  O   UNL     1      10.053  -5.145  25.166  0.00  0.00    -0.493 OA
ATOM     32  H   UNL     1      10.384  -5.936  25.618  0.00  0.00    +0.294 HD
ENDBRANCH   4  31
TORSDOF 3
ENDMDL
MODEL 4
REMARK VINA RESULT:      -7.5      3.232      7.316
REMARK  Name = 
REMARK  3 active torsions:
REMARK  status: ('A' for Active; 'I' for Inactive)
REMARK    1  A    between atoms: O_1  and  C_2
REMARK    2  A    between atoms: C_2  and  CA_4
REMARK    3  A    between atoms: C_7  and  O_8
REMARK                            x       y       z     vdW  Elec       q    Type
REMARK                         _______ _______ _______ _____ _____    ______ ____
ROOT
ATOM      1  CA  UNL     1       6.476  -2.543  26.725  0.00  0.00    +0.135 A 
ATOM      2  N   UNL     1       6.541  -1.375  27.479  0.00  0.00    -0.320 N 
ATOM      3  H   UNL     1       6.255  -1.322  28.448  0.00  0.00    +0.169 HD
ATOM      4  C   UNL     1       7.228  -0.377  26.819  0.00  0.00    +0.199 A 
ATOM      5  C   UNL     1       7.456  -0.857  25.556  0.00  0.00    +0.054 A 
ATOM      6  C   UNL     1       8.139  -0.270  24.472  0.00  0.00    +0.022 A 
ATOM      7  C   UNL     1       8.845   0.907  24.046  0.00  0.00    +0.008 A 
ATOM      8  C   UNL     1       9.143   2.182  24.583  0.00  0.00    +0.010 A 
ATOM      9  C   UNL     1       9.916   3.113  23.862  0.00  0.00    +0.001 A 
ATOM     10  C   UNL     1      10.419   2.810  22.605  0.00  0.00    +0.002 A 
ATOM     11  C   UNL     1      10.146   1.581  22.019  0.00  0.00    +0.026 A 
ATOM     12  C   UNL     1       9.361   0.657  22.723  0.00  0.00    +0.048 A 
ATOM     13  N   UNL     1       8.975  -0.591  22.266  0.00  0.00    -0.352 N 
ATOM     14  H   UNL     1       9.197  -1.021  21.382  0.00  0.00    +0.166 HD
ATOM     15  C   UNL     1       8.264  -1.063  23.317  0.00  0.00    +0.073 A 
ATOM     16  C   UNL     1       7.672  -2.312  23.212  0.00  0.00    +0.072 A 
ATOM     17  N   UNL     1       7.753  -2.988  22.039  0.00  0.00    -0.352 N 
ATOM     18  H   UNL     1       8.190  -2.735  21.168  0.00  0.00    +0.166 HD
ATOM     19  C   UNL     1       7.029  -4.137  22.326  0.00  0.00    +0.048 A 
ATOM     20  C   UNL     1       6.790  -5.210  21.457  0.00  0.00    +0.026 A 
ATOM     21  C   UNL     1       6.016  -6.275  21.909  0.00  0.00    +0.002 A 
ATOM     22  C   UNL     1       5.465  -6.255  23.182  0.00  0.00    +0.001 A 
ATOM     23  C   UNL     1       5.690  -5.176  24.049  0.00  0.00    +0.010 A 
ATOM     24  C   UNL     1       6.517  -4.096  23.669  0.00  0.00    +0.008 A 
ATOM     25  C   UNL     1       6.973  -2.890  24.282  0.00  0.00    +0.019 A 
ATOM     26  C   UNL     1       6.929  -2.163  25.481  0.00  0.00    +0.028 A 
ENDROOT
BRANCH   1  27
ATOM     27  C   UNL     1       6.104  -3.795  27.313  0.00  0.00    +0.354 C 
ATOM     28  OXT UNL     1       4.998  -4.234  27.582  0.00  0.00    -0.243 OA
BRANCH  27  29
ATOM     29  O   UNL     1       7.188  -4.587  27.479  0.00  0.00    -0.476 OA
ATOM     30  H   UNL     1       7.000  -5.323  26.858  0.00  0.00    +0.295 HD
ENDBRANCH  27  29
ENDBRANCH   1  27
BRANCH   4  31
ATOM     31  O   UNL     1       7.517   0.729  27.480  0.00  0.00    -0.493 OA
ATOM     32  H   UNL     1       8.111   0.469  28.200  0.00  0.00    +0.294 HD
ENDBRANCH   4  31
TORSDOF 3
ENDMDL
MODEL 5
REMARK VINA RESULT:      -7.5      3.815      6.918
REMARK  Name = 
REMARK  3 active torsions:
REMARK  status: ('A' for Active; 'I' for Inactive)
REMARK    1  A    between atoms: O_1  and  C_2
REMARK    2  A    between atoms: C_2  and  CA_4
REMARK    3  A    between atoms: C_7  and  O_8
REMARK                            x       y       z     vdW  Elec       q    Type
REMARK                         _______ _______ _______ _____ _____    ______ ____
ROOT
ATOM      1  CA  UNL     1       8.754  -3.480  25.924  0.00  0.00    +0.135 A 
ATOM      2  N   UNL     1       9.006  -2.638  27.004  0.00  0.00    -0.320 N 
ATOM      3  H   UNL     1       9.500  -2.934  27.836  0.00  0.00    +0.169 HD
ATOM      4  C   UNL     1       8.693  -1.326  26.715  0.00  0.00    +0.199 A 
ATOM      5  C   UNL     1       8.072  -1.354  25.493  0.00  0.00    +0.054 A 
ATOM      6  C   UNL     1       7.569  -0.298  24.707  0.00  0.00    +0.022 A 
ATOM      7  C   UNL     1       7.387   1.127  24.658  0.00  0.00    +0.008 A 
ATOM      8  C   UNL     1       7.603   2.225  25.525  0.00  0.00    +0.010 A 
ATOM      9  C   UNL     1       7.320   3.543  25.114  0.00  0.00    +0.001 A 
ATOM     10  C   UNL     1       6.830   3.812  23.844  0.00  0.00    +0.002 A 
ATOM     11  C   UNL     1       6.582   2.773  22.956  0.00  0.00    +0.026 A 
ATOM     12  C   UNL     1       6.842   1.458  23.365  0.00  0.00    +0.048 A 
ATOM     13  N   UNL     1       6.619   0.317  22.612  0.00  0.00    -0.352 N 
ATOM     14  H   UNL     1       6.251   0.257  21.676  0.00  0.00    +0.166 HD
ATOM     15  C   UNL     1       7.047  -0.655  23.451  0.00  0.00    +0.073 A 
ATOM     16  C   UNL     1       6.944  -1.976  23.044  0.00  0.00    +0.072 A 
ATOM     17  N   UNL     1       6.349  -2.261  21.860  0.00  0.00    -0.352 N 
ATOM     18  H   UNL     1       5.935  -1.652  21.173  0.00  0.00    +0.166 HD
ATOM     19  C   UNL     1       6.414  -3.648  21.838  0.00  0.00    +0.048 A 
ATOM     20  C   UNL     1       5.941  -4.489  20.822  0.00  0.00    +0.026 A 
ATOM     21  C   UNL     1       6.068  -5.865  20.982  0.00  0.00    +0.002 A 
ATOM     22  C   UNL     1       6.618  -6.392  22.141  0.00  0.00    +0.001 A 
ATOM     23  C   UNL     1       7.079  -5.554  23.167  0.00  0.00    +0.010 A 
ATOM     24  C   UNL     1       7.033  -4.148  23.036  0.00  0.00    +0.008 A 
ATOM     25  C   UNL     1       7.424  -3.032  23.834  0.00  0.00    +0.019 A 
ATOM     26  C   UNL     1       8.048  -2.690  25.043  0.00  0.00    +0.028 A 
ENDROOT
BRANCH   1  27
ATOM     27  C   UNL     1       9.288  -4.807  25.869  0.00  0.00    +0.354 C 
ATOM     28  OXT UNL     1      10.235  -5.242  25.235  0.00  0.00    -0.243 OA
BRANCH  27  29
ATOM     29  O   UNL     1       8.651  -5.617  26.747  0.00  0.00    -0.476 OA
ATOM     30  H   UNL     1       8.188  -6.242  26.148  0.00  0.00    +0.295 HD
ENDBRANCH  27  29
ENDBRANCH   1  27
BRANCH   4  31
ATOM     31  O   UNL     1       9.040  -0.392  27.582  0.00  0.00    -0.493 OA
ATOM     32  H   UNL     1       9.528   0.278  27.081  0.00  0.00    +0.294 HD
ENDBRANCH   4  31
TORSDOF 3
ENDMDL
MODEL 6
REMARK VINA RESULT:      -7.4      4.387      6.239
REMARK  Name = 
REMARK  3 active torsions:
REMARK  status: ('A' for Active; 'I' for Inactive)
REMARK    1  A    between atoms: O_1  and  C_2
REMARK    2  A    between atoms: C_2  and  CA_4
REMARK    3  A    between atoms: C_7  and  O_8
REMARK                            x       y       z     vdW  Elec       q    Type
REMARK                         _______ _______ _______ _____ _____    ______ ____
ROOT
ATOM      1  CA  UNL     1       9.714   0.622  23.053  0.00  0.00    +0.135 A 
ATOM      2  N   UNL     1      10.407  -0.579  22.936  0.00  0.00    -0.320 N 
ATOM      3  H   UNL     1      11.363  -0.640  22.612  0.00  0.00    +0.169 HD
ATOM      4  C   UNL     1       9.716  -1.629  23.506  0.00  0.00    +0.199 A 
ATOM      5  C   UNL     1       8.486  -1.123  23.840  0.00  0.00    +0.054 A 
ATOM      6  C   UNL     1       7.392  -1.744  24.476  0.00  0.00    +0.022 A 
ATOM      7  C   UNL     1       6.926  -2.984  25.034  0.00  0.00    +0.008 A 
ATOM      8  C   UNL     1       7.404  -4.312  25.141  0.00  0.00    +0.010 A 
ATOM      9  C   UNL     1       6.656  -5.303  25.808  0.00  0.00    +0.001 A 
ATOM     10  C   UNL     1       5.432  -5.010  26.390  0.00  0.00    +0.002 A 
ATOM     11  C   UNL     1       4.904  -3.729  26.303  0.00  0.00    +0.026 A 
ATOM     12  C   UNL     1       5.632  -2.742  25.624  0.00  0.00    +0.048 A 
ATOM     13  N   UNL     1       5.230  -1.433  25.424  0.00  0.00    -0.352 N 
ATOM     14  H   UNL     1       4.377  -0.995  25.732  0.00  0.00    +0.166 HD
ATOM     15  C   UNL     1       6.284  -0.921  24.746  0.00  0.00    +0.073 A 
ATOM     16  C   UNL     1       6.228   0.400  24.329  0.00  0.00    +0.072 A 
ATOM     17  N   UNL     1       5.095   1.114  24.541  0.00  0.00    -0.352 N 
ATOM     18  H   UNL     1       4.224   0.847  24.970  0.00  0.00    +0.166 HD
ATOM     19  C   UNL     1       5.421   2.336  23.967  0.00  0.00    +0.048 A 
ATOM     20  C   UNL     1       4.603   3.472  23.902  0.00  0.00    +0.026 A 
ATOM     21  C   UNL     1       5.088   4.608  23.262  0.00  0.00    +0.002 A 
ATOM     22  C   UNL     1       6.342   4.601  22.669  0.00  0.00    +0.001 A 
ATOM     23  C   UNL     1       7.158   3.461  22.718  0.00  0.00    +0.010 A 
ATOM     24  C   UNL     1       6.745   2.299  23.407  0.00  0.00    +0.008 A 
ATOM     25  C   UNL     1       7.306   1.015  23.676  0.00  0.00    +0.019 A 
ATOM     26  C   UNL     1       8.465   0.244  23.495  0.00  0.00    +0.028 A 
ENDROOT
BRANCH   1  27
ATOM     27  C   UNL     1      10.356   1.882  22.830  0.00  0.00    +0.354 C 
ATOM     28  OXT UNL     1      11.003   2.575  23.597  0.00  0.00    -0.243 OA
BRANCH  27  29
ATOM     29  O   UNL     1      10.263   2.244  21.529  0.00  0.00    -0.476 OA
ATOM     30  H   UNL     1       9.889   3.148  21.596  0.00  0.00    +0.295 HD
ENDBRANCH  27  29
ENDBRANCH   1  27
BRANCH   4  31
ATOM     31  O   UNL     1      10.326  -2.794  23.622  0.00  0.00    -0.493 OA
ATOM     32  H   UNL     1      10.942  -2.706  24.365  0.00  0.00    +0.294 HD
ENDBRANCH   4  31
TORSDOF 3
ENDMDL
MODEL 7
REMARK VINA RESULT:      -7.4      5.379      7.772
REMARK  Name = 
REMARK  3 active torsions:
REMARK  status: ('A' for Active; 'I' for Inactive)
REMARK    1  A    between atoms: O_1  and  C_2
REMARK    2  A    between atoms: C_2  and  CA_4
REMARK    3  A    between atoms: C_7  and  O_8
REMARK                            x       y       z     vdW  Elec       q    Type
REMARK                         _______ _______ _______ _____ _____    ______ ____
ROOT
ATOM      1  CA  UNL     1       6.283   3.300  24.584  0.00  0.00    +0.135 A 
ATOM      2  N   UNL     1       5.288   2.466  25.086  0.00  0.00    -0.320 N 
ATOM      3  H   UNL     1       4.342   2.777  25.270  0.00  0.00    +0.169 HD
ATOM      4  C   UNL     1       5.684   1.145  25.099  0.00  0.00    +0.199 A 
ATOM      5  C   UNL     1       7.013   1.154  24.762  0.00  0.00    +0.054 A 
ATOM      6  C   UNL     1       7.914   0.083  24.596  0.00  0.00    +0.022 A 
ATOM      7  C   UNL     1       8.041  -1.347  24.667  0.00  0.00    +0.008 A 
ATOM      8  C   UNL     1       7.225  -2.439  25.049  0.00  0.00    +0.010 A 
ATOM      9  C   UNL     1       7.693  -3.764  24.959  0.00  0.00    +0.001 A 
ATOM     10  C   UNL     1       8.965  -4.048  24.485  0.00  0.00    +0.002 A 
ATOM     11  C   UNL     1       9.818  -3.017  24.111  0.00  0.00    +0.026 A 
ATOM     12  C   UNL     1       9.366  -1.694  24.216  0.00  0.00    +0.048 A 
ATOM     13  N   UNL     1      10.102  -0.561  23.915  0.00  0.00    -0.352 N 
ATOM     14  H   UNL     1      11.050  -0.512  23.576  0.00  0.00    +0.166 HD
ATOM     15  C   UNL     1       9.209   0.424  24.169  0.00  0.00    +0.073 A 
ATOM     16  C   UNL     1       9.610   1.741  24.010  0.00  0.00    +0.072 A 
ATOM     17  N   UNL     1      10.899   2.008  23.684  0.00  0.00    -0.352 N 
ATOM     18  H   UNL     1      11.676   1.386  23.528  0.00  0.00    +0.166 HD
ATOM     19  C   UNL     1      10.901   3.396  23.654  0.00  0.00    +0.048 A 
ATOM     20  C   UNL     1      11.994   4.222  23.360  0.00  0.00    +0.026 A 
ATOM     21  C   UNL     1      11.818   5.602  23.403  0.00  0.00    +0.002 A 
ATOM     22  C   UNL     1      10.594   6.145  23.766  0.00  0.00    +0.001 A 
ATOM     23  C   UNL     1       9.502   5.321  24.076  0.00  0.00    +0.010 A 
ATOM     24  C   UNL     1       9.602   3.915  23.990  0.00  0.00    +0.008 A 
ATOM     25  C   UNL     1       8.722   2.811  24.196  0.00  0.00    +0.019 A 
ATOM     26  C   UNL     1       7.394   2.489  24.515  0.00  0.00    +0.028 A 
ENDROOT
BRANCH   1  27
ATOM     27  C   UNL     1       6.000   4.644  24.178  0.00  0.00    +0.354 C 
ATOM     28  OXT UNL     1       5.929   5.662  24.844  0.00  0.00    -0.243 OA
BRANCH  27  29
ATOM     29  O   UNL     1       5.903   4.726  22.830  0.00  0.00    -0.476 OA
ATOM     30  H   UNL     1       6.791   4.425  22.543  0.00  0.00    +0.295 HD
ENDBRANCH  27  29
ENDBRANCH   1  27
BRANCH   4  31
ATOM     31  O   UNL     1       4.784   0.222  25.388  0.00  0.00    -0.493 OA
ATOM     32  H   UNL     1       4.750  -0.374  24.624  0.00  0.00    +0.294 HD
ENDBRANCH   4  31
TORSDOF 3
ENDMDL
MODEL 8
REMARK VINA RESULT:      -7.3      4.600      6.947
REMARK  Name = 
REMARK  3 active torsions:
REMARK  status: ('A' for Active; 'I' for Inactive)
REMARK    1  A    between atoms: O_1  and  C_2
REMARK    2  A    between atoms: C_2  and  CA_4
REMARK    3  A    between atoms: C_7  and  O_8
REMARK                            x       y       z     vdW  Elec       q    Type
REMARK                         _______ _______ _______ _____ _____    ______ ____
ROOT
ATOM      1  CA  UNL     1       9.773   1.668  23.232  0.00  0.00    +0.135 A 
ATOM      2  N   UNL     1      10.163   0.723  22.288  0.00  0.00    -0.320 N 
ATOM      3  H   UNL     1      10.714   0.949  21.470  0.00  0.00    +0.169 HD
ATOM      4  C   UNL     1       9.892  -0.563  22.707  0.00  0.00    +0.199 A 
ATOM      5  C   UNL     1       9.163  -0.430  23.861  0.00  0.00    +0.054 A 
ATOM      6  C   UNL     1       8.646  -1.415  24.726  0.00  0.00    +0.022 A 
ATOM      7  C   UNL     1       8.531  -2.833  24.932  0.00  0.00    +0.008 A 
ATOM      8  C   UNL     1       8.879  -4.010  24.226  0.00  0.00    +0.010 A 
ATOM      9  C   UNL     1       8.627  -5.285  24.769  0.00  0.00    +0.001 A 
ATOM     10  C   UNL     1       8.039  -5.433  26.017  0.00  0.00    +0.002 A 
ATOM     11  C   UNL     1       7.661  -4.315  26.749  0.00  0.00    +0.026 A 
ATOM     12  C   UNL     1       7.890  -3.043  26.206  0.00  0.00    +0.048 A 
ATOM     13  N   UNL     1       7.544  -1.838  26.794  0.00  0.00    -0.352 N 
ATOM     14  H   UNL     1       7.091  -1.691  27.682  0.00  0.00    +0.166 HD
ATOM     15  C   UNL     1       7.997  -0.946  25.881  0.00  0.00    +0.073 A 
ATOM     16  C   UNL     1       7.792   0.405  26.114  0.00  0.00    +0.072 A 
ATOM     17  N   UNL     1       7.079   0.790  27.202  0.00  0.00    -0.352 N 
ATOM     18  H   UNL     1       6.636   0.241  27.921  0.00  0.00    +0.166 HD
ATOM     19  C   UNL     1       7.072   2.171  27.060  0.00  0.00    +0.048 A 
ATOM     20  C   UNL     1       6.469   3.095  27.924  0.00  0.00    +0.026 A 
ATOM     21  C   UNL     1       6.541   4.448  27.609  0.00  0.00    +0.002 A 
ATOM     22  C   UNL     1       7.166   4.868  26.443  0.00  0.00    +0.001 A 
ATOM     23  C   UNL     1       7.757   3.945  25.568  0.00  0.00    +0.010 A 
ATOM     24  C   UNL     1       7.771   2.565  25.866  0.00  0.00    +0.008 A 
ATOM     25  C   UNL     1       8.286   1.388  25.244  0.00  0.00    +0.019 A 
ATOM     26  C   UNL     1       9.033   0.945  24.141  0.00  0.00    +0.028 A 
ENDROOT
BRANCH   1  27
ATOM     27  C   UNL     1      10.233   3.023  23.170  0.00  0.00    +0.354 C 
ATOM     28  OXT UNL     1      11.341   3.483  23.392  0.00  0.00    -0.243 OA
BRANCH  27  29
ATOM     29  O   UNL     1       9.261   3.838  22.697  0.00  0.00    -0.476 OA
ATOM     30  H   UNL     1       8.729   4.008  23.504  0.00  0.00    +0.295 HD
ENDBRANCH  27  29
ENDBRANCH   1  27
BRANCH   4  31
ATOM     31  O   UNL     1      10.360  -1.569  21.992  0.00  0.00    -0.493 OA
ATOM     32  H   UNL     1      11.230  -1.785  22.361  0.00  0.00    +0.294 HD
ENDBRANCH   4  31
TORSDOF 3
ENDMDL
MODEL 9
REMARK VINA RESULT:      -7.3      4.674      7.200
REMARK  Name = 
REMARK  3 active torsions:
REMARK  status: ('A' for Active; 'I' for Inactive)
REMARK    1  A    between atoms: O_1  and  C_2
REMARK    2  A    between atoms: C_2  and  CA_4
REMARK    3  A    between atoms: C_7  and  O_8
REMARK                            x       y       z     vdW  Elec       q    Type
REMARK                         _______ _______ _______ _____ _____    ______ ____
ROOT
ATOM      1  CA  UNL     1       9.521   2.060  22.903  0.00  0.00    +0.135 A 
ATOM      2  N   UNL     1       9.762   1.329  21.744  0.00  0.00    -0.320 N 
ATOM      3  H   UNL     1      10.346   1.661  20.988  0.00  0.00    +0.169 HD
ATOM      4  C   UNL     1       9.290   0.036  21.846  0.00  0.00    +0.199 A 
ATOM      5  C   UNL     1       8.584  -0.008  23.021  0.00  0.00    +0.054 A 
ATOM      6  C   UNL     1       7.914  -1.084  23.636  0.00  0.00    +0.022 A 
ATOM      7  C   UNL     1       7.576  -2.474  23.494  0.00  0.00    +0.008 A 
ATOM      8  C   UNL     1       7.738  -3.480  22.511  0.00  0.00    +0.010 A 
ATOM      9  C   UNL     1       7.285  -4.795  22.735  0.00  0.00    +0.001 A 
ATOM     10  C   UNL     1       6.675  -5.153  23.928  0.00  0.00    +0.002 A 
ATOM     11  C   UNL     1       6.474  -4.205  24.923  0.00  0.00    +0.026 A 
ATOM     12  C   UNL     1       6.903  -2.890  24.699  0.00  0.00    +0.048 A 
ATOM     13  N   UNL     1       6.748  -1.828  25.574  0.00  0.00    -0.352 N 
ATOM     14  H   UNL     1       6.320  -1.836  26.486  0.00  0.00    +0.166 HD
ATOM     15  C   UNL     1       7.340  -0.820  24.892  0.00  0.00    +0.073 A 
ATOM     16  C   UNL     1       7.350   0.447  25.455  0.00  0.00    +0.072 A 
ATOM     17  N   UNL     1       6.701   0.657  26.627  0.00  0.00    -0.352 N 
ATOM     18  H   UNL     1       6.173   0.024  27.205  0.00  0.00    +0.166 HD
ATOM     19  C   UNL     1       6.912   2.015  26.826  0.00  0.00    +0.048 A 
ATOM     20  C   UNL     1       6.458   2.779  27.909  0.00  0.00    +0.026 A 
ATOM     21  C   UNL     1       6.744   4.141  27.932  0.00  0.00    +0.002 A 
ATOM     22  C   UNL     1       7.433   4.733  26.884  0.00  0.00    +0.001 A 
ATOM     23  C   UNL     1       7.877   3.974  25.791  0.00  0.00    +0.010 A 
ATOM     24  C   UNL     1       7.670   2.578  25.742  0.00  0.00    +0.008 A 
ATOM     25  C   UNL     1       7.998   1.526  24.835  0.00  0.00    +0.019 A 
ATOM     26  C   UNL     1       8.671   1.259  23.633  0.00  0.00    +0.028 A 
ENDROOT
BRANCH   1  27
ATOM     27  C   UNL     1      10.189   3.301  23.158  0.00  0.00    +0.354 C 
ATOM     28  OXT UNL     1      11.348   3.514  23.475  0.00  0.00    -0.243 OA
BRANCH  27  29
ATOM     29  O   UNL     1       9.372   4.348  22.896  0.00  0.00    -0.476 OA
ATOM     30  H   UNL     1       8.510   4.022  23.234  0.00  0.00    +0.295 HD
ENDBRANCH  27  29
ENDBRANCH   1  27
BRANCH   4  31
ATOM     31  O   UNL     1       9.598  -0.822  20.891  0.00  0.00    -0.493 OA
ATOM     32  H   UNL     1       9.526  -1.705  21.285  0.00  0.00    +0.294 HD
ENDBRANCH   4  31
TORSDOF 3
ENDMDL
