MODEL 1
REMARK VINA RESULT:      -2.6      0.000      0.000
REMARK  Name = 
REMARK  4 active torsions:
REMARK  status: ('A' for Active; 'I' for Inactive)
REMARK    1  A    between atoms: C_1  and  O_2
REMARK    2  A    between atoms: O_2  and  C_3
REMARK    3  A    between atoms: C_3  and  C_4
REMARK    4  A    between atoms: C_4  and  O_5
REMARK                            x       y       z     vdW  Elec       q    Type
REMARK                         _______ _______ _______ _____ _____    ______ ____
ROOT
ATOM      1  C   UNL     1       8.827  -4.090  24.432  0.00  0.00    +0.187 C 
ENDROOT
BRANCH   1   3
ATOM      2  C   UNL     1       9.883  -2.179  23.540  0.00  0.00    +0.194 C 
ATOM      3  O   UNL     1      10.078  -3.444  24.159  0.00  0.00    -0.381 OA
ENDBRANCH   1   3
BRANCH   1   4
ATOM      4  C   UNL     1       9.088  -5.244  25.393  0.00  0.00    +0.184 C 
BRANCH   4   5
ATOM      5  O   UNL     1      10.482  -5.546  25.421  0.00  0.00    -0.393 OA
ATOM      6  H   UNL     1      10.612  -6.065  26.238  0.00  0.00    +0.209 HD
ENDBRANCH   4   5
ENDBRANCH   1   4
TORSDOF 3
ENDMDL
MODEL 2
REMARK VINA RESULT:      -2.5      3.831      5.721
REMARK  Name = 
REMARK  4 active torsions:
REMARK  status: ('A' for Active; 'I' for Inactive)
REMARK    1  A    between atoms: C_1  and  O_2
REMARK    2  A    between atoms: O_2  and  C_3
REMARK    3  A    between atoms: C_3  and  C_4
REMARK    4  A    between atoms: C_4  and  O_5
REMARK                            x       y       z     vdW  Elec       q    Type
REMARK                         _______ _______ _______ _____ _____    ______ ____
ROOT
ATOM      1  C   UNL     1       9.405  -0.007  21.385  0.00  0.00    +0.187 C 
ENDROOT
BRANCH   1   3
ATOM      2  C   UNL     1      10.168  -1.705  22.834  0.00  0.00    +0.194 C 
ATOM      3  O   UNL     1       9.034  -1.131  22.194  0.00  0.00    -0.381 OA
ENDBRANCH   1   3
BRANCH   1   4
ATOM      4  C   UNL     1       9.999   1.060  22.298  0.00  0.00    +0.184 C 
BRANCH   4   5
ATOM      5  O   UNL     1      10.173   2.276  21.572  0.00  0.00    -0.393 OA
ATOM      6  H   UNL     1       9.414   2.834  21.830  0.00  0.00    +0.209 HD
ENDBRANCH   4   5
ENDBRANCH   1   4
TORSDOF 3
ENDMDL
MODEL 3
REMARK VINA RESULT:      -2.5      1.979      2.548
REMARK  Name = 
REMARK  4 active torsions:
REMARK  status: ('A' for Active; 'I' for Inactive)
REMARK    1  A    between atoms: C_1  and  O_2
REMARK    2  A    between atoms: O_2  and  C_3
REMARK    3  A    between atoms: C_3  and  C_4
REMARK    4  A    between atoms: C_4  and  O_5
REMARK                            x       y       z     vdW  Elec       q    Type
REMARK                         _______ _______ _______ _____ _____    ______ ____
ROOT
ATOM      1  C   UNL     1       9.267  -4.870  25.924  0.00  0.00    +0.187 C 
ENDROOT
BRANCH   1   3
ATOM      2  C   UNL     1       8.095  -5.023  23.883  0.00  0.00    +0.194 C 
ATOM      3  O   UNL     1       9.343  -5.220  24.535  0.00  0.00    -0.381 OA
ENDBRANCH   1   3
BRANCH   1   4
ATOM      4  C   UNL     1       7.847  -5.143  26.406  0.00  0.00    +0.184 C 
BRANCH   4   5
ATOM      5  O   UNL     1       7.882  -5.937  27.590  0.00  0.00    -0.393 OA
ATOM      6  H   UNL     1       6.945  -6.120  27.799  0.00  0.00    +0.209 HD
ENDBRANCH   4   5
ENDBRANCH   1   4
TORSDOF 3
ENDMDL
MODEL 4
REMARK VINA RESULT:      -2.5      4.710      6.170
REMARK  Name = 
REMARK  4 active torsions:
REMARK  status: ('A' for Active; 'I' for Inactive)
REMARK    1  A    between atoms: C_1  and  O_2
REMARK    2  A    between atoms: O_2  and  C_3
REMARK    3  A    between atoms: C_3  and  C_4
REMARK    4  A    between atoms: C_4  and  O_5
REMARK                            x       y       z     vdW  Elec       q    Type
REMARK                         _______ _______ _______ _____ _____    ______ ____
ROOT
ATOM      1  C   UNL     1      10.530   1.825  23.872  0.00  0.00    +0.187 C 
ENDROOT
BRANCH   1   3
ATOM      2  C   UNL     1       9.895  -0.081  25.108  0.00  0.00    +0.194 C 
ATOM      3  O   UNL     1      10.980   0.744  24.699  0.00  0.00    -0.381 OA
ENDBRANCH   1   3
BRANCH   1   4
ATOM      4  C   UNL     1      10.024   1.239  22.559  0.00  0.00    +0.184 C 
BRANCH   4   5
ATOM      5  O   UNL     1      10.093   2.225  21.530  0.00  0.00    -0.393 OA
ATOM      6  H   UNL     1       9.335   2.034  20.945  0.00  0.00    +0.209 HD
ENDBRANCH   4   5
ENDBRANCH   1   4
TORSDOF 3
ENDMDL
MODEL 5
REMARK VINA RESULT:      -2.4      1.821      2.364
REMARK  Name = 
REMARK  4 active torsions:
REMARK  status: ('A' for Active; 'I' for Inactive)
REMARK    1  A    between atoms: C_1  and  O_2
REMARK    2  A    between atoms: O_2  and  C_3
REMARK    3  A    between atoms: C_3  and  C_4
REMARK    4  A    between atoms: C_4  and  O_5
REMARK                            x       y       z     vdW  Elec       q    Type
REMARK                         _______ _______ _______ _____ _____    ______ ____
ROOT
ATOM      1  C   UNL     1       8.282  -4.614  24.495  0.00  0.00    +0.187 C 
ENDROOT
BRANCH   1   3
ATOM      2  C   UNL     1       7.302  -5.623  22.602  0.00  0.00    +0.194 C 
ATOM      3  O   UNL     1       8.437  -5.594  23.460  0.00  0.00    -0.381 OA
ENDBRANCH   1   3
BRANCH   1   4
ATOM      4  C   UNL     1       9.037  -5.102  25.727  0.00  0.00    +0.184 C 
BRANCH   4   5
ATOM      5  O   UNL     1      10.310  -5.617  25.342  0.00  0.00    -0.393 OA
ATOM      6  H   UNL     1      10.402  -5.385  24.398  0.00  0.00    +0.209 HD
ENDBRANCH   4   5
ENDBRANCH   1   4
TORSDOF 3
ENDMDL
MODEL 6
REMARK VINA RESULT:      -2.3      1.599      3.503
REMARK  Name = 
REMARK  4 active torsions:
REMARK  status: ('A' for Active; 'I' for Inactive)
REMARK    1  A    between atoms: C_1  and  O_2
REMARK    2  A    between atoms: O_2  and  C_3
REMARK    3  A    between atoms: C_3  and  C_4
REMARK    4  A    between atoms: C_4  and  O_5
REMARK                            x       y       z     vdW  Elec       q    Type
REMARK                         _______ _______ _______ _____ _____    ______ ____
ROOT
ATOM      1  C   UNL     1       9.762  -2.533  23.878  0.00  0.00    +0.187 C 
ENDROOT
BRANCH   1   3
ATOM      2  C   UNL     1       9.422  -4.481  25.162  0.00  0.00    +0.194 C 
ATOM      3  O   UNL     1       9.124  -3.815  23.942  0.00  0.00    -0.381 OA
ENDBRANCH   1   3
BRANCH   1   4
ATOM      4  C   UNL     1       9.270  -1.819  22.624  0.00  0.00    +0.184 C 
BRANCH   4   5
ATOM      5  O   UNL     1      10.356  -1.627  21.719  0.00  0.00    -0.393 OA
ATOM      6  H   UNL     1      11.120  -2.063  22.145  0.00  0.00    +0.209 HD
ENDBRANCH   4   5
ENDBRANCH   1   4
TORSDOF 3
ENDMDL
MODEL 7
REMARK VINA RESULT:      -2.3      4.301      5.771
REMARK  Name = 
REMARK  4 active torsions:
REMARK  status: ('A' for Active; 'I' for Inactive)
REMARK    1  A    between atoms: C_1  and  O_2
REMARK    2  A    between atoms: O_2  and  C_3
REMARK    3  A    between atoms: C_3  and  C_4
REMARK    4  A    between atoms: C_4  and  O_5
REMARK                            x       y       z     vdW  Elec       q    Type
REMARK                         _______ _______ _______ _____ _____    ______ ____
ROOT
ATOM      1  C   UNL     1       9.709  -0.407  21.581  0.00  0.00    +0.187 C 
ENDROOT
BRANCH   1   3
ATOM      2  C   UNL     1       7.792  -0.583  22.944  0.00  0.00    +0.194 C 
ATOM      3  O   UNL     1       8.821  -1.297  22.270  0.00  0.00    -0.381 OA
ENDBRANCH   1   3
BRANCH   1   4
ATOM      4  C   UNL     1       9.005   0.936  21.420  0.00  0.00    +0.184 C 
BRANCH   4   5
ATOM      5  O   UNL     1       9.966   1.989  21.420  0.00  0.00    -0.393 OA
ATOM      6  H   UNL     1      10.422   1.915  20.559  0.00  0.00    +0.209 HD
ENDBRANCH   4   5
ENDBRANCH   1   4
TORSDOF 3
ENDMDL
MODEL 8
REMARK VINA RESULT:      -2.3      3.637      4.147
REMARK  Name = 
REMARK  4 active torsions:
REMARK  status: ('A' for Active; 'I' for Inactive)
REMARK    1  A    between atoms: C_1  and  O_2
REMARK    2  A    between atoms: O_2  and  C_3
REMARK    3  A    between atoms: C_3  and  C_4
REMARK    4  A    between atoms: C_4  and  O_5
REMARK                            x       y       z     vdW  Elec       q    Type
REMARK                         _______ _______ _______ _____ _____    ______ ____
ROOT
ATOM      1  C   UNL     1       9.521  -0.799  23.774  0.00  0.00    +0.187 C 
ENDROOT
BRANCH   1   3
ATOM      2  C   UNL     1      11.037   0.840  24.533  0.00  0.00    +0.194 C 
ATOM      3  O   UNL     1      10.269   0.375  23.430  0.00  0.00    -0.381 OA
ENDBRANCH   1   3
BRANCH   1   4
ATOM      4  C   UNL     1      10.086  -1.972  22.981  0.00  0.00    +0.184 C 
BRANCH   4   5
ATOM      5  O   UNL     1      10.266  -1.593  21.618  0.00  0.00    -0.393 OA
ATOM      6  H   UNL     1       9.803  -0.737  21.530  0.00  0.00    +0.209 HD
ENDBRANCH   4   5
ENDBRANCH   1   4
TORSDOF 3
ENDMDL
MODEL 9
REMARK VINA RESULT:      -2.2      4.236      4.958
REMARK  Name = 
REMARK  4 active torsions:
REMARK  status: ('A' for Active; 'I' for Inactive)
REMARK    1  A    between atoms: C_1  and  O_2
REMARK    2  A    between atoms: O_2  and  C_3
REMARK    3  A    between atoms: C_3  and  C_4
REMARK    4  A    between atoms: C_4  and  O_5
REMARK                            x       y       z     vdW  Elec       q    Type
REMARK                         _______ _______ _______ _____ _____    ______ ____
ROOT
ATOM      1  C   UNL     1       6.335  -5.480  27.904  0.00  0.00    +0.187 C 
ENDROOT
BRANCH   1   3
ATOM      2  C   UNL     1       8.244  -4.821  26.687  0.00  0.00    +0.194 C 
ATOM      3  O   UNL     1       7.528  -5.918  27.242  0.00  0.00    -0.381 OA
ENDBRANCH   1   3
BRANCH   1   4
ATOM      4  C   UNL     1       5.230  -6.489  27.609  0.00  0.00    +0.184 C 
BRANCH   4   5
ATOM      5  O   UNL     1       5.370  -7.624  28.462  0.00  0.00    -0.393 OA
ATOM      6  H   UNL     1       4.935  -8.356  27.983  0.00  0.00    +0.209 HD
ENDBRANCH   4   5
ENDBRANCH   1   4
TORSDOF 3
ENDMDL
