MODEL 1
REMARK VINA RESULT:      -6.5      0.000      0.000
REMARK  Name = 
REMARK  8 active torsions:
REMARK  status: ('A' for Active; 'I' for Inactive)
REMARK    1  A    between atoms: C_1  and  C_2
REMARK    2  A    between atoms: C_2  and  O_4
REMARK    3  A    between atoms: C_2  and  C_5
REMARK    4  A    between atoms: C_5  and  N_7
REMARK    5  A    between atoms: C_5  and  C_8
REMARK    6  A    between atoms: C_11  and  C_12
REMARK    7  A    between atoms: N_23  and  C_24
REMARK    8  A    between atoms: C_24  and  C_25
REMARK                            x       y       z     vdW  Elec       q    Type
REMARK                         _______ _______ _______ _____ _____    ______ ____
ROOT
ATOM      1  C   UNL     1       8.510  -0.216  24.438  0.00  0.00    +0.317 C 
ATOM      2  N   UNL     1       9.557  -0.209  23.585  0.00  0.00    -0.145 N 
ATOM      3  C   UNL     1       9.809  -1.503  23.212  0.00  0.00    +0.379 C 
ATOM      4  O   UNL     1      10.668  -1.935  22.467  0.00  0.00    -0.237 OA
ATOM      5  C   UNL     1       8.860  -2.276  24.062  0.00  0.00    +0.263 C 
ATOM      6  C   UNL     1       8.943  -3.606  24.220  0.00  0.00    +0.073 C 
ATOM      7  N   UNL     1       8.057  -1.394  24.749  0.00  0.00    -0.037 NA
ENDROOT
BRANCH   6   8
ATOM      8  C   UNL     1       8.269  -4.382  25.220  0.00  0.00    +0.004 A 
ATOM      9  C   UNL     1       6.929  -4.882  25.198  0.00  0.00    +0.007 A 
ATOM     10  C   UNL     1       6.757  -5.640  26.360  0.00  0.00    +0.047 A 
ATOM     11  C   UNL     1       5.556  -6.283  26.682  0.00  0.00    +0.026 A 
ATOM     12  C   UNL     1       4.489  -6.147  25.792  0.00  0.00    +0.002 A 
ATOM     13  C   UNL     1       4.624  -5.401  24.624  0.00  0.00    +0.001 A 
ATOM     14  N   UNL     1       7.945  -5.611  27.049  0.00  0.00    -0.360 N 
ATOM     15  H   UNL     1       8.113  -6.082  27.926  0.00  0.00    +0.165 HD
ATOM     16  C   UNL     1       5.836  -4.768  24.312  0.00  0.00    +0.010 A 
ATOM     17  C   UNL     1       8.866  -4.866  26.366  0.00  0.00    +0.091 A 
ENDBRANCH   6   8
BRANCH   1  18
ATOM     18  C   UNL     1       7.891   1.025  25.078  0.00  0.00    +0.197 C 
BRANCH  18  19
ATOM     19  N   UNL     1       7.792   0.859  26.549  0.00  0.00    -0.316 NA
ATOM     20  H   UNL     1       8.522   0.200  26.847  0.00  0.00    +0.119 HD
ATOM     21  H   UNL     1       8.079   1.745  26.978  0.00  0.00    +0.119 HD
ENDBRANCH  18  19
BRANCH  18  23
ATOM     22  C   UNL     1       5.344   0.956  25.371  0.00  0.00    +0.040 C 
ATOM     23  C   UNL     1       6.509   1.345  24.469  0.00  0.00    +0.140 C 
BRANCH  23  24
ATOM     24  O   UNL     1       6.352   0.631  23.235  0.00  0.00    -0.390 OA
ATOM     25  H   UNL     1       7.158   0.096  23.127  0.00  0.00    +0.210 HD
ENDBRANCH  23  24
ENDBRANCH  18  23
ENDBRANCH   1  18
BRANCH   2  26
ATOM     26  C   UNL     1      10.423   0.887  23.196  0.00  0.00    +0.306 C 
BRANCH  26  27
ATOM     27  C   UNL     1       9.924   1.671  22.002  0.00  0.00    +0.267 C 
ATOM     28  O   UNL     1       8.765   1.690  21.602  0.00  0.00    -0.297 OA
ENDBRANCH  26  27
ENDBRANCH   2  26
TORSDOF 7
ENDMDL
MODEL 2
REMARK VINA RESULT:      -6.3      1.816      2.327
REMARK  Name = 
REMARK  8 active torsions:
REMARK  status: ('A' for Active; 'I' for Inactive)
REMARK    1  A    between atoms: C_1  and  C_2
REMARK    2  A    between atoms: C_2  and  O_4
REMARK    3  A    between atoms: C_2  and  C_5
REMARK    4  A    between atoms: C_5  and  N_7
REMARK    5  A    between atoms: C_5  and  C_8
REMARK    6  A    between atoms: C_11  and  C_12
REMARK    7  A    between atoms: N_23  and  C_24
REMARK    8  A    between atoms: C_24  and  C_25
REMARK                            x       y       z     vdW  Elec       q    Type
REMARK                         _______ _______ _______ _____ _____    ______ ____
ROOT
ATOM      1  C   UNL     1       7.466  -0.650  23.739  0.00  0.00    +0.317 C 
ATOM      2  N   UNL     1       8.789  -0.547  23.489  0.00  0.00    -0.145 N 
ATOM      3  C   UNL     1       9.176  -1.657  22.786  0.00  0.00    +0.379 C 
ATOM      4  O   UNL     1      10.279  -1.960  22.373  0.00  0.00    -0.237 OA
ATOM      5  C   UNL     1       7.936  -2.482  22.775  0.00  0.00    +0.263 C 
ATOM      6  C   UNL     1       7.926  -3.776  22.420  0.00  0.00    +0.073 C 
ATOM      7  N   UNL     1       6.911  -1.756  23.340  0.00  0.00    -0.037 NA
ENDROOT
BRANCH   6   8
ATOM      8  C   UNL     1       6.860  -4.708  22.647  0.00  0.00    +0.004 A 
ATOM      9  C   UNL     1       6.386  -5.222  23.895  0.00  0.00    +0.007 A 
ATOM     10  C   UNL     1       5.287  -6.038  23.609  0.00  0.00    +0.047 A 
ATOM     11  C   UNL     1       4.565  -6.722  24.594  0.00  0.00    +0.026 A 
ATOM     12  C   UNL     1       4.979  -6.574  25.920  0.00  0.00    +0.002 A 
ATOM     13  C   UNL     1       6.068  -5.768  26.243  0.00  0.00    +0.001 A 
ATOM     14  N   UNL     1       5.097  -6.008  22.248  0.00  0.00    -0.360 N 
ATOM     15  H   UNL     1       4.364  -6.502  21.759  0.00  0.00    +0.165 HD
ATOM     16  C   UNL     1       6.776  -5.085  25.244  0.00  0.00    +0.010 A 
ATOM     17  C   UNL     1       6.030  -5.201  21.661  0.00  0.00    +0.091 A 
ENDBRANCH   6   8
BRANCH   1  18
ATOM     18  C   UNL     1       6.629   0.388  24.483  0.00  0.00    +0.197 C 
BRANCH  18  19
ATOM     19  N   UNL     1       5.328  -0.191  24.901  0.00  0.00    -0.316 NA
ATOM     20  H   UNL     1       5.400  -0.456  25.891  0.00  0.00    +0.119 HD
ATOM     21  H   UNL     1       4.641   0.571  24.906  0.00  0.00    +0.119 HD
ENDBRANCH  18  19
BRANCH  18  23
ATOM     22  C   UNL     1       5.118   2.391  23.953  0.00  0.00    +0.040 C 
ATOM     23  C   UNL     1       6.415   1.659  23.632  0.00  0.00    +0.140 C 
BRANCH  23  24
ATOM     24  O   UNL     1       6.373   1.303  22.243  0.00  0.00    -0.390 OA
ATOM     25  H   UNL     1       5.807   0.513  22.183  0.00  0.00    +0.210 HD
ENDBRANCH  23  24
ENDBRANCH  18  23
ENDBRANCH   1  18
BRANCH   2  26
ATOM     26  C   UNL     1       9.744   0.434  23.968  0.00  0.00    +0.306 C 
BRANCH  26  27
ATOM     27  C   UNL     1      10.063   1.522  22.965  0.00  0.00    +0.267 C 
ATOM     28  O   UNL     1       9.502   1.676  21.886  0.00  0.00    -0.297 OA
ENDBRANCH  26  27
ENDBRANCH   2  26
TORSDOF 7
ENDMDL
MODEL 3
REMARK VINA RESULT:      -6.3      2.720      6.564
REMARK  Name = 
REMARK  8 active torsions:
REMARK  status: ('A' for Active; 'I' for Inactive)
REMARK    1  A    between atoms: C_1  and  C_2
REMARK    2  A    between atoms: C_2  and  O_4
REMARK    3  A    between atoms: C_2  and  C_5
REMARK    4  A    between atoms: C_5  and  N_7
REMARK    5  A    between atoms: C_5  and  C_8
REMARK    6  A    between atoms: C_11  and  C_12
REMARK    7  A    between atoms: N_23  and  C_24
REMARK    8  A    between atoms: C_24  and  C_25
REMARK                            x       y       z     vdW  Elec       q    Type
REMARK                         _______ _______ _______ _____ _____    ______ ____
ROOT
ATOM      1  C   UNL     1       6.523  -3.243  25.591  0.00  0.00    +0.317 C 
ATOM      2  N   UNL     1       7.136  -4.388  25.960  0.00  0.00    -0.145 N 
ATOM      3  C   UNL     1       8.456  -4.298  25.604  0.00  0.00    +0.379 C 
ATOM      4  O   UNL     1       9.348  -5.111  25.747  0.00  0.00    -0.237 OA
ATOM      5  C   UNL     1       8.502  -3.008  24.859  0.00  0.00    +0.263 C 
ATOM      6  C   UNL     1       9.547  -2.644  24.100  0.00  0.00    +0.073 C 
ATOM      7  N   UNL     1       7.272  -2.396  24.948  0.00  0.00    -0.037 NA
ENDROOT
BRANCH   6   8
ATOM      8  C   UNL     1       9.564  -1.580  23.139  0.00  0.00    +0.004 A 
ATOM      9  C   UNL     1       9.875  -0.200  23.353  0.00  0.00    +0.007 A 
ATOM     10  C   UNL     1       9.828   0.427  22.104  0.00  0.00    +0.047 A 
ATOM     11  C   UNL     1      10.074   1.793  21.925  0.00  0.00    +0.026 A 
ATOM     12  C   UNL     1      10.374   2.552  23.058  0.00  0.00    +0.002 A 
ATOM     13  C   UNL     1      10.432   1.962  24.318  0.00  0.00    +0.001 A 
ATOM     14  N   UNL     1       9.515  -0.535  21.173  0.00  0.00    -0.360 N 
ATOM     15  H   UNL     1       9.422  -0.366  20.182  0.00  0.00    +0.165 HD
ATOM     16  C   UNL     1      10.189   0.590  24.480  0.00  0.00    +0.010 A 
ATOM     17  C   UNL     1       9.366  -1.748  21.784  0.00  0.00    +0.091 A 
ENDBRANCH   6   8
BRANCH   1  18
ATOM     18  C   UNL     1       5.048  -2.923  25.821  0.00  0.00    +0.197 C 
BRANCH  18  19
ATOM     19  N   UNL     1       4.282  -3.046  24.556  0.00  0.00    -0.316 NA
ATOM     20  H   UNL     1       3.908  -2.119  24.317  0.00  0.00    +0.119 HD
ATOM     21  H   UNL     1       4.956  -3.232  23.805  0.00  0.00    +0.119 HD
ENDBRANCH  18  19
BRANCH  18  23
ATOM     22  C   UNL     1       3.521  -1.335  27.134  0.00  0.00    +0.040 C 
ATOM     23  C   UNL     1       4.863  -1.519  26.437  0.00  0.00    +0.140 C 
BRANCH  23  24
ATOM     24  O   UNL     1       4.948  -0.528  25.404  0.00  0.00    -0.390 OA
ATOM     25  H   UNL     1       5.364  -0.967  24.641  0.00  0.00    +0.210 HD
ENDBRANCH  23  24
ENDBRANCH  18  23
ENDBRANCH   1  18
BRANCH   2  26
ATOM     26  C   UNL     1       6.564  -5.609  26.496  0.00  0.00    +0.306 C 
BRANCH  26  27
ATOM     27  C   UNL     1       6.438  -5.619  28.004  0.00  0.00    +0.267 C 
ATOM     28  O   UNL     1       6.914  -6.468  28.748  0.00  0.00    -0.297 OA
ENDBRANCH  26  27
ENDBRANCH   2  26
TORSDOF 7
ENDMDL
MODEL 4
REMARK VINA RESULT:      -6.1      2.779      6.733
REMARK  Name = 
REMARK  8 active torsions:
REMARK  status: ('A' for Active; 'I' for Inactive)
REMARK    1  A    between atoms: C_1  and  C_2
REMARK    2  A    between atoms: C_2  and  O_4
REMARK    3  A    between atoms: C_2  and  C_5
REMARK    4  A    between atoms: C_5  and  N_7
REMARK    5  A    between atoms: C_5  and  C_8
REMARK    6  A    between atoms: C_11  and  C_12
REMARK    7  A    between atoms: N_23  and  C_24
REMARK    8  A    between atoms: C_24  and  C_25
REMARK                            x       y       z     vdW  Elec       q    Type
REMARK                         _______ _______ _______ _____ _____    ______ ____
ROOT
ATOM      1  C   UNL     1       6.547  -4.488  25.356  0.00  0.00    +0.317 C 
ATOM      2  N   UNL     1       6.337  -5.117  24.180  0.00  0.00    -0.145 N 
ATOM      3  C   UNL     1       7.261  -4.655  23.280  0.00  0.00    +0.379 C 
ATOM      4  O   UNL     1       7.413  -4.955  22.112  0.00  0.00    -0.237 OA
ATOM      5  C   UNL     1       7.949  -3.578  24.047  0.00  0.00    +0.263 C 
ATOM      6  C   UNL     1       8.755  -2.674  23.468  0.00  0.00    +0.073 C 
ATOM      7  N   UNL     1       7.480  -3.582  25.341  0.00  0.00    -0.037 NA
ENDROOT
BRANCH   6   8
ATOM      8  C   UNL     1       9.222  -1.456  24.062  0.00  0.00    +0.004 A 
ATOM      9  C   UNL     1       9.527  -0.217  23.414  0.00  0.00    +0.007 A 
ATOM     10  C   UNL     1       9.873   0.694  24.418  0.00  0.00    +0.047 A 
ATOM     11  C   UNL     1      10.242   2.018  24.154  0.00  0.00    +0.026 A 
ATOM     12  C   UNL     1      10.263   2.432  22.821  0.00  0.00    +0.002 A 
ATOM     13  C   UNL     1       9.923   1.554  21.795  0.00  0.00    +0.001 A 
ATOM     14  N   UNL     1       9.771   0.037  25.621  0.00  0.00    -0.360 N 
ATOM     15  H   UNL     1       9.955   0.455  26.521  0.00  0.00    +0.165 HD
ATOM     16  C   UNL     1       9.549   0.232  22.076  0.00  0.00    +0.010 A 
ATOM     17  C   UNL     1       9.368  -1.253  25.419  0.00  0.00    +0.091 A 
ENDBRANCH   6   8
BRANCH   1  18
ATOM     18  C   UNL     1       5.746  -4.725  26.634  0.00  0.00    +0.197 C 
BRANCH  18  19
ATOM     19  N   UNL     1       5.651  -3.477  27.432  0.00  0.00    -0.316 NA
ATOM     20  H   UNL     1       6.596  -3.079  27.516  0.00  0.00    +0.119 HD
ATOM     21  H   UNL     1       5.150  -2.787  26.863  0.00  0.00    +0.119 HD
ENDBRANCH  18  19
BRANCH  18  23
ATOM     22  C   UNL     1       5.876  -5.872  28.925  0.00  0.00    +0.040 C 
ATOM     23  C   UNL     1       6.352  -5.868  27.478  0.00  0.00    +0.140 C 
BRANCH  23  24
ATOM     24  O   UNL     1       7.781  -5.743  27.497  0.00  0.00    -0.390 OA
ATOM     25  H   UNL     1       8.068  -5.773  26.568  0.00  0.00    +0.210 HD
ENDBRANCH  23  24
ENDBRANCH  18  23
ENDBRANCH   1  18
BRANCH   2  26
ATOM     26  C   UNL     1       5.264  -6.012  23.792  0.00  0.00    +0.306 C 
BRANCH  26  27
ATOM     27  C   UNL     1       3.978  -5.305  23.424  0.00  0.00    +0.267 C 
ATOM     28  O   UNL     1       3.088  -5.775  22.723  0.00  0.00    -0.297 OA
ENDBRANCH  26  27
ENDBRANCH   2  26
TORSDOF 7
ENDMDL
MODEL 5
REMARK VINA RESULT:      -5.8      1.999      2.610
REMARK  Name = 
REMARK  8 active torsions:
REMARK  status: ('A' for Active; 'I' for Inactive)
REMARK    1  A    between atoms: C_1  and  C_2
REMARK    2  A    between atoms: C_2  and  O_4
REMARK    3  A    between atoms: C_2  and  C_5
REMARK    4  A    between atoms: C_5  and  N_7
REMARK    5  A    between atoms: C_5  and  C_8
REMARK    6  A    between atoms: C_11  and  C_12
REMARK    7  A    between atoms: N_23  and  C_24
REMARK    8  A    between atoms: C_24  and  C_25
REMARK                            x       y       z     vdW  Elec       q    Type
REMARK                         _______ _______ _______ _____ _____    ______ ____
ROOT
ATOM      1  C   UNL     1       7.845  -0.134  22.826  0.00  0.00    +0.317 C 
ATOM      2  N   UNL     1       9.190  -0.174  22.717  0.00  0.00    -0.145 N 
ATOM      3  C   UNL     1       9.555  -1.464  22.434  0.00  0.00    +0.379 C 
ATOM      4  O   UNL     1      10.666  -1.929  22.267  0.00  0.00    -0.237 OA
ATOM      5  C   UNL     1       8.259  -2.194  22.525  0.00  0.00    +0.263 C 
ATOM      6  C   UNL     1       8.181  -3.533  22.578  0.00  0.00    +0.073 C 
ATOM      7  N   UNL     1       7.246  -1.283  22.717  0.00  0.00    -0.037 NA
ENDROOT
BRANCH   6   8
ATOM      8  C   UNL     1       7.027  -4.298  22.947  0.00  0.00    +0.004 A 
ATOM      9  C   UNL     1       6.694  -4.834  24.231  0.00  0.00    +0.007 A 
ATOM     10  C   UNL     1       5.439  -5.437  24.109  0.00  0.00    +0.047 A 
ATOM     11  C   UNL     1       4.792  -6.078  25.172  0.00  0.00    +0.026 A 
ATOM     12  C   UNL     1       5.447  -6.111  26.405  0.00  0.00    +0.002 A 
ATOM     13  C   UNL     1       6.697  -5.519  26.565  0.00  0.00    +0.001 A 
ATOM     14  N   UNL     1       5.024  -5.263  22.810  0.00  0.00    -0.360 N 
ATOM     15  H   UNL     1       4.145  -5.591  22.439  0.00  0.00    +0.165 HD
ATOM     16  C   UNL     1       7.329  -4.875  25.491  0.00  0.00    +0.010 A 
ATOM     17  C   UNL     1       5.967  -4.568  22.106  0.00  0.00    +0.091 A 
ENDBRANCH   6   8
BRANCH   1  18
ATOM     18  C   UNL     1       7.024   1.120  23.117  0.00  0.00    +0.197 C 
BRANCH  18  19
ATOM     19  N   UNL     1       7.592   2.293  22.408  0.00  0.00    -0.316 NA
ATOM     20  H   UNL     1       6.825   2.946  22.205  0.00  0.00    +0.119 HD
ATOM     21  H   UNL     1       8.173   2.807  23.080  0.00  0.00    +0.119 HD
ENDBRANCH  18  19
BRANCH  18  23
ATOM     22  C   UNL     1       7.725   2.611  25.084  0.00  0.00    +0.040 C 
ATOM     23  C   UNL     1       6.927   1.393  24.635  0.00  0.00    +0.140 C 
BRANCH  23  24
ATOM     24  O   UNL     1       7.430   0.261  25.358  0.00  0.00    -0.390 OA
ATOM     25  H   UNL     1       6.661  -0.307  25.540  0.00  0.00    +0.210 HD
ENDBRANCH  23  24
ENDBRANCH  18  23
ENDBRANCH   1  18
BRANCH   2  26
ATOM     26  C   UNL     1      10.168   0.862  22.988  0.00  0.00    +0.306 C 
BRANCH  26  27
ATOM     27  C   UNL     1      10.849   0.728  24.333  0.00  0.00    +0.267 C 
ATOM     28  O   UNL     1      10.358   0.200  25.325  0.00  0.00    -0.297 OA
ENDBRANCH  26  27
ENDBRANCH   2  26
TORSDOF 7
ENDMDL
MODEL 6
REMARK VINA RESULT:      -5.8      2.443      6.553
REMARK  Name = 
REMARK  8 active torsions:
REMARK  status: ('A' for Active; 'I' for Inactive)
REMARK    1  A    between atoms: C_1  and  C_2
REMARK    2  A    between atoms: C_2  and  O_4
REMARK    3  A    between atoms: C_2  and  C_5
REMARK    4  A    between atoms: C_5  and  N_7
REMARK    5  A    between atoms: C_5  and  C_8
REMARK    6  A    between atoms: C_11  and  C_12
REMARK    7  A    between atoms: N_23  and  C_24
REMARK    8  A    between atoms: C_24  and  C_25
REMARK                            x       y       z     vdW  Elec       q    Type
REMARK                         _______ _______ _______ _____ _____    ______ ____
ROOT
ATOM      1  C   UNL     1       8.275  -1.198  24.799  0.00  0.00    +0.317 C 
ATOM      2  N   UNL     1       8.830  -2.124  23.987  0.00  0.00    -0.145 N 
ATOM      3  C   UNL     1       9.792  -1.506  23.233  0.00  0.00    +0.379 C 
ATOM      4  O   UNL     1      10.517  -1.975  22.377  0.00  0.00    -0.237 OA
ATOM      5  C   UNL     1       9.633  -0.074  23.615  0.00  0.00    +0.263 C 
ATOM      6  C   UNL     1      10.196   0.930  22.925  0.00  0.00    +0.073 C 
ATOM      7  N   UNL     1       8.708   0.017  24.631  0.00  0.00    -0.037 NA
ENDROOT
BRANCH   6   8
ATOM      8  C   UNL     1       9.873   2.322  23.042  0.00  0.00    +0.004 A 
ATOM      9  C   UNL     1       8.614   2.960  22.813  0.00  0.00    +0.007 A 
ATOM     10  C   UNL     1       8.778   4.312  23.127  0.00  0.00    +0.047 A 
ATOM     11  C   UNL     1       7.749   5.254  23.014  0.00  0.00    +0.026 A 
ATOM     12  C   UNL     1       6.506   4.805  22.563  0.00  0.00    +0.002 A 
ATOM     13  C   UNL     1       6.304   3.465  22.243  0.00  0.00    +0.001 A 
ATOM     14  N   UNL     1      10.078   4.483  23.539  0.00  0.00    -0.360 N 
ATOM     15  H   UNL     1      10.475   5.362  23.837  0.00  0.00    +0.165 HD
ATOM     16  C   UNL     1       7.344   2.533  22.366  0.00  0.00    +0.010 A 
ATOM     17  C   UNL     1      10.742   3.289  23.504  0.00  0.00    +0.091 A 
ENDBRANCH   6   8
BRANCH   1  18
ATOM     18  C   UNL     1       7.172  -1.471  25.819  0.00  0.00    +0.197 C 
BRANCH  18  19
ATOM     19  N   UNL     1       7.326  -2.826  26.405  0.00  0.00    -0.316 NA
ATOM     20  H   UNL     1       8.275  -2.899  26.795  0.00  0.00    +0.119 HD
ATOM     21  H   UNL     1       6.723  -2.872  27.233  0.00  0.00    +0.119 HD
ENDBRANCH  18  19
BRANCH  18  23
ATOM     22  C   UNL     1       4.995  -2.609  25.082  0.00  0.00    +0.040 C 
ATOM     23  C   UNL     1       5.770  -1.303  25.194  0.00  0.00    +0.140 C 
BRANCH  23  24
ATOM     24  O   UNL     1       5.897  -0.766  23.870  0.00  0.00    -0.390 OA
ATOM     25  H   UNL     1       6.836  -0.537  23.760  0.00  0.00    +0.210 HD
ENDBRANCH  23  24
ENDBRANCH  18  23
ENDBRANCH   1  18
BRANCH   2  26
ATOM     26  C   UNL     1       8.444  -3.503  23.764  0.00  0.00    +0.306 C 
BRANCH  26  27
ATOM     27  C   UNL     1       7.568  -3.708  22.547  0.00  0.00    +0.267 C 
ATOM     28  O   UNL     1       6.782  -2.883  22.095  0.00  0.00    -0.297 OA
ENDBRANCH  26  27
ENDBRANCH   2  26
TORSDOF 7
ENDMDL
MODEL 7
REMARK VINA RESULT:      -5.7      2.611      4.446
REMARK  Name = 
REMARK  8 active torsions:
REMARK  status: ('A' for Active; 'I' for Inactive)
REMARK    1  A    between atoms: C_1  and  C_2
REMARK    2  A    between atoms: C_2  and  O_4
REMARK    3  A    between atoms: C_2  and  C_5
REMARK    4  A    between atoms: C_5  and  N_7
REMARK    5  A    between atoms: C_5  and  C_8
REMARK    6  A    between atoms: C_11  and  C_12
REMARK    7  A    between atoms: N_23  and  C_24
REMARK    8  A    between atoms: C_24  and  C_25
REMARK                            x       y       z     vdW  Elec       q    Type
REMARK                         _______ _______ _______ _____ _____    ______ ____
ROOT
ATOM      1  C   UNL     1       7.916   1.916  23.327  0.00  0.00    +0.317 C 
ATOM      2  N   UNL     1       6.729   2.502  23.592  0.00  0.00    -0.145 N 
ATOM      3  C   UNL     1       5.899   1.555  24.131  0.00  0.00    +0.379 C 
ATOM      4  O   UNL     1       4.746   1.663  24.500  0.00  0.00    -0.237 OA
ATOM      5  C   UNL     1       6.713   0.311  24.020  0.00  0.00    +0.263 C 
ATOM      6  C   UNL     1       6.194  -0.915  24.188  0.00  0.00    +0.073 C 
ATOM      7  N   UNL     1       7.969   0.638  23.562  0.00  0.00    -0.037 NA
ENDROOT
BRANCH   6   8
ATOM      8  C   UNL     1       6.818  -2.154  23.828  0.00  0.00    +0.004 A 
ATOM      9  C   UNL     1       7.574  -3.039  24.660  0.00  0.00    +0.007 A 
ATOM     10  C   UNL     1       7.911  -4.147  23.877  0.00  0.00    +0.047 A 
ATOM     11  C   UNL     1       8.664  -5.224  24.360  0.00  0.00    +0.026 A 
ATOM     12  C   UNL     1       9.092  -5.172  25.688  0.00  0.00    +0.002 A 
ATOM     13  C   UNL     1       8.773  -4.085  26.499  0.00  0.00    +0.001 A 
ATOM     14  N   UNL     1       7.372  -3.947  22.628  0.00  0.00    -0.360 N 
ATOM     15  H   UNL     1       7.452  -4.595  21.858  0.00  0.00    +0.165 HD
ATOM     16  C   UNL     1       8.014  -3.016  26.001  0.00  0.00    +0.010 A 
ATOM     17  C   UNL     1       6.702  -2.757  22.592  0.00  0.00    +0.091 A 
ENDBRANCH   6   8
BRANCH   1  18
ATOM     18  C   UNL     1       9.133   2.625  22.735  0.00  0.00    +0.197 C 
BRANCH  18  19
ATOM     19  N   UNL     1       9.652   1.880  21.561  0.00  0.00    -0.316 NA
ATOM     20  H   UNL     1       9.690   2.528  20.763  0.00  0.00    +0.119 HD
ATOM     21  H   UNL     1      10.638   1.668  21.744  0.00  0.00    +0.119 HD
ENDBRANCH  18  19
BRANCH  18  23
ATOM     22  C   UNL     1      11.329   3.796  23.353  0.00  0.00    +0.040 C 
ATOM     23  C   UNL     1      10.242   2.823  23.791  0.00  0.00    +0.140 C 
BRANCH  23  24
ATOM     24  O   UNL     1      10.876   1.566  24.061  0.00  0.00    -0.390 OA
ATOM     25  H   UNL     1      10.267   1.074  24.640  0.00  0.00    +0.210 HD
ENDBRANCH  23  24
ENDBRANCH  18  23
ENDBRANCH   1  18
BRANCH   2  26
ATOM     26  C   UNL     1       6.264   3.835  23.260  0.00  0.00    +0.306 C 
BRANCH  26  27
ATOM     27  C   UNL     1       6.556   4.871  24.325  0.00  0.00    +0.267 C 
ATOM     28  O   UNL     1       7.303   4.708  25.284  0.00  0.00    -0.297 OA
ENDBRANCH  26  27
ENDBRANCH   2  26
TORSDOF 7
ENDMDL
MODEL 8
REMARK VINA RESULT:      -5.6      2.162      3.618
REMARK  Name = 
REMARK  8 active torsions:
REMARK  status: ('A' for Active; 'I' for Inactive)
REMARK    1  A    between atoms: C_1  and  C_2
REMARK    2  A    between atoms: C_2  and  O_4
REMARK    3  A    between atoms: C_2  and  C_5
REMARK    4  A    between atoms: C_5  and  N_7
REMARK    5  A    between atoms: C_5  and  C_8
REMARK    6  A    between atoms: C_11  and  C_12
REMARK    7  A    between atoms: N_23  and  C_24
REMARK    8  A    between atoms: C_24  and  C_25
REMARK                            x       y       z     vdW  Elec       q    Type
REMARK                         _______ _______ _______ _____ _____    ______ ____
ROOT
ATOM      1  C   UNL     1       7.862   0.551  22.777  0.00  0.00    +0.317 C 
ATOM      2  N   UNL     1       6.964   1.559  22.814  0.00  0.00    -0.145 N 
ATOM      3  C   UNL     1       6.116   1.335  23.867  0.00  0.00    +0.379 C 
ATOM      4  O   UNL     1       5.167   1.994  24.244  0.00  0.00    -0.237 OA
ATOM      5  C   UNL     1       6.555  -0.003  24.356  0.00  0.00    +0.263 C 
ATOM      6  C   UNL     1       5.831  -0.736  25.215  0.00  0.00    +0.073 C 
ATOM      7  N   UNL     1       7.677  -0.388  23.658  0.00  0.00    -0.037 NA
ENDROOT
BRANCH   6   8
ATOM      8  C   UNL     1       6.025  -2.125  25.514  0.00  0.00    +0.004 A 
ATOM      9  C   UNL     1       5.645  -3.260  24.731  0.00  0.00    +0.007 A 
ATOM     10  C   UNL     1       6.113  -4.394  25.402  0.00  0.00    +0.047 A 
ATOM     11  C   UNL     1       5.916  -5.697  24.930  0.00  0.00    +0.026 A 
ATOM     12  C   UNL     1       5.214  -5.854  23.732  0.00  0.00    +0.002 A 
ATOM     13  C   UNL     1       4.735  -4.747  23.035  0.00  0.00    +0.001 A 
ATOM     14  N   UNL     1       6.759  -3.963  26.535  0.00  0.00    -0.360 N 
ATOM     15  H   UNL     1       7.205  -4.570  27.208  0.00  0.00    +0.165 HD
ATOM     16  C   UNL     1       4.946  -3.448  23.519  0.00  0.00    +0.010 A 
ATOM     17  C   UNL     1       6.723  -2.599  26.606  0.00  0.00    +0.091 A 
ENDBRANCH   6   8
BRANCH   1  18
ATOM     18  C   UNL     1       8.999   0.425  21.766  0.00  0.00    +0.197 C 
BRANCH  18  19
ATOM     19  N   UNL     1       9.292  -1.002  21.484  0.00  0.00    -0.316 NA
ATOM     20  H   UNL     1      10.250  -1.065  21.116  0.00  0.00    +0.119 HD
ATOM     21  H   UNL     1       9.349  -1.488  22.385  0.00  0.00    +0.119 HD
ENDBRANCH  18  19
BRANCH  18  23
ATOM     22  C   UNL     1      10.321   1.351  23.759  0.00  0.00    +0.040 C 
ATOM     23  C   UNL     1      10.269   1.159  22.248  0.00  0.00    +0.140 C 
BRANCH  23  24
ATOM     24  O   UNL     1      10.327   2.460  21.649  0.00  0.00    -0.390 OA
ATOM     25  H   UNL     1      10.112   2.335  20.707  0.00  0.00    +0.210 HD
ENDBRANCH  23  24
ENDBRANCH  18  23
ENDBRANCH   1  18
BRANCH   2  26
ATOM     26  C   UNL     1       6.750   2.638  21.869  0.00  0.00    +0.306 C 
BRANCH  26  27
ATOM     27  C   UNL     1       7.350   3.959  22.299  0.00  0.00    +0.267 C 
ATOM     28  O   UNL     1       8.241   4.095  23.130  0.00  0.00    -0.297 OA
ENDBRANCH  26  27
ENDBRANCH   2  26
TORSDOF 7
ENDMDL
MODEL 9
REMARK VINA RESULT:      -5.5      2.946      7.142
REMARK  Name = 
REMARK  8 active torsions:
REMARK  status: ('A' for Active; 'I' for Inactive)
REMARK    1  A    between atoms: C_1  and  C_2
REMARK    2  A    between atoms: C_2  and  O_4
REMARK    3  A    between atoms: C_2  and  C_5
REMARK    4  A    between atoms: C_5  and  N_7
REMARK    5  A    between atoms: C_5  and  C_8
REMARK    6  A    between atoms: C_11  and  C_12
REMARK    7  A    between atoms: N_23  and  C_24
REMARK    8  A    between atoms: C_24  and  C_25
REMARK                            x       y       z     vdW  Elec       q    Type
REMARK                         _______ _______ _______ _____ _____    ______ ____
ROOT
ATOM      1  C   UNL     1       6.220  -2.908  23.786  0.00  0.00    +0.317 C 
ATOM      2  N   UNL     1       5.850  -3.341  25.010  0.00  0.00    -0.145 N 
ATOM      3  C   UNL     1       6.324  -2.452  25.938  0.00  0.00    +0.379 C 
ATOM      4  O   UNL     1       6.220  -2.474  27.148  0.00  0.00    -0.237 OA
ATOM      5  C   UNL     1       7.133  -1.517  25.105  0.00  0.00    +0.263 C 
ATOM      6  C   UNL     1       7.996  -0.635  25.632  0.00  0.00    +0.073 C 
ATOM      7  N   UNL     1       6.966  -1.843  23.778  0.00  0.00    -0.037 NA
ENDROOT
BRANCH   6   8
ATOM      8  C   UNL     1       9.006   0.090  24.917  0.00  0.00    +0.004 A 
ATOM      9  C   UNL     1       9.069   1.495  24.659  0.00  0.00    +0.007 A 
ATOM     10  C   UNL     1      10.275   1.734  23.992  0.00  0.00    +0.047 A 
ATOM     11  C   UNL     1      10.677   3.006  23.570  0.00  0.00    +0.026 A 
ATOM     12  C   UNL     1       9.820   4.077  23.832  0.00  0.00    +0.002 A 
ATOM     13  C   UNL     1       8.611   3.878  24.495  0.00  0.00    +0.001 A 
ATOM     14  N   UNL     1      10.919   0.526  23.864  0.00  0.00    -0.360 N 
ATOM     15  H   UNL     1      11.820   0.399  23.427  0.00  0.00    +0.165 HD
ATOM     16  C   UNL     1       8.226   2.598  24.917  0.00  0.00    +0.010 A 
ATOM     17  C   UNL     1      10.170  -0.468  24.428  0.00  0.00    +0.091 A 
ENDBRANCH   6   8
BRANCH   1  18
ATOM     18  C   UNL     1       5.878  -3.600  22.469  0.00  0.00    +0.197 C 
BRANCH  18  19
ATOM     19  N   UNL     1       4.561  -4.276  22.560  0.00  0.00    -0.316 NA
ATOM     20  H   UNL     1       4.695  -5.175  23.040  0.00  0.00    +0.119 HD
ATOM     21  H   UNL     1       3.984  -3.739  23.216  0.00  0.00    +0.119 HD
ENDBRANCH  18  19
BRANCH  18  23
ATOM     22  C   UNL     1       6.470  -6.028  21.890  0.00  0.00    +0.040 C 
ATOM     23  C   UNL     1       6.979  -4.601  22.053  0.00  0.00    +0.140 C 
BRANCH  23  24
ATOM     24  O   UNL     1       8.007  -4.624  23.053  0.00  0.00    -0.390 OA
ATOM     25  H   UNL     1       7.964  -3.763  23.505  0.00  0.00    +0.210 HD
ENDBRANCH  23  24
ENDBRANCH  18  23
ENDBRANCH   1  18
BRANCH   2  26
ATOM     26  C   UNL     1       5.208  -4.584  25.393  0.00  0.00    +0.306 C 
BRANCH  26  27
ATOM     27  C   UNL     1       6.171  -5.660  25.844  0.00  0.00    +0.267 C 
ATOM     28  O   UNL     1       6.038  -6.354  26.846  0.00  0.00    -0.297 OA
ENDBRANCH  26  27
ENDBRANCH   2  26
TORSDOF 7
ENDMDL
