MODEL 1
REMARK VINA RESULT:      -4.9      0.000      0.000
REMARK  Name = 
REMARK  6 active torsions:
REMARK  status: ('A' for Active; 'I' for Inactive)
REMARK    1  A    between atoms: O_1  and  C_2
REMARK    2  A    between atoms: C_5  and  C_16
REMARK    3  A    between atoms: C_7  and  O_9
REMARK    4  A    between atoms: C_10  and  O_12
REMARK    5  A    between atoms: C_13  and  O_15
REMARK    6  A    between atoms: C_16  and  O_17
REMARK                            x       y       z     vdW  Elec       q    Type
REMARK                         _______ _______ _______ _____ _____    ______ ____
ROOT
ATOM      1  C   UNL     1       9.808   1.295  22.390  0.00  0.00    +0.280 C 
ATOM      2  C   UNL     1       8.869   1.813  23.504  0.00  0.00    +0.201 C 
ATOM      3  C   UNL     1       8.341   0.624  24.317  0.00  0.00    +0.179 C 
ATOM      4  C   UNL     1       7.689  -0.401  23.383  0.00  0.00    +0.185 C 
ATOM      5  C   UNL     1       8.646  -0.799  22.247  0.00  0.00    +0.260 C 
ATOM      6  O   UNL     1       9.177   0.329  21.547  0.00  0.00    -0.332 OA
ENDROOT
BRANCH   1   7
ATOM      7  O   UNL     1      10.258   2.347  21.546  0.00  0.00    -0.365 OA
ATOM      8  H   UNL     1      10.228   3.166  22.067  0.00  0.00    +0.213 HD
ENDBRANCH   1   7
BRANCH   2   9
ATOM      9  O   UNL     1       9.569   2.716  24.372  0.00  0.00    -0.384 OA
ATOM     10  H   UNL     1       8.889   3.336  24.708  0.00  0.00    +0.210 HD
ENDBRANCH   2   9
BRANCH   3  11
ATOM     11  O   UNL     1       9.452   0.080  25.047  0.00  0.00    -0.386 OA
ATOM     12  H   UNL     1       9.415   0.380  25.978  0.00  0.00    +0.210 HD
ENDBRANCH   3  11
BRANCH   4  13
ATOM     13  O   UNL     1       6.497   0.187  22.840  0.00  0.00    -0.386 OA
ATOM     14  H   UNL     1       6.489   1.136  23.060  0.00  0.00    +0.210 HD
ENDBRANCH   4  13
BRANCH   5  15
ATOM     15  C   UNL     1       9.739  -1.747  22.733  0.00  0.00    +0.337 C 
ATOM     16  O   UNL     1       9.651  -2.450  23.731  0.00  0.00    -0.248 OA
BRANCH  15  17
ATOM     17  O   UNL     1      10.822  -1.740  21.922  0.00  0.00    -0.479 OA
ATOM     18  H   UNL     1      11.150  -0.824  21.772  0.00  0.00    +0.295 HD
ENDBRANCH  15  17
ENDBRANCH   5  15
TORSDOF 6
ENDMDL
MODEL 2
REMARK VINA RESULT:      -4.9      4.472      6.111
REMARK  Name = 
REMARK  6 active torsions:
REMARK  status: ('A' for Active; 'I' for Inactive)
REMARK    1  A    between atoms: O_1  and  C_2
REMARK    2  A    between atoms: C_5  and  C_16
REMARK    3  A    between atoms: C_7  and  O_9
REMARK    4  A    between atoms: C_10  and  O_12
REMARK    5  A    between atoms: C_13  and  O_15
REMARK    6  A    between atoms: C_16  and  O_17
REMARK                            x       y       z     vdW  Elec       q    Type
REMARK                         _______ _______ _______ _____ _____    ______ ____
ROOT
ATOM      1  C   UNL     1       9.023  -5.356  25.132  0.00  0.00    +0.280 C 
ATOM      2  C   UNL     1       8.218  -4.848  26.350  0.00  0.00    +0.201 C 
ATOM      3  C   UNL     1       6.797  -4.482  25.903  0.00  0.00    +0.179 C 
ATOM      4  C   UNL     1       6.855  -3.487  24.739  0.00  0.00    +0.185 C 
ATOM      5  C   UNL     1       7.747  -4.016  23.604  0.00  0.00    +0.260 C 
ATOM      6  O   UNL     1       9.044  -4.413  24.057  0.00  0.00    -0.332 OA
ENDROOT
BRANCH   1   7
ATOM      7  O   UNL     1      10.378  -5.626  25.468  0.00  0.00    -0.365 OA
ATOM      8  H   UNL     1      10.856  -5.776  24.635  0.00  0.00    +0.213 HD
ENDBRANCH   1   7
BRANCH   2   9
ATOM      9  O   UNL     1       8.157  -5.857  27.368  0.00  0.00    -0.384 OA
ATOM     10  H   UNL     1       8.507  -6.672  26.952  0.00  0.00    +0.210 HD
ENDBRANCH   2   9
BRANCH   3  11
ATOM     11  O   UNL     1       6.132  -5.705  25.553  0.00  0.00    -0.386 OA
ATOM     12  H   UNL     1       6.669  -6.199  24.902  0.00  0.00    +0.210 HD
ENDBRANCH   3  11
BRANCH   4  13
ATOM     13  O   UNL     1       7.377  -2.246  25.239  0.00  0.00    -0.386 OA
ATOM     14  H   UNL     1       7.563  -1.659  24.485  0.00  0.00    +0.210 HD
ENDBRANCH   4  13
BRANCH   5  15
ATOM     15  C   UNL     1       7.051  -5.112  22.801  0.00  0.00    +0.337 C 
ATOM     16  O   UNL     1       7.626  -6.061  22.284  0.00  0.00    -0.248 OA
BRANCH  15  17
ATOM     17  O   UNL     1       5.712  -4.928  22.736  0.00  0.00    -0.479 OA
ATOM     18  H   UNL     1       5.491  -4.050  22.349  0.00  0.00    +0.295 HD
ENDBRANCH  15  17
ENDBRANCH   5  15
TORSDOF 6
ENDMDL
MODEL 3
REMARK VINA RESULT:      -4.8      1.386      2.968
REMARK  Name = 
REMARK  6 active torsions:
REMARK  status: ('A' for Active; 'I' for Inactive)
REMARK    1  A    between atoms: O_1  and  C_2
REMARK    2  A    between atoms: C_5  and  C_16
REMARK    3  A    between atoms: C_7  and  O_9
REMARK    4  A    between atoms: C_10  and  O_12
REMARK    5  A    between atoms: C_13  and  O_15
REMARK    6  A    between atoms: C_16  and  O_17
REMARK                            x       y       z     vdW  Elec       q    Type
REMARK                         _______ _______ _______ _____ _____    ______ ____
ROOT
ATOM      1  C   UNL     1      10.227   1.477  23.497  0.00  0.00    +0.280 C 
ATOM      2  C   UNL     1       9.844   1.156  22.035  0.00  0.00    +0.201 C 
ATOM      3  C   UNL     1       8.935  -0.080  22.007  0.00  0.00    +0.179 C 
ATOM      4  C   UNL     1       9.611  -1.243  22.741  0.00  0.00    +0.185 C 
ATOM      5  C   UNL     1      10.048  -0.823  24.154  0.00  0.00    +0.260 C 
ATOM      6  O   UNL     1      10.838   0.368  24.161  0.00  0.00    -0.332 OA
ENDROOT
BRANCH   1   7
ATOM      7  O   UNL     1      11.143   2.561  23.579  0.00  0.00    -0.365 OA
ATOM      8  H   UNL     1      11.897   2.343  23.007  0.00  0.00    +0.213 HD
ENDBRANCH   1   7
BRANCH   2   9
ATOM      9  O   UNL     1       9.162   2.268  21.437  0.00  0.00    -0.384 OA
ATOM     10  H   UNL     1       8.734   1.911  20.632  0.00  0.00    +0.210 HD
ENDBRANCH   2   9
BRANCH   3  11
ATOM     11  O   UNL     1       7.684   0.298  22.601  0.00  0.00    -0.386 OA
ATOM     12  H   UNL     1       7.624   1.274  22.654  0.00  0.00    +0.210 HD
ENDBRANCH   3  11
BRANCH   4  13
ATOM     13  O   UNL     1      10.752  -1.652  21.972  0.00  0.00    -0.386 OA
ATOM     14  H   UNL     1      10.721  -1.207  21.106  0.00  0.00    +0.210 HD
ENDBRANCH   4  13
BRANCH   5  15
ATOM     15  C   UNL     1       8.863  -0.739  25.113  0.00  0.00    +0.337 C 
ATOM     16  O   UNL     1       7.774  -1.259  24.913  0.00  0.00    -0.248 OA
BRANCH  15  17
ATOM     17  O   UNL     1       9.156  -0.032  26.229  0.00  0.00    -0.479 OA
ATOM     18  H   UNL     1       8.400   0.539  26.499  0.00  0.00    +0.295 HD
ENDBRANCH  15  17
ENDBRANCH   5  15
TORSDOF 6
ENDMDL
MODEL 4
REMARK VINA RESULT:      -4.8      1.376      2.935
REMARK  Name = 
REMARK  6 active torsions:
REMARK  status: ('A' for Active; 'I' for Inactive)
REMARK    1  A    between atoms: O_1  and  C_2
REMARK    2  A    between atoms: C_5  and  C_16
REMARK    3  A    between atoms: C_7  and  O_9
REMARK    4  A    between atoms: C_10  and  O_12
REMARK    5  A    between atoms: C_13  and  O_15
REMARK    6  A    between atoms: C_16  and  O_17
REMARK                            x       y       z     vdW  Elec       q    Type
REMARK                         _______ _______ _______ _____ _____    ______ ____
ROOT
ATOM      1  C   UNL     1       7.660   0.039  22.800  0.00  0.00    +0.280 C 
ATOM      2  C   UNL     1       8.865   0.929  22.418  0.00  0.00    +0.201 C 
ATOM      3  C   UNL     1      10.167   0.164  22.690  0.00  0.00    +0.179 C 
ATOM      4  C   UNL     1      10.193  -0.326  24.142  0.00  0.00    +0.185 C 
ATOM      5  C   UNL     1       8.922  -1.123  24.477  0.00  0.00    +0.260 C 
ATOM      6  O   UNL     1       7.722  -0.416  24.154  0.00  0.00    -0.332 OA
ENDROOT
BRANCH   1   7
ATOM      7  O   UNL     1       6.426   0.729  22.654  0.00  0.00    -0.365 OA
ATOM      8  H   UNL     1       6.416   1.113  21.762  0.00  0.00    +0.213 HD
ENDBRANCH   1   7
BRANCH   2   9
ATOM      9  O   UNL     1       8.802   1.293  21.032  0.00  0.00    -0.384 OA
ATOM     10  H   UNL     1       8.428   2.198  21.015  0.00  0.00    +0.210 HD
ENDBRANCH   2   9
BRANCH   3  11
ATOM     11  O   UNL     1      10.236  -0.911  21.742  0.00  0.00    -0.386 OA
ATOM     12  H   UNL     1      11.151  -1.258  21.700  0.00  0.00    +0.210 HD
ENDBRANCH   3  11
BRANCH   4  13
ATOM     13  O   UNL     1      10.297   0.823  24.998  0.00  0.00    -0.386 OA
ATOM     14  H   UNL     1      10.837   0.586  25.773  0.00  0.00    +0.210 HD
ENDBRANCH   4  13
BRANCH   5  15
ATOM     15  C   UNL     1       8.954  -2.522  23.870  0.00  0.00    +0.337 C 
ATOM     16  O   UNL     1       7.973  -3.109  23.433  0.00  0.00    -0.248 OA
BRANCH  15  17
ATOM     17  O   UNL     1      10.202  -3.045  23.851  0.00  0.00    -0.479 OA
ATOM     18  H   UNL     1      10.240  -3.858  23.296  0.00  0.00    +0.295 HD
ENDBRANCH  15  17
ENDBRANCH   5  15
TORSDOF 6
ENDMDL
MODEL 5
REMARK VINA RESULT:      -4.7      1.510      3.478
REMARK  Name = 
REMARK  6 active torsions:
REMARK  status: ('A' for Active; 'I' for Inactive)
REMARK    1  A    between atoms: O_1  and  C_2
REMARK    2  A    between atoms: C_5  and  C_16
REMARK    3  A    between atoms: C_7  and  O_9
REMARK    4  A    between atoms: C_10  and  O_12
REMARK    5  A    between atoms: C_13  and  O_15
REMARK    6  A    between atoms: C_16  and  O_17
REMARK                            x       y       z     vdW  Elec       q    Type
REMARK                         _______ _______ _______ _____ _____    ______ ____
ROOT
ATOM      1  C   UNL     1       8.028  -0.074  24.205  0.00  0.00    +0.280 C 
ATOM      2  C   UNL     1       9.375  -0.524  24.815  0.00  0.00    +0.201 C 
ATOM      3  C   UNL     1      10.527   0.054  23.983  0.00  0.00    +0.179 C 
ATOM      4  C   UNL     1      10.354  -0.332  22.510  0.00  0.00    +0.185 C 
ATOM      5  C   UNL     1       8.958   0.061  21.998  0.00  0.00    +0.260 C 
ATOM      6  O   UNL     1       7.903  -0.433  22.827  0.00  0.00    -0.332 OA
ENDROOT
BRANCH   1   7
ATOM      7  O   UNL     1       6.921  -0.654  24.883  0.00  0.00    -0.365 OA
ATOM      8  H   UNL     1       6.922  -0.302  25.788  0.00  0.00    +0.213 HD
ENDBRANCH   1   7
BRANCH   2   9
ATOM      9  O   UNL     1       9.489  -0.072  26.172  0.00  0.00    -0.384 OA
ATOM     10  H   UNL     1       9.745   0.872  26.114  0.00  0.00    +0.210 HD
ENDBRANCH   2   9
BRANCH   3  11
ATOM     11  O   UNL     1      10.530   1.475  24.186  0.00  0.00    -0.386 OA
ATOM     12  H   UNL     1      10.804   1.927  23.363  0.00  0.00    +0.210 HD
ENDBRANCH   3  11
BRANCH   4  13
ATOM     13  O   UNL     1      10.540  -1.751  22.397  0.00  0.00    -0.386 OA
ATOM     14  H   UNL     1       9.744  -2.198  22.736  0.00  0.00    +0.210 HD
ENDBRANCH   4  13
BRANCH   5  15
ATOM     15  C   UNL     1       8.848   1.563  21.750  0.00  0.00    +0.337 C 
ATOM     16  O   UNL     1       7.803   2.197  21.803  0.00  0.00    -0.248 OA
BRANCH  15  17
ATOM     17  O   UNL     1      10.048   2.128  21.479  0.00  0.00    -0.479 OA
ATOM     18  H   UNL     1      10.572   1.571  20.859  0.00  0.00    +0.295 HD
ENDBRANCH  15  17
ENDBRANCH   5  15
TORSDOF 6
ENDMDL
MODEL 6
REMARK VINA RESULT:      -4.6      1.106      3.586
REMARK  Name = 
REMARK  6 active torsions:
REMARK  status: ('A' for Active; 'I' for Inactive)
REMARK    1  A    between atoms: O_1  and  C_2
REMARK    2  A    between atoms: C_5  and  C_16
REMARK    3  A    between atoms: C_7  and  O_9
REMARK    4  A    between atoms: C_10  and  O_12
REMARK    5  A    between atoms: C_13  and  O_15
REMARK    6  A    between atoms: C_16  and  O_17
REMARK                            x       y       z     vdW  Elec       q    Type
REMARK                         _______ _______ _______ _____ _____    ______ ____
ROOT
ATOM      1  C   UNL     1       9.452   0.057  24.929  0.00  0.00    +0.280 C 
ATOM      2  C   UNL     1       8.851  -1.116  24.121  0.00  0.00    +0.201 C 
ATOM      3  C   UNL     1       8.765  -0.722  22.641  0.00  0.00    +0.179 C 
ATOM      4  C   UNL     1       7.991   0.593  22.494  0.00  0.00    +0.185 C 
ATOM      5  C   UNL     1       8.587   1.687  23.395  0.00  0.00    +0.260 C 
ATOM      6  O   UNL     1       8.719   1.273  24.757  0.00  0.00    -0.332 OA
ENDROOT
BRANCH   1   7
ATOM      7  O   UNL     1       9.473  -0.217  26.324  0.00  0.00    -0.365 OA
ATOM      8  H   UNL     1       8.856  -0.951  26.481  0.00  0.00    +0.213 HD
ENDBRANCH   1   7
BRANCH   2   9
ATOM      9  O   UNL     1       9.664  -2.290  24.259  0.00  0.00    -0.384 OA
ATOM     10  H   UNL     1      10.332  -2.232  23.544  0.00  0.00    +0.210 HD
ENDBRANCH   2   9
BRANCH   3  11
ATOM     11  O   UNL     1      10.109  -0.632  22.144  0.00  0.00    -0.386 OA
ATOM     12  H   UNL     1      10.203   0.168  21.588  0.00  0.00    +0.210 HD
ENDBRANCH   3  11
BRANCH   4  13
ATOM     13  O   UNL     1       6.623   0.347  22.853  0.00  0.00    -0.386 OA
ATOM     14  H   UNL     1       6.491  -0.614  22.941  0.00  0.00    +0.210 HD
ENDBRANCH   4  13
BRANCH   5  15
ATOM     15  C   UNL     1       9.890   2.242  22.828  0.00  0.00    +0.337 C 
ATOM     16  O   UNL     1      10.810   2.678  23.507  0.00  0.00    -0.248 OA
BRANCH  15  17
ATOM     17  O   UNL     1       9.927   2.182  21.476  0.00  0.00    -0.479 OA
ATOM     18  H   UNL     1       9.552   2.999  21.073  0.00  0.00    +0.295 HD
ENDBRANCH  15  17
ENDBRANCH   5  15
TORSDOF 6
ENDMDL
MODEL 7
REMARK VINA RESULT:      -4.6      1.280      2.742
REMARK  Name = 
REMARK  6 active torsions:
REMARK  status: ('A' for Active; 'I' for Inactive)
REMARK    1  A    between atoms: O_1  and  C_2
REMARK    2  A    between atoms: C_5  and  C_16
REMARK    3  A    between atoms: C_7  and  O_9
REMARK    4  A    between atoms: C_10  and  O_12
REMARK    5  A    between atoms: C_13  and  O_15
REMARK    6  A    between atoms: C_16  and  O_17
REMARK                            x       y       z     vdW  Elec       q    Type
REMARK                         _______ _______ _______ _____ _____    ______ ____
ROOT
ATOM      1  C   UNL     1       8.804   0.698  24.603  0.00  0.00    +0.280 C 
ATOM      2  C   UNL     1       7.956   1.544  23.626  0.00  0.00    +0.201 C 
ATOM      3  C   UNL     1       8.113   0.988  22.205  0.00  0.00    +0.179 C 
ATOM      4  C   UNL     1       9.597   0.913  21.833  0.00  0.00    +0.185 C 
ATOM      5  C   UNL     1      10.394   0.138  22.895  0.00  0.00    +0.260 C 
ATOM      6  O   UNL     1      10.180   0.632  24.220  0.00  0.00    -0.332 OA
ENDROOT
BRANCH   1   7
ATOM      7  O   UNL     1       8.770   1.222  25.924  0.00  0.00    -0.365 OA
ATOM      8  H   UNL     1       7.931   1.703  26.020  0.00  0.00    +0.213 HD
ENDBRANCH   1   7
BRANCH   2   9
ATOM      9  O   UNL     1       6.573   1.513  24.004  0.00  0.00    -0.384 OA
ATOM     10  H   UNL     1       6.458   2.250  24.640  0.00  0.00    +0.210 HD
ENDBRANCH   2   9
BRANCH   3  11
ATOM     11  O   UNL     1       7.469  -0.295  22.176  0.00  0.00    -0.386 OA
ATOM     12  H   UNL     1       7.958  -0.897  21.578  0.00  0.00    +0.210 HD
ENDBRANCH   3  11
BRANCH   4  13
ATOM     13  O   UNL     1      10.097   2.254  21.722  0.00  0.00    -0.386 OA
ATOM     14  H   UNL     1       9.848   2.747  22.524  0.00  0.00    +0.210 HD
ENDBRANCH   4  13
BRANCH   5  15
ATOM     15  C   UNL     1      10.160  -1.367  22.793  0.00  0.00    +0.337 C 
ATOM     16  O   UNL     1      10.121  -2.127  23.751  0.00  0.00    -0.248 OA
BRANCH  15  17
ATOM     17  O   UNL     1       9.983  -1.773  21.514  0.00  0.00    -0.479 OA
ATOM     18  H   UNL     1      10.811  -2.156  21.143  0.00  0.00    +0.295 HD
ENDBRANCH  15  17
ENDBRANCH   5  15
TORSDOF 6
ENDMDL
MODEL 8
REMARK VINA RESULT:      -4.6      1.378      3.455
REMARK  Name = 
REMARK  6 active torsions:
REMARK  status: ('A' for Active; 'I' for Inactive)
REMARK    1  A    between atoms: O_1  and  C_2
REMARK    2  A    between atoms: C_5  and  C_16
REMARK    3  A    between atoms: C_7  and  O_9
REMARK    4  A    between atoms: C_10  and  O_12
REMARK    5  A    between atoms: C_13  and  O_15
REMARK    6  A    between atoms: C_16  and  O_17
REMARK                            x       y       z     vdW  Elec       q    Type
REMARK                         _______ _______ _______ _____ _____    ______ ____
ROOT
ATOM      1  C   UNL     1       9.443  -0.420  23.709  0.00  0.00    +0.280 C 
ATOM      2  C   UNL     1      10.476   0.670  24.077  0.00  0.00    +0.201 C 
ATOM      3  C   UNL     1       9.815   2.051  23.975  0.00  0.00    +0.179 C 
ATOM      4  C   UNL     1       9.191   2.231  22.587  0.00  0.00    +0.185 C 
ATOM      5  C   UNL     1       8.248   1.063  22.250  0.00  0.00    +0.260 C 
ATOM      6  O   UNL     1       8.866  -0.215  22.417  0.00  0.00    -0.332 OA
ENDROOT
BRANCH   1   7
ATOM      7  O   UNL     1      10.024  -1.718  23.699  0.00  0.00    -0.365 OA
ATOM      8  H   UNL     1       9.395  -2.310  23.254  0.00  0.00    +0.213 HD
ENDBRANCH   1   7
BRANCH   2   9
ATOM      9  O   UNL     1      10.966   0.469  25.410  0.00  0.00    -0.384 OA
ATOM     10  H   UNL     1      11.898   0.188  25.307  0.00  0.00    +0.210 HD
ENDBRANCH   2   9
BRANCH   3  11
ATOM     11  O   UNL     1       8.848   2.140  25.032  0.00  0.00    -0.386 OA
ATOM     12  H   UNL     1       8.289   2.933  24.903  0.00  0.00    +0.210 HD
ENDBRANCH   3  11
BRANCH   4  13
ATOM     13  O   UNL     1      10.255   2.299  21.625  0.00  0.00    -0.386 OA
ATOM     14  H   UNL     1      10.151   1.566  20.992  0.00  0.00    +0.210 HD
ENDBRANCH   4  13
BRANCH   5  15
ATOM     15  C   UNL     1       6.923   1.170  23.001  0.00  0.00    +0.337 C 
ATOM     16  O   UNL     1       6.489   2.203  23.493  0.00  0.00    -0.248 OA
BRANCH  15  17
ATOM     17  O   UNL     1       6.264  -0.011  23.048  0.00  0.00    -0.479 OA
ATOM     18  H   UNL     1       5.321   0.096  22.785  0.00  0.00    +0.295 HD
ENDBRANCH  15  17
ENDBRANCH   5  15
TORSDOF 6
ENDMDL
MODEL 9
REMARK VINA RESULT:      -4.6      1.399      3.415
REMARK  Name = 
REMARK  6 active torsions:
REMARK  status: ('A' for Active; 'I' for Inactive)
REMARK    1  A    between atoms: O_1  and  C_2
REMARK    2  A    between atoms: C_5  and  C_16
REMARK    3  A    between atoms: C_7  and  O_9
REMARK    4  A    between atoms: C_10  and  O_12
REMARK    5  A    between atoms: C_13  and  O_15
REMARK    6  A    between atoms: C_16  and  O_17
REMARK                            x       y       z     vdW  Elec       q    Type
REMARK                         _______ _______ _______ _____ _____    ______ ____
ROOT
ATOM      1  C   UNL     1       8.841   0.288  22.235  0.00  0.00    +0.280 C 
ATOM      2  C   UNL     1      10.071  -0.574  22.601  0.00  0.00    +0.201 C 
ATOM      3  C   UNL     1       9.803  -1.306  23.923  0.00  0.00    +0.179 C 
ATOM      4  C   UNL     1       9.406  -0.299  25.007  0.00  0.00    +0.185 C 
ATOM      5  C   UNL     1       8.240   0.586  24.538  0.00  0.00    +0.260 C 
ATOM      6  O   UNL     1       8.485   1.205  23.273  0.00  0.00    -0.332 OA
ENDROOT
BRANCH   1   7
ATOM      7  O   UNL     1       9.067   1.061  21.063  0.00  0.00    -0.365 OA
ATOM      8  H   UNL     1       8.476   0.715  20.373  0.00  0.00    +0.213 HD
ENDBRANCH   1   7
BRANCH   2   9
ATOM      9  O   UNL     1      10.340  -1.532  21.568  0.00  0.00    -0.384 OA
ATOM     10  H   UNL     1      11.013  -1.114  20.991  0.00  0.00    +0.210 HD
ENDBRANCH   2   9
BRANCH   3  11
ATOM     11  O   UNL     1       8.779  -2.280  23.671  0.00  0.00    -0.386 OA
ATOM     12  H   UNL     1       9.111  -3.174  23.893  0.00  0.00    +0.210 HD
ENDBRANCH   3  11
BRANCH   4  13
ATOM     13  O   UNL     1      10.554   0.513  25.303  0.00  0.00    -0.386 OA
ATOM     14  H   UNL     1      10.487   0.825  26.223  0.00  0.00    +0.210 HD
ENDBRANCH   4  13
BRANCH   5  15
ATOM     15  C   UNL     1       6.911  -0.165  24.569  0.00  0.00    +0.337 C 
ATOM     16  O   UNL     1       6.702  -1.173  25.230  0.00  0.00    -0.248 OA
BRANCH  15  17
ATOM     17  O   UNL     1       5.972   0.423  23.791  0.00  0.00    -0.479 OA
ATOM     18  H   UNL     1       5.331  -0.240  23.445  0.00  0.00    +0.295 HD
ENDBRANCH  15  17
ENDBRANCH   5  15
TORSDOF 6
ENDMDL
