MODEL 1
REMARK VINA RESULT:      -5.7      0.000      0.000
REMARK  Name = 
REMARK  5 active torsions:
REMARK  status: ('A' for Active; 'I' for Inactive)
REMARK    1  A    between atoms: C_2  and  O_3
REMARK    2  A    between atoms: C_2  and  C_4
REMARK    3  A    between atoms: C_2  and  C_6
REMARK    4  A    between atoms: C_4  and  N_5
REMARK    5  A    between atoms: C_10  and  C_12
REMARK                            x       y       z     vdW  Elec       q    Type
REMARK                         _______ _______ _______ _____ _____    ______ ____
ROOT
ATOM      1  C   UNL     1      10.928   4.951  23.818  0.00  0.00    -0.017 A 
ATOM      2  C   UNL     1      11.028   3.612  23.410  0.00  0.00    +0.018 A 
ATOM      3  C   UNL     1       9.994   2.700  23.672  0.00  0.00    +0.055 A 
ATOM      4  C   UNL     1       8.850   3.142  24.354  0.00  0.00    +0.012 A 
ATOM      5  C   UNL     1       8.739   4.468  24.762  0.00  0.00    +0.001 A 
ATOM      6  C   UNL     1       9.771   5.367  24.492  0.00  0.00    +0.006 A 
ENDROOT
BRANCH   3   7
ATOM      7  C   UNL     1      10.119   1.268  23.210  0.00  0.00    +0.417 C 
ATOM      8  F   UNL     1       8.986   0.547  23.438  0.00  0.00    -0.166 F 
ATOM      9  F   UNL     1      11.120   0.600  23.849  0.00  0.00    -0.166 F 
ATOM     10  F   UNL     1      10.378   1.141  21.877  0.00  0.00    -0.166 F 
ENDBRANCH   3   7
BRANCH   1  11
ATOM     11  C   UNL     1      12.025   5.938  23.491  0.00  0.00    +0.158 C 
BRANCH  11  12
ATOM     12  O   UNL     1      12.711   6.235  24.707  0.00  0.00    -0.386 OA
ATOM     13  H   UNL     1      12.399   5.571  25.353  0.00  0.00    +0.210 HD
ENDBRANCH  11  12
BRANCH  11  14
ATOM     14  C   UNL     1      13.024   5.390  22.433  0.00  0.00    +0.114 C 
BRANCH  14  15
ATOM     15  N   UNL     1      14.330   5.084  23.041  0.00  0.00    -0.327 NA
ATOM     16  H   UNL     1      14.749   5.952  23.380  0.00  0.00    +0.118 HD
ATOM     17  H   UNL     1      14.191   4.505  23.871  0.00  0.00    +0.118 HD
ENDBRANCH  14  15
ENDBRANCH  11  14
ENDBRANCH   1  11
TORSDOF 5
ENDMDL
MODEL 2
REMARK VINA RESULT:      -5.5      6.582      8.532
REMARK  Name = 
REMARK  5 active torsions:
REMARK  status: ('A' for Active; 'I' for Inactive)
REMARK    1  A    between atoms: C_2  and  O_3
REMARK    2  A    between atoms: C_2  and  C_4
REMARK    3  A    between atoms: C_2  and  C_6
REMARK    4  A    between atoms: C_4  and  N_5
REMARK    5  A    between atoms: C_10  and  C_12
REMARK                            x       y       z     vdW  Elec       q    Type
REMARK                         _______ _______ _______ _____ _____    ______ ____
ROOT
ATOM      1  C   UNL     1       8.616  -4.372  24.265  0.00  0.00    -0.017 A 
ATOM      2  C   UNL     1       9.266  -3.132  24.184  0.00  0.00    +0.018 A 
ATOM      3  C   UNL     1       8.933  -2.208  23.181  0.00  0.00    +0.055 A 
ATOM      4  C   UNL     1       7.937  -2.541  22.250  0.00  0.00    +0.012 A 
ATOM      5  C   UNL     1       7.284  -3.769  22.322  0.00  0.00    +0.001 A 
ATOM      6  C   UNL     1       7.620  -4.676  23.326  0.00  0.00    +0.006 A 
ENDROOT
BRANCH   3   7
ATOM      7  C   UNL     1       9.636  -0.874  23.124  0.00  0.00    +0.417 C 
ATOM      8  F   UNL     1       8.770   0.175  23.205  0.00  0.00    -0.166 F 
ATOM      9  F   UNL     1      10.325  -0.697  21.962  0.00  0.00    -0.166 F 
ATOM     10  F   UNL     1      10.541  -0.686  24.126  0.00  0.00    -0.166 F 
ENDBRANCH   3   7
BRANCH   1  11
ATOM     11  C   UNL     1       8.947  -5.343  25.376  0.00  0.00    +0.158 C 
BRANCH  11  12
ATOM     12  O   UNL     1      10.361  -5.531  25.374  0.00  0.00    -0.386 OA
ATOM     13  H   UNL     1      10.599  -5.751  26.297  0.00  0.00    +0.210 HD
ENDBRANCH  11  12
BRANCH  11  14
ATOM     14  C   UNL     1       8.477  -4.836  26.769  0.00  0.00    +0.114 C 
BRANCH  14  15
ATOM     15  N   UNL     1       7.753  -5.888  27.503  0.00  0.00    -0.327 NA
ATOM     16  H   UNL     1       8.407  -6.637  27.739  0.00  0.00    +0.118 HD
ATOM     17  H   UNL     1       7.429  -5.517  28.398  0.00  0.00    +0.118 HD
ENDBRANCH  14  15
ENDBRANCH  11  14
ENDBRANCH   1  11
TORSDOF 5
ENDMDL
MODEL 3
REMARK VINA RESULT:      -5.3      5.455      6.467
REMARK  Name = 
REMARK  5 active torsions:
REMARK  status: ('A' for Active; 'I' for Inactive)
REMARK    1  A    between atoms: C_2  and  O_3
REMARK    2  A    between atoms: C_2  and  C_4
REMARK    3  A    between atoms: C_2  and  C_6
REMARK    4  A    between atoms: C_4  and  N_5
REMARK    5  A    between atoms: C_10  and  C_12
REMARK                            x       y       z     vdW  Elec       q    Type
REMARK                         _______ _______ _______ _____ _____    ______ ____
ROOT
ATOM      1  C   UNL     1       9.613  -1.151  23.701  0.00  0.00    -0.017 A 
ATOM      2  C   UNL     1       9.574  -2.548  23.819  0.00  0.00    +0.018 A 
ATOM      3  C   UNL     1       9.058  -3.160  24.972  0.00  0.00    +0.055 A 
ATOM      4  C   UNL     1       8.582  -2.355  26.017  0.00  0.00    +0.012 A 
ATOM      5  C   UNL     1       8.615  -0.967  25.911  0.00  0.00    +0.001 A 
ATOM      6  C   UNL     1       9.125  -0.371  24.759  0.00  0.00    +0.006 A 
ENDROOT
BRANCH   3   7
ATOM      7  C   UNL     1       9.012  -4.666  25.067  0.00  0.00    +0.417 C 
ATOM      8  F   UNL     1      10.237  -5.209  25.315  0.00  0.00    -0.166 F 
ATOM      9  F   UNL     1       8.575  -5.248  23.916  0.00  0.00    -0.166 F 
ATOM     10  F   UNL     1       8.195  -5.130  26.054  0.00  0.00    -0.166 F 
ENDBRANCH   3   7
BRANCH   1  11
ATOM     11  C   UNL     1      10.126  -0.500  22.438  0.00  0.00    +0.158 C 
BRANCH  11  12
ATOM     12  O   UNL     1      10.224  -1.516  21.440  0.00  0.00    -0.386 OA
ATOM     13  H   UNL     1      11.039  -1.315  20.940  0.00  0.00    +0.210 HD
ENDBRANCH  11  12
BRANCH  11  14
ATOM     14  C   UNL     1       9.203   0.649  21.942  0.00  0.00    +0.114 C 
BRANCH  14  15
ATOM     15  N   UNL     1       9.978   1.865  21.641  0.00  0.00    -0.327 NA
ATOM     16  H   UNL     1       9.820   2.549  22.383  0.00  0.00    +0.118 HD
ATOM     17  H   UNL     1      10.976   1.649  21.677  0.00  0.00    +0.118 HD
ENDBRANCH  14  15
ENDBRANCH  11  14
ENDBRANCH   1  11
TORSDOF 5
ENDMDL
MODEL 4
REMARK VINA RESULT:      -5.3      6.149      8.050
REMARK  Name = 
REMARK  5 active torsions:
REMARK  status: ('A' for Active; 'I' for Inactive)
REMARK    1  A    between atoms: C_2  and  O_3
REMARK    2  A    between atoms: C_2  and  C_4
REMARK    3  A    between atoms: C_2  and  C_6
REMARK    4  A    between atoms: C_4  and  N_5
REMARK    5  A    between atoms: C_10  and  C_12
REMARK                            x       y       z     vdW  Elec       q    Type
REMARK                         _______ _______ _______ _____ _____    ______ ____
ROOT
ATOM      1  C   UNL     1       8.749  -3.740  24.181  0.00  0.00    -0.017 A 
ATOM      2  C   UNL     1       9.399  -2.521  24.430  0.00  0.00    +0.018 A 
ATOM      3  C   UNL     1       9.170  -1.404  23.612  0.00  0.00    +0.055 A 
ATOM      4  C   UNL     1       8.281  -1.518  22.532  0.00  0.00    +0.012 A 
ATOM      5  C   UNL     1       7.631  -2.721  22.277  0.00  0.00    +0.001 A 
ATOM      6  C   UNL     1       7.862  -3.824  23.099  0.00  0.00    +0.006 A 
ENDROOT
BRANCH   3   7
ATOM      7  C   UNL     1       9.869  -0.099  23.910  0.00  0.00    +0.417 C 
ATOM      8  F   UNL     1      10.739  -0.201  24.954  0.00  0.00    -0.166 F 
ATOM      9  F   UNL     1       8.999   0.893  24.248  0.00  0.00    -0.166 F 
ATOM     10  F   UNL     1      10.599   0.385  22.865  0.00  0.00    -0.166 F 
ENDBRANCH   3   7
BRANCH   1  11
ATOM     11  C   UNL     1       8.964  -4.926  25.094  0.00  0.00    +0.158 C 
BRANCH  11  12
ATOM     12  O   UNL     1      10.300  -5.385  24.892  0.00  0.00    -0.386 OA
ATOM     13  H   UNL     1      10.473  -5.279  23.936  0.00  0.00    +0.210 HD
ENDBRANCH  11  12
BRANCH  11  14
ATOM     14  C   UNL     1       8.740  -4.573  26.591  0.00  0.00    +0.114 C 
BRANCH  14  15
ATOM     15  N   UNL     1       8.024  -5.652  27.292  0.00  0.00    -0.327 NA
ATOM     16  H   UNL     1       8.589  -6.503  27.254  0.00  0.00    +0.118 HD
ATOM     17  H   UNL     1       7.946  -5.421  28.284  0.00  0.00    +0.118 HD
ENDBRANCH  14  15
ENDBRANCH  11  14
ENDBRANCH   1  11
TORSDOF 5
ENDMDL
MODEL 5
REMARK VINA RESULT:      -5.2      6.543      8.063
REMARK  Name = 
REMARK  5 active torsions:
REMARK  status: ('A' for Active; 'I' for Inactive)
REMARK    1  A    between atoms: C_2  and  O_3
REMARK    2  A    between atoms: C_2  and  C_4
REMARK    3  A    between atoms: C_2  and  C_6
REMARK    4  A    between atoms: C_4  and  N_5
REMARK    5  A    between atoms: C_10  and  C_12
REMARK                            x       y       z     vdW  Elec       q    Type
REMARK                         _______ _______ _______ _____ _____    ______ ____
ROOT
ATOM      1  C   UNL     1       8.796  -3.452  25.309  0.00  0.00    -0.017 A 
ATOM      2  C   UNL     1       9.328  -2.956  24.110  0.00  0.00    +0.018 A 
ATOM      3  C   UNL     1       9.466  -1.575  23.900  0.00  0.00    +0.055 A 
ATOM      4  C   UNL     1       9.060  -0.687  24.909  0.00  0.00    +0.012 A 
ATOM      5  C   UNL     1       8.532  -1.169  26.103  0.00  0.00    +0.001 A 
ATOM      6  C   UNL     1       8.404  -2.543  26.302  0.00  0.00    +0.006 A 
ENDROOT
BRANCH   3   7
ATOM      7  C   UNL     1      10.055  -1.065  22.607  0.00  0.00    +0.417 C 
ATOM      8  F   UNL     1      11.151  -1.777  22.219  0.00  0.00    -0.166 F 
ATOM      9  F   UNL     1      10.467   0.230  22.697  0.00  0.00    -0.166 F 
ATOM     10  F   UNL     1       9.192  -1.110  21.554  0.00  0.00    -0.166 F 
ENDBRANCH   3   7
BRANCH   1  11
ATOM     11  C   UNL     1       8.695  -4.942  25.547  0.00  0.00    +0.158 C 
BRANCH  11  12
ATOM     12  O   UNL     1       9.826  -5.330  26.325  0.00  0.00    -0.386 OA
ATOM     13  H   UNL     1       9.968  -6.277  26.127  0.00  0.00    +0.210 HD
ENDBRANCH  11  12
BRANCH  11  14
ATOM     14  C   UNL     1       7.381  -5.340  26.276  0.00  0.00    +0.114 C 
BRANCH  14  15
ATOM     15  N   UNL     1       7.657  -5.866  27.624  0.00  0.00    -0.327 NA
ATOM     16  H   UNL     1       7.072  -5.370  28.298  0.00  0.00    +0.118 HD
ATOM     17  H   UNL     1       7.364  -6.844  27.675  0.00  0.00    +0.118 HD
ENDBRANCH  14  15
ENDBRANCH  11  14
ENDBRANCH   1  11
TORSDOF 5
ENDMDL
MODEL 6
REMARK VINA RESULT:      -5.2      5.831      7.496
REMARK  Name = 
REMARK  5 active torsions:
REMARK  status: ('A' for Active; 'I' for Inactive)
REMARK    1  A    between atoms: C_2  and  O_3
REMARK    2  A    between atoms: C_2  and  C_4
REMARK    3  A    between atoms: C_2  and  C_6
REMARK    4  A    between atoms: C_4  and  N_5
REMARK    5  A    between atoms: C_10  and  C_12
REMARK                            x       y       z     vdW  Elec       q    Type
REMARK                         _______ _______ _______ _____ _____    ______ ____
ROOT
ATOM      1  C   UNL     1       8.869  -2.263  23.048  0.00  0.00    -0.017 A 
ATOM      2  C   UNL     1       9.298  -2.929  24.206  0.00  0.00    +0.018 A 
ATOM      3  C   UNL     1       8.677  -4.115  24.626  0.00  0.00    +0.055 A 
ATOM      4  C   UNL     1       7.612  -4.632  23.873  0.00  0.00    +0.012 A 
ATOM      5  C   UNL     1       7.179  -3.980  22.722  0.00  0.00    +0.001 A 
ATOM      6  C   UNL     1       7.806  -2.805  22.312  0.00  0.00    +0.006 A 
ENDROOT
BRANCH   3   7
ATOM      7  C   UNL     1       9.168  -4.822  25.867  0.00  0.00    +0.417 C 
ATOM      8  F   UNL     1      10.452  -5.260  25.743  0.00  0.00    -0.166 F 
ATOM      9  F   UNL     1       8.427  -5.925  26.166  0.00  0.00    -0.166 F 
ATOM     10  F   UNL     1       9.147  -4.044  26.987  0.00  0.00    -0.166 F 
ENDBRANCH   3   7
BRANCH   1  11
ATOM     11  C   UNL     1       9.573  -1.011  22.575  0.00  0.00    +0.158 C 
BRANCH  11  12
ATOM     12  O   UNL     1      10.325  -1.355  21.412  0.00  0.00    -0.386 OA
ATOM     13  H   UNL     1       9.833  -2.086  20.988  0.00  0.00    +0.210 HD
ENDBRANCH  11  12
BRANCH  11  14
ATOM     14  C   UNL     1       8.583   0.142  22.251  0.00  0.00    +0.114 C 
BRANCH  14  15
ATOM     15  N   UNL     1       9.148   1.065  21.252  0.00  0.00    -0.327 NA
ATOM     16  H   UNL     1       8.993   2.025  21.563  0.00  0.00    +0.118 HD
ATOM     17  H   UNL     1      10.163   0.950  21.217  0.00  0.00    +0.118 HD
ENDBRANCH  14  15
ENDBRANCH  11  14
ENDBRANCH   1  11
TORSDOF 5
ENDMDL
MODEL 7
REMARK VINA RESULT:      -5.1      5.700      6.955
REMARK  Name = 
REMARK  5 active torsions:
REMARK  status: ('A' for Active; 'I' for Inactive)
REMARK    1  A    between atoms: C_2  and  O_3
REMARK    2  A    between atoms: C_2  and  C_4
REMARK    3  A    between atoms: C_2  and  C_6
REMARK    4  A    between atoms: C_4  and  N_5
REMARK    5  A    between atoms: C_10  and  C_12
REMARK                            x       y       z     vdW  Elec       q    Type
REMARK                         _______ _______ _______ _____ _____    ______ ____
ROOT
ATOM      1  C   UNL     1       8.353  -1.355  22.741  0.00  0.00    -0.017 A 
ATOM      2  C   UNL     1       8.336  -2.748  22.571  0.00  0.00    +0.018 A 
ATOM      3  C   UNL     1       7.245  -3.514  23.010  0.00  0.00    +0.055 A 
ATOM      4  C   UNL     1       6.162  -2.869  23.627  0.00  0.00    +0.012 A 
ATOM      5  C   UNL     1       6.168  -1.488  23.800  0.00  0.00    +0.001 A 
ATOM      6  C   UNL     1       7.255  -0.737  23.356  0.00  0.00    +0.006 A 
ENDROOT
BRANCH   3   7
ATOM      7  C   UNL     1       7.244  -5.009  22.802  0.00  0.00    +0.417 C 
ATOM      8  F   UNL     1       8.281  -5.623  23.438  0.00  0.00    -0.166 F 
ATOM      9  F   UNL     1       7.358  -5.352  21.488  0.00  0.00    -0.166 F 
ATOM     10  F   UNL     1       6.115  -5.626  23.252  0.00  0.00    -0.166 F 
ENDBRANCH   3   7
BRANCH   1  11
ATOM     11  C   UNL     1       9.510  -0.532  22.224  0.00  0.00    +0.158 C 
BRANCH  11  12
ATOM     12  O   UNL     1      10.325  -1.390  21.426  0.00  0.00    -0.386 OA
ATOM     13  H   UNL     1       9.988  -1.297  20.513  0.00  0.00    +0.210 HD
ENDBRANCH  11  12
BRANCH  11  14
ATOM     14  C   UNL     1       9.043   0.693  21.387  0.00  0.00    +0.114 C 
BRANCH  14  15
ATOM     15  N   UNL     1       9.904   1.863  21.628  0.00  0.00    -0.327 NA
ATOM     16  H   UNL     1      10.448   2.053  20.784  0.00  0.00    +0.118 HD
ATOM     17  H   UNL     1       9.321   2.691  21.769  0.00  0.00    +0.118 HD
ENDBRANCH  14  15
ENDBRANCH  11  14
ENDBRANCH   1  11
TORSDOF 5
ENDMDL
MODEL 8
REMARK VINA RESULT:      -5.1      8.043      9.031
REMARK  Name = 
REMARK  5 active torsions:
REMARK  status: ('A' for Active; 'I' for Inactive)
REMARK    1  A    between atoms: C_2  and  O_3
REMARK    2  A    between atoms: C_2  and  C_4
REMARK    3  A    between atoms: C_2  and  C_6
REMARK    4  A    between atoms: C_4  and  N_5
REMARK    5  A    between atoms: C_10  and  C_12
REMARK                            x       y       z     vdW  Elec       q    Type
REMARK                         _______ _______ _______ _____ _____    ______ ____
ROOT
ATOM      1  C   UNL     1       7.893  -3.382  24.053  0.00  0.00    -0.017 A 
ATOM      2  C   UNL     1       7.473  -4.540  23.382  0.00  0.00    +0.018 A 
ATOM      3  C   UNL     1       6.509  -4.473  22.364  0.00  0.00    +0.055 A 
ATOM      4  C   UNL     1       5.962  -3.226  22.023  0.00  0.00    +0.012 A 
ATOM      5  C   UNL     1       6.373  -2.071  22.681  0.00  0.00    +0.001 A 
ATOM      6  C   UNL     1       7.334  -2.149  23.688  0.00  0.00    +0.006 A 
ENDROOT
BRANCH   3   7
ATOM      7  C   UNL     1       6.084  -5.731  21.646  0.00  0.00    +0.417 C 
ATOM      8  F   UNL     1       6.906  -6.785  21.914  0.00  0.00    -0.166 F 
ATOM      9  F   UNL     1       6.095  -5.587  20.292  0.00  0.00    -0.166 F 
ATOM     10  F   UNL     1       4.827  -6.150  21.967  0.00  0.00    -0.166 F 
ENDBRANCH   3   7
BRANCH   1  11
ATOM     11  C   UNL     1       8.966  -3.456  25.116  0.00  0.00    +0.158 C 
BRANCH  11  12
ATOM     12  O   UNL     1       8.649  -2.485  26.113  0.00  0.00    -0.386 OA
ATOM     13  H   UNL     1       8.003  -1.881  25.696  0.00  0.00    +0.210 HD
ENDBRANCH  11  12
BRANCH  11  14
ATOM     14  C   UNL     1       9.071  -4.868  25.758  0.00  0.00    +0.114 C 
BRANCH  14  15
ATOM     15  N   UNL     1      10.355  -5.509  25.428  0.00  0.00    -0.327 NA
ATOM     16  H   UNL     1      10.807  -5.810  26.293  0.00  0.00    +0.118 HD
ATOM     17  H   UNL     1      10.181  -6.366  24.899  0.00  0.00    +0.118 HD
ENDBRANCH  14  15
ENDBRANCH  11  14
ENDBRANCH   1  11
TORSDOF 5
ENDMDL
MODEL 9
REMARK VINA RESULT:      -5.0      5.429      6.848
REMARK  Name = 
REMARK  5 active torsions:
REMARK  status: ('A' for Active; 'I' for Inactive)
REMARK    1  A    between atoms: C_2  and  O_3
REMARK    2  A    between atoms: C_2  and  C_4
REMARK    3  A    between atoms: C_2  and  C_6
REMARK    4  A    between atoms: C_4  and  N_5
REMARK    5  A    between atoms: C_10  and  C_12
REMARK                            x       y       z     vdW  Elec       q    Type
REMARK                         _______ _______ _______ _____ _____    ______ ____
ROOT
ATOM      1  C   UNL     1       8.866  -1.934  24.639  0.00  0.00    -0.017 A 
ATOM      2  C   UNL     1       8.970  -1.394  23.348  0.00  0.00    +0.018 A 
ATOM      3  C   UNL     1       9.127  -0.013  23.155  0.00  0.00    +0.055 A 
ATOM      4  C   UNL     1       9.177   0.832  24.275  0.00  0.00    +0.012 A 
ATOM      5  C   UNL     1       9.077   0.307  25.560  0.00  0.00    +0.001 A 
ATOM      6  C   UNL     1       8.925  -1.068  25.740  0.00  0.00    +0.006 A 
ENDROOT
BRANCH   3   7
ATOM      7  C   UNL     1       9.252   0.542  21.757  0.00  0.00    +0.417 C 
ATOM      8  F   UNL     1      10.323   1.374  21.621  0.00  0.00    -0.166 F 
ATOM      9  F   UNL     1       8.164   1.274  21.388  0.00  0.00    -0.166 F 
ATOM     10  F   UNL     1       9.401  -0.414  20.797  0.00  0.00    -0.166 F 
ENDBRANCH   3   7
BRANCH   1  11
ATOM     11  C   UNL     1       8.744  -3.427  24.840  0.00  0.00    +0.158 C 
BRANCH  11  12
ATOM     12  O   UNL     1       9.998  -4.011  24.488  0.00  0.00    -0.386 OA
ATOM     13  H   UNL     1      10.534  -3.281  24.120  0.00  0.00    +0.210 HD
ENDBRANCH  11  12
BRANCH  11  14
ATOM     14  C   UNL     1       8.371  -3.802  26.302  0.00  0.00    +0.114 C 
BRANCH  14  15
ATOM     15  N   UNL     1       9.335  -4.760  26.869  0.00  0.00    -0.327 NA
ATOM     16  H   UNL     1       9.292  -5.629  26.333  0.00  0.00    +0.118 HD
ATOM     17  H   UNL     1      10.284  -4.405  26.739  0.00  0.00    +0.118 HD
ENDBRANCH  14  15
ENDBRANCH  11  14
ENDBRANCH   1  11
TORSDOF 5
ENDMDL
