MODEL 1
REMARK VINA RESULT:      -6.9      0.000      0.000
REMARK  Name = 
REMARK  13 active torsions:
REMARK  status: ('A' for Active; 'I' for Inactive)
REMARK    1  A    between atoms: C_8  and  N_13
REMARK    2  A    between atoms: N_13  and  C_14
REMARK    3  A    between atoms: C_14  and  C_15
REMARK    4  A    between atoms: C_15  and  C_16
REMARK    5  A    between atoms: C_16  and  C_17
REMARK    6  A    between atoms: C_17  and  C_18
REMARK    7  A    between atoms: C_18  and  C_19
REMARK    8  A    between atoms: C_19  and  C_20
REMARK    9  A    between atoms: C_20  and  C_21
REMARK   10  A    between atoms: C_21  and  C_22
REMARK   11  A    between atoms: C_22  and  C_23
REMARK   12  A    between atoms: C_23  and  N_24
REMARK   13  A    between atoms: N_24  and  C_25
REMARK                            x       y       z     vdW  Elec       q    Type
REMARK                         _______ _______ _______ _____ _____    ______ ____
ROOT
ATOM      1  C   UNL     1       4.070  -2.597  25.688  0.00  0.00    +0.000 C 
ENDROOT
BRANCH   1   2
ATOM      2  C   UNL     1       5.274  -1.707  26.001  0.00  0.00    +0.000 C 
BRANCH   2   3
ATOM      3  C   UNL     1       5.742  -0.939  24.764  0.00  0.00    +0.000 C 
BRANCH   3   4
ATOM      4  C   UNL     1       6.953  -0.089  25.068  0.00  0.00    +0.001 C 
BRANCH   4   5
ATOM      5  C   UNL     1       7.807  -0.730  26.165  0.00  0.00    +0.015 C 
BRANCH   5   6
ATOM      6  C   UNL     1       9.243  -0.741  25.668  0.00  0.00    +0.081 C 
BRANCH   6   7
ATOM      7  N   UNL     1       9.838   0.577  25.578  0.00  0.00    -0.309 NA
ATOM      8  H   UNL     1      10.634   0.646  26.211  0.00  0.00    +0.123 HD
BRANCH   7  14
ATOM      9  O   UNL     1       6.989   4.999  22.129  0.00  0.00    -0.268 OA
ATOM     10  C   UNL     1       7.790   4.169  22.533  0.00  0.00    +0.249 A 
ATOM     11  C   UNL     1       8.614   4.395  23.741  0.00  0.00    +0.070 A 
ATOM     12  C   UNL     1       9.444   3.432  24.161  0.00  0.00    +0.012 A 
ATOM     13  C   UNL     1       9.469   2.106  23.553  0.00  0.00    -0.011 A 
ATOM     14  C   UNL     1      10.253   0.961  24.212  0.00  0.00    +0.086 C 
ATOM     15  C   UNL     1      10.147  -0.354  23.403  0.00  0.00    +0.024 C 
ATOM     16  C   UNL     1      10.192  -0.104  21.903  0.00  0.00    +0.008 C 
ATOM     17  C   UNL     1       9.003   0.760  21.484  0.00  0.00    +0.053 C 
ATOM     18  C   UNL     1       8.852   1.969  22.360  0.00  0.00    +0.024 A 
ATOM     19  N   UNL     1       8.040   2.983  21.880  0.00  0.00    -0.326 N 
ATOM     20  H   UNL     1       7.528   2.851  21.019  0.00  0.00    +0.169 HD
ENDBRANCH   7  14
ENDBRANCH   6   7
ENDBRANCH   5   6
ENDBRANCH   4   5
ENDBRANCH   3   4
ENDBRANCH   2   3
ENDBRANCH   1   2
BRANCH   1  21
ATOM     21  C   UNL     1       3.667  -3.408  26.911  0.00  0.00    +0.000 C 
BRANCH  21  22
ATOM     22  C   UNL     1       4.757  -3.491  27.971  0.00  0.00    +0.002 C 
BRANCH  22  23
ATOM     23  C   UNL     1       5.327  -4.916  28.047  0.00  0.00    +0.019 C 
BRANCH  23  24
ATOM     24  C   UNL     1       6.620  -4.989  27.242  0.00  0.00    +0.101 C 
BRANCH  24  25
ATOM     25  N   UNL     1       6.576  -6.017  26.215  0.00  0.00    -0.343 N 
ATOM     26  H   UNL     1       6.185  -6.856  26.629  0.00  0.00    +0.146 HD
BRANCH  25  27
ATOM     27  C   UNL     1       5.890  -5.710  24.996  0.00  0.00    +0.041 A 
ATOM     28  C   UNL     1       6.490  -4.759  24.097  0.00  0.00    +0.021 A 
ATOM     29  C   UNL     1       5.778  -4.429  22.925  0.00  0.00    +0.073 A 
ATOM     30  C   UNL     1       6.322  -3.515  22.028  0.00  0.00    +0.028 A 
ATOM     31  C   UNL     1       7.567  -2.919  22.229  0.00  0.00    +0.002 A 
ATOM     32  C   UNL     1       8.294  -3.236  23.362  0.00  0.00    +0.001 A 
ATOM     33  N   UNL     1       4.585  -4.955  22.619  0.00  0.00    -0.251 NA
ATOM     34  C   UNL     1       4.008  -5.826  23.479  0.00  0.00    +0.047 A 
ATOM     35  C   UNL     1       2.638  -6.313  23.064  0.00  0.00    +0.056 C 
ATOM     36  C   UNL     1       2.178  -7.568  23.796  0.00  0.00    +0.006 C 
ATOM     37  C   UNL     1       2.352  -7.361  25.285  0.00  0.00    +0.005 C 
ATOM     38  C   UNL     1       3.824  -7.142  25.598  0.00  0.00    +0.039 C 
ATOM     39  C   UNL     1       7.761  -4.136  24.284  0.00  0.00    +0.012 A 
ATOM     40  C   UNL     1       4.590  -6.203  24.694  0.00  0.00    -0.005 A 
ENDBRANCH  25  27
ENDBRANCH  24  25
ENDBRANCH  23  24
ENDBRANCH  22  23
ENDBRANCH  21  22
ENDBRANCH   1  21
TORSDOF 13
ENDMDL
MODEL 2
REMARK VINA RESULT:      -6.8      2.811      7.370
REMARK  Name = 
REMARK  13 active torsions:
REMARK  status: ('A' for Active; 'I' for Inactive)
REMARK    1  A    between atoms: C_8  and  N_13
REMARK    2  A    between atoms: N_13  and  C_14
REMARK    3  A    between atoms: C_14  and  C_15
REMARK    4  A    between atoms: C_15  and  C_16
REMARK    5  A    between atoms: C_16  and  C_17
REMARK    6  A    between atoms: C_17  and  C_18
REMARK    7  A    between atoms: C_18  and  C_19
REMARK    8  A    between atoms: C_19  and  C_20
REMARK    9  A    between atoms: C_20  and  C_21
REMARK   10  A    between atoms: C_21  and  C_22
REMARK   11  A    between atoms: C_22  and  C_23
REMARK   12  A    between atoms: C_23  and  N_24
REMARK   13  A    between atoms: N_24  and  C_25
REMARK                            x       y       z     vdW  Elec       q    Type
REMARK                         _______ _______ _______ _____ _____    ______ ____
ROOT
ATOM      1  C   UNL     1       5.665  -1.541  24.658  0.00  0.00    +0.000 C 
ENDROOT
BRANCH   1   2
ATOM      2  C   UNL     1       6.671  -0.952  23.669  0.00  0.00    +0.000 C 
BRANCH   2   3
ATOM      3  C   UNL     1       7.374  -2.045  22.863  0.00  0.00    +0.000 C 
BRANCH   3   4
ATOM      4  C   UNL     1       8.648  -1.534  22.234  0.00  0.00    +0.001 C 
BRANCH   4   5
ATOM      5  C   UNL     1       9.871  -1.983  23.038  0.00  0.00    +0.015 C 
BRANCH   5   6
ATOM      6  C   UNL     1       9.358  -2.744  24.248  0.00  0.00    +0.081 C 
BRANCH   6   7
ATOM      7  N   UNL     1       9.944  -4.060  24.402  0.00  0.00    -0.309 NA
ATOM      8  H   UNL     1      10.798  -4.001  24.955  0.00  0.00    +0.123 HD
BRANCH   7  14
ATOM      9  O   UNL     1       4.105  -5.184  22.350  0.00  0.00    -0.268 OA
ATOM     10  C   UNL     1       5.174  -5.270  22.936  0.00  0.00    +0.249 A 
ATOM     11  C   UNL     1       6.431  -5.610  22.232  0.00  0.00    +0.070 A 
ATOM     12  C   UNL     1       7.579  -5.649  22.920  0.00  0.00    +0.012 A 
ATOM     13  C   UNL     1       7.667  -5.234  24.316  0.00  0.00    -0.011 A 
ATOM     14  C   UNL     1       9.034  -5.062  24.994  0.00  0.00    +0.086 C 
ATOM     15  C   UNL     1       8.896  -4.619  26.471  0.00  0.00    +0.024 C 
ATOM     16  C   UNL     1       7.731  -5.309  27.165  0.00  0.00    +0.008 C 
ATOM     17  C   UNL     1       6.420  -4.935  26.476  0.00  0.00    +0.053 C 
ATOM     18  C   UNL     1       6.502  -5.098  24.987  0.00  0.00    +0.024 A 
ATOM     19  N   UNL     1       5.301  -5.119  24.299  0.00  0.00    -0.326 N 
ATOM     20  H   UNL     1       4.436  -4.951  24.794  0.00  0.00    +0.169 HD
ENDBRANCH   7  14
ENDBRANCH   6   7
ENDBRANCH   5   6
ENDBRANCH   4   5
ENDBRANCH   3   4
ENDBRANCH   2   3
ENDBRANCH   1   2
BRANCH   1  21
ATOM     21  C   UNL     1       5.851  -0.933  26.042  0.00  0.00    +0.000 C 
BRANCH  21  22
ATOM     22  C   UNL     1       7.156  -1.339  26.713  0.00  0.00    +0.002 C 
BRANCH  22  23
ATOM     23  C   UNL     1       7.910  -0.098  27.218  0.00  0.00    +0.019 C 
BRANCH  23  24
ATOM     24  C   UNL     1       6.954   1.088  27.274  0.00  0.00    +0.101 C 
BRANCH  24  25
ATOM     25  N   UNL     1       7.470   2.249  26.566  0.00  0.00    -0.343 N 
ATOM     26  H   UNL     1       8.477   2.266  26.686  0.00  0.00    +0.146 HD
BRANCH  25  27
ATOM     27  C   UNL     1       7.142   2.382  25.178  0.00  0.00    +0.041 A 
ATOM     28  C   UNL     1       8.187   2.180  24.209  0.00  0.00    +0.021 A 
ATOM     29  C   UNL     1       7.860   2.364  22.848  0.00  0.00    +0.073 A 
ATOM     30  C   UNL     1       8.839   2.178  21.878  0.00  0.00    +0.028 A 
ATOM     31  C   UNL     1      10.142   1.792  22.193  0.00  0.00    +0.002 A 
ATOM     32  C   UNL     1      10.486   1.589  23.517  0.00  0.00    +0.001 A 
ATOM     33  N   UNL     1       6.637   2.714  22.430  0.00  0.00    -0.251 NA
ATOM     34  C   UNL     1       5.664   2.933  23.343  0.00  0.00    +0.047 A 
ATOM     35  C   UNL     1       4.340   3.380  22.765  0.00  0.00    +0.056 C 
ATOM     36  C   UNL     1       3.163   3.232  23.723  0.00  0.00    +0.006 C 
ATOM     37  C   UNL     1       3.524   3.870  25.047  0.00  0.00    +0.005 C 
ATOM     38  C   UNL     1       4.719   3.148  25.650  0.00  0.00    +0.039 C 
ATOM     39  C   UNL     1       9.526   1.787  24.509  0.00  0.00    +0.012 A 
ATOM     40  C   UNL     1       5.869   2.826  24.723  0.00  0.00    -0.005 A 
ENDBRANCH  25  27
ENDBRANCH  24  25
ENDBRANCH  23  24
ENDBRANCH  22  23
ENDBRANCH  21  22
ENDBRANCH   1  21
TORSDOF 13
ENDMDL
MODEL 3
REMARK VINA RESULT:      -6.8      0.328      3.037
REMARK  Name = 
REMARK  13 active torsions:
REMARK  status: ('A' for Active; 'I' for Inactive)
REMARK    1  A    between atoms: C_8  and  N_13
REMARK    2  A    between atoms: N_13  and  C_14
REMARK    3  A    between atoms: C_14  and  C_15
REMARK    4  A    between atoms: C_15  and  C_16
REMARK    5  A    between atoms: C_16  and  C_17
REMARK    6  A    between atoms: C_17  and  C_18
REMARK    7  A    between atoms: C_18  and  C_19
REMARK    8  A    between atoms: C_19  and  C_20
REMARK    9  A    between atoms: C_20  and  C_21
REMARK   10  A    between atoms: C_21  and  C_22
REMARK   11  A    between atoms: C_22  and  C_23
REMARK   12  A    between atoms: C_23  and  N_24
REMARK   13  A    between atoms: N_24  and  C_25
REMARK                            x       y       z     vdW  Elec       q    Type
REMARK                         _______ _______ _______ _____ _____    ______ ____
ROOT
ATOM      1  C   UNL     1       4.237  -2.292  25.699  0.00  0.00    +0.000 C 
ENDROOT
BRANCH   1   2
ATOM      2  C   UNL     1       5.544  -1.553  25.988  0.00  0.00    +0.000 C 
BRANCH   2   3
ATOM      3  C   UNL     1       5.556  -0.162  25.352  0.00  0.00    +0.000 C 
BRANCH   3   4
ATOM      4  C   UNL     1       6.965   0.349  25.170  0.00  0.00    +0.001 C 
BRANCH   4   5
ATOM      5  C   UNL     1       7.894  -0.217  26.248  0.00  0.00    +0.015 C 
BRANCH   5   6
ATOM      6  C   UNL     1       9.231  -0.500  25.584  0.00  0.00    +0.081 C 
BRANCH   6   7
ATOM      7  N   UNL     1      10.075   0.670  25.449  0.00  0.00    -0.309 NA
ATOM      8  H   UNL     1      10.951   0.530  25.950  0.00  0.00    +0.123 HD
BRANCH   7  14
ATOM      9  O   UNL     1       6.930   5.115  22.300  0.00  0.00    -0.268 OA
ATOM     10  C   UNL     1       7.761   4.279  22.623  0.00  0.00    +0.249 A 
ATOM     11  C   UNL     1       8.701   4.498  23.745  0.00  0.00    +0.070 A 
ATOM     12  C   UNL     1       9.562   3.530  24.080  0.00  0.00    +0.012 A 
ATOM     13  C   UNL     1       9.519   2.204  23.472  0.00  0.00    -0.011 A 
ATOM     14  C   UNL     1      10.356   1.053  24.050  0.00  0.00    +0.086 C 
ATOM     15  C   UNL     1      10.163  -0.260  23.253  0.00  0.00    +0.024 C 
ATOM     16  C   UNL     1      10.062  -0.007  21.756  0.00  0.00    +0.008 C 
ATOM     17  C   UNL     1       8.844   0.864  21.456  0.00  0.00    +0.053 C 
ATOM     18  C   UNL     1       8.787   2.073  22.344  0.00  0.00    +0.024 A 
ATOM     19  N   UNL     1       7.939   3.093  21.948  0.00  0.00    -0.326 N 
ATOM     20  H   UNL     1       7.343   2.965  21.140  0.00  0.00    +0.169 HD
ENDBRANCH   7  14
ENDBRANCH   6   7
ENDBRANCH   5   6
ENDBRANCH   4   5
ENDBRANCH   3   4
ENDBRANCH   2   3
ENDBRANCH   1   2
BRANCH   1  21
ATOM     21  C   UNL     1       3.872  -3.215  26.854  0.00  0.00    +0.000 C 
BRANCH  21  22
ATOM     22  C   UNL     1       4.994  -3.389  27.869  0.00  0.00    +0.002 C 
BRANCH  22  23
ATOM     23  C   UNL     1       5.358  -4.875  28.018  0.00  0.00    +0.019 C 
BRANCH  23  24
ATOM     24  C   UNL     1       6.652  -5.159  27.265  0.00  0.00    +0.101 C 
BRANCH  24  25
ATOM     25  N   UNL     1       6.462  -6.096  26.170  0.00  0.00    -0.343 N 
ATOM     26  H   UNL     1       6.000  -6.920  26.539  0.00  0.00    +0.146 HD
BRANCH  25  27
ATOM     27  C   UNL     1       5.766  -5.629  25.008  0.00  0.00    +0.041 A 
ATOM     28  C   UNL     1       4.520  -6.260  24.660  0.00  0.00    +0.021 A 
ATOM     29  C   UNL     1       3.872  -5.823  23.485  0.00  0.00    +0.073 A 
ATOM     30  C   UNL     1       2.665  -6.406  23.112  0.00  0.00    +0.028 A 
ATOM     31  C   UNL     1       2.048  -7.401  23.870  0.00  0.00    +0.002 A 
ATOM     32  C   UNL     1       2.653  -7.838  25.034  0.00  0.00    +0.001 A 
ATOM     33  N   UNL     1       4.361  -4.861  22.693  0.00  0.00    -0.251 NA
ATOM     34  C   UNL     1       5.547  -4.289  23.005  0.00  0.00    +0.047 A 
ATOM     35  C   UNL     1       6.034  -3.257  22.012  0.00  0.00    +0.056 C 
ATOM     36  C   UNL     1       7.127  -2.343  22.554  0.00  0.00    +0.006 C 
ATOM     37  C   UNL     1       8.217  -3.193  23.170  0.00  0.00    +0.005 C 
ATOM     38  C   UNL     1       7.645  -3.988  24.333  0.00  0.00    +0.039 C 
ATOM     39  C   UNL     1       3.872  -7.281  25.419  0.00  0.00    +0.012 A 
ATOM     40  C   UNL     1       6.309  -4.661  24.118  0.00  0.00    -0.005 A 
ENDBRANCH  25  27
ENDBRANCH  24  25
ENDBRANCH  23  24
ENDBRANCH  22  23
ENDBRANCH  21  22
ENDBRANCH   1  21
TORSDOF 13
ENDMDL
MODEL 4
REMARK VINA RESULT:      -6.5      1.311      4.066
REMARK  Name = 
REMARK  13 active torsions:
REMARK  status: ('A' for Active; 'I' for Inactive)
REMARK    1  A    between atoms: C_8  and  N_13
REMARK    2  A    between atoms: N_13  and  C_14
REMARK    3  A    between atoms: C_14  and  C_15
REMARK    4  A    between atoms: C_15  and  C_16
REMARK    5  A    between atoms: C_16  and  C_17
REMARK    6  A    between atoms: C_17  and  C_18
REMARK    7  A    between atoms: C_18  and  C_19
REMARK    8  A    between atoms: C_19  and  C_20
REMARK    9  A    between atoms: C_20  and  C_21
REMARK   10  A    between atoms: C_21  and  C_22
REMARK   11  A    between atoms: C_22  and  C_23
REMARK   12  A    between atoms: C_23  and  N_24
REMARK   13  A    between atoms: N_24  and  C_25
REMARK                            x       y       z     vdW  Elec       q    Type
REMARK                         _______ _______ _______ _____ _____    ______ ____
ROOT
ATOM      1  C   UNL     1       3.393  -2.650  27.034  0.00  0.00    +0.000 C 
ENDROOT
BRANCH   1   2
ATOM      2  C   UNL     1       4.868  -2.530  27.416  0.00  0.00    +0.000 C 
BRANCH   2   3
ATOM      3  C   UNL     1       5.699  -1.943  26.274  0.00  0.00    +0.000 C 
BRANCH   3   4
ATOM      4  C   UNL     1       7.032  -1.433  26.767  0.00  0.00    +0.001 C 
BRANCH   4   5
ATOM      5  C   UNL     1       7.641  -0.445  25.768  0.00  0.00    +0.015 C 
BRANCH   5   6
ATOM      6  C   UNL     1       9.113  -0.797  25.630  0.00  0.00    +0.081 C 
BRANCH   6   7
ATOM      7  N   UNL     1       9.983   0.358  25.542  0.00  0.00    -0.309 NA
ATOM      8  H   UNL     1      10.822   0.208  26.102  0.00  0.00    +0.123 HD
BRANCH   7  14
ATOM      9  O   UNL     1       7.156   4.855  22.172  0.00  0.00    -0.268 OA
ATOM     10  C   UNL     1       7.944   4.001  22.553  0.00  0.00    +0.249 A 
ATOM     11  C   UNL     1       8.815   4.206  23.732  0.00  0.00    +0.070 A 
ATOM     12  C   UNL     1       9.629   3.220  24.127  0.00  0.00    +0.012 A 
ATOM     13  C   UNL     1       9.593   1.891  23.525  0.00  0.00    -0.011 A 
ATOM     14  C   UNL     1      10.363   0.725  24.162  0.00  0.00    +0.086 C 
ATOM     15  C   UNL     1      10.190  -0.589  23.362  0.00  0.00    +0.024 C 
ATOM     16  C   UNL     1      10.193  -0.345  21.860  0.00  0.00    +0.008 C 
ATOM     17  C   UNL     1       9.018   0.553  21.478  0.00  0.00    +0.053 C 
ATOM     18  C   UNL     1       8.933   1.769  22.353  0.00  0.00    +0.024 A 
ATOM     19  N   UNL     1       8.137   2.806  21.897  0.00  0.00    -0.326 N 
ATOM     20  H   UNL     1       7.592   2.687  21.053  0.00  0.00    +0.169 HD
ENDBRANCH   7  14
ENDBRANCH   6   7
ENDBRANCH   5   6
ENDBRANCH   4   5
ENDBRANCH   3   4
ENDBRANCH   2   3
ENDBRANCH   1   2
BRANCH   1  21
ATOM     21  C   UNL     1       3.244  -3.017  25.564  0.00  0.00    +0.000 C 
BRANCH  21  22
ATOM     22  C   UNL     1       2.123  -4.012  25.296  0.00  0.00    +0.002 C 
BRANCH  22  23
ATOM     23  C   UNL     1       2.494  -4.940  24.128  0.00  0.00    +0.019 C 
BRANCH  23  24
ATOM     24  C   UNL     1       4.003  -4.908  23.915  0.00  0.00    +0.101 C 
BRANCH  24  25
ATOM     25  N   UNL     1       4.666  -6.076  24.472  0.00  0.00    -0.343 N 
ATOM     26  H   UNL     1       5.151  -6.550  23.718  0.00  0.00    +0.146 HD
BRANCH  25  27
ATOM     27  C   UNL     1       5.560  -5.871  25.573  0.00  0.00    +0.041 A 
ATOM     28  C   UNL     1       5.078  -6.142  26.902  0.00  0.00    +0.021 A 
ATOM     29  C   UNL     1       5.953  -5.887  27.979  0.00  0.00    +0.073 A 
ATOM     30  C   UNL     1       5.528  -6.137  29.279  0.00  0.00    +0.028 A 
ATOM     31  C   UNL     1       4.266  -6.655  29.569  0.00  0.00    +0.002 A 
ATOM     32  C   UNL     1       3.393  -6.929  28.532  0.00  0.00    +0.001 A 
ATOM     33  N   UNL     1       7.193  -5.410  27.818  0.00  0.00    -0.251 NA
ATOM     34  C   UNL     1       7.635  -5.126  26.571  0.00  0.00    +0.047 A 
ATOM     35  C   UNL     1       9.027  -4.538  26.509  0.00  0.00    +0.056 C 
ATOM     36  C   UNL     1       9.666  -4.602  25.127  0.00  0.00    +0.006 C 
ATOM     37  C   UNL     1       8.696  -4.041  24.110  0.00  0.00    +0.005 C 
ATOM     38  C   UNL     1       7.436  -4.891  24.088  0.00  0.00    +0.039 C 
ATOM     39  C   UNL     1       3.790  -6.671  27.220  0.00  0.00    +0.012 A 
ATOM     40  C   UNL     1       6.852  -5.294  25.423  0.00  0.00    -0.005 A 
ENDBRANCH  25  27
ENDBRANCH  24  25
ENDBRANCH  23  24
ENDBRANCH  22  23
ENDBRANCH  21  22
ENDBRANCH   1  21
TORSDOF 13
ENDMDL
MODEL 5
REMARK VINA RESULT:      -6.5      2.922      8.278
REMARK  Name = 
REMARK  13 active torsions:
REMARK  status: ('A' for Active; 'I' for Inactive)
REMARK    1  A    between atoms: C_8  and  N_13
REMARK    2  A    between atoms: N_13  and  C_14
REMARK    3  A    between atoms: C_14  and  C_15
REMARK    4  A    between atoms: C_15  and  C_16
REMARK    5  A    between atoms: C_16  and  C_17
REMARK    6  A    between atoms: C_17  and  C_18
REMARK    7  A    between atoms: C_18  and  C_19
REMARK    8  A    between atoms: C_19  and  C_20
REMARK    9  A    between atoms: C_20  and  C_21
REMARK   10  A    between atoms: C_21  and  C_22
REMARK   11  A    between atoms: C_22  and  C_23
REMARK   12  A    between atoms: C_23  and  N_24
REMARK   13  A    between atoms: N_24  and  C_25
REMARK                            x       y       z     vdW  Elec       q    Type
REMARK                         _______ _______ _______ _____ _____    ______ ____
ROOT
ATOM      1  C   UNL     1       5.284  -2.555  24.467  0.00  0.00    +0.000 C 
ENDROOT
BRANCH   1   2
ATOM      2  C   UNL     1       6.105  -1.876  23.369  0.00  0.00    +0.000 C 
BRANCH   2   3
ATOM      3  C   UNL     1       6.568  -2.880  22.313  0.00  0.00    +0.000 C 
BRANCH   3   4
ATOM      4  C   UNL     1       6.920  -4.211  22.933  0.00  0.00    +0.001 C 
BRANCH   4   5
ATOM      5  C   UNL     1       6.962  -5.313  21.870  0.00  0.00    +0.015 C 
BRANCH   5   6
ATOM      6  C   UNL     1       5.554  -5.870  21.746  0.00  0.00    +0.081 C 
BRANCH   6   7
ATOM      7  N   UNL     1       5.145  -6.678  22.878  0.00  0.00    -0.309 NA
ATOM      8  H   UNL     1       5.960  -6.955  23.423  0.00  0.00    +0.123 HD
BRANCH   7  14
ATOM      9  O   UNL     1       5.027  -7.290  29.137  0.00  0.00    -0.268 OA
ATOM     10  C   UNL     1       4.809  -6.909  27.997  0.00  0.00    +0.249 A 
ATOM     11  C   UNL     1       5.823  -6.175  27.207  0.00  0.00    +0.070 A 
ATOM     12  C   UNL     1       5.543  -5.818  25.947  0.00  0.00    +0.012 A 
ATOM     13  C   UNL     1       4.324  -6.247  25.268  0.00  0.00    -0.011 A 
ATOM     14  C   UNL     1       4.154  -6.025  23.758  0.00  0.00    +0.086 C 
ATOM     15  C   UNL     1       2.791  -6.551  23.246  0.00  0.00    +0.024 C 
ATOM     16  C   UNL     1       1.667  -6.277  24.235  0.00  0.00    +0.008 C 
ATOM     17  C   UNL     1       1.945  -7.001  25.551  0.00  0.00    +0.053 C 
ATOM     18  C   UNL     1       3.342  -6.757  26.041  0.00  0.00    +0.024 A 
ATOM     19  N   UNL     1       3.597  -7.072  27.366  0.00  0.00    -0.326 N 
ATOM     20  H   UNL     1       2.879  -7.515  27.924  0.00  0.00    +0.169 HD
ENDBRANCH   7  14
ENDBRANCH   6   7
ENDBRANCH   5   6
ENDBRANCH   4   5
ENDBRANCH   3   4
ENDBRANCH   2   3
ENDBRANCH   1   2
BRANCH   1  21
ATOM     21  C   UNL     1       5.417  -1.803  25.783  0.00  0.00    +0.000 C 
BRANCH  21  22
ATOM     22  C   UNL     1       4.965  -0.351  25.702  0.00  0.00    +0.002 C 
BRANCH  22  23
ATOM     23  C   UNL     1       6.082   0.589  26.183  0.00  0.00    +0.019 C 
BRANCH  23  24
ATOM     24  C   UNL     1       6.947  -0.135  27.209  0.00  0.00    +0.101 C 
BRANCH  24  25
ATOM     25  N   UNL     1       8.367  -0.005  26.926  0.00  0.00    -0.343 N 
ATOM     26  H   UNL     1       8.880  -0.378  27.718  0.00  0.00    +0.146 HD
BRANCH  25  27
ATOM     27  C   UNL     1       8.859  -0.585  25.712  0.00  0.00    +0.041 A 
ATOM     28  C   UNL     1       9.045  -2.011  25.664  0.00  0.00    +0.021 A 
ATOM     29  C   UNL     1       9.577  -2.562  24.479  0.00  0.00    +0.073 A 
ATOM     30  C   UNL     1       9.772  -3.936  24.389  0.00  0.00    +0.028 A 
ATOM     31  C   UNL     1       9.440  -4.808  25.426  0.00  0.00    +0.002 A 
ATOM     32  C   UNL     1       8.902  -4.299  26.593  0.00  0.00    +0.001 A 
ATOM     33  N   UNL     1       9.912  -1.822  23.414  0.00  0.00    -0.251 NA
ATOM     34  C   UNL     1       9.766  -0.479  23.471  0.00  0.00    +0.047 A 
ATOM     35  C   UNL     1      10.229   0.263  22.236  0.00  0.00    +0.056 C 
ATOM     36  C   UNL     1       9.700   1.688  22.134  0.00  0.00    +0.006 C 
ATOM     37  C   UNL     1       9.965   2.406  23.440  0.00  0.00    +0.005 C 
ATOM     38  C   UNL     1       9.220   1.704  24.565  0.00  0.00    +0.039 C 
ATOM     39  C   UNL     1       8.714  -2.922  26.712  0.00  0.00    +0.012 A 
ATOM     40  C   UNL     1       9.289   0.194  24.601  0.00  0.00    -0.005 A 
ENDBRANCH  25  27
ENDBRANCH  24  25
ENDBRANCH  23  24
ENDBRANCH  22  23
ENDBRANCH  21  22
ENDBRANCH   1  21
TORSDOF 13
ENDMDL
MODEL 6
REMARK VINA RESULT:      -6.5      1.408      2.779
REMARK  Name = 
REMARK  13 active torsions:
REMARK  status: ('A' for Active; 'I' for Inactive)
REMARK    1  A    between atoms: C_8  and  N_13
REMARK    2  A    between atoms: N_13  and  C_14
REMARK    3  A    between atoms: C_14  and  C_15
REMARK    4  A    between atoms: C_15  and  C_16
REMARK    5  A    between atoms: C_16  and  C_17
REMARK    6  A    between atoms: C_17  and  C_18
REMARK    7  A    between atoms: C_18  and  C_19
REMARK    8  A    between atoms: C_19  and  C_20
REMARK    9  A    between atoms: C_20  and  C_21
REMARK   10  A    between atoms: C_21  and  C_22
REMARK   11  A    between atoms: C_22  and  C_23
REMARK   12  A    between atoms: C_23  and  N_24
REMARK   13  A    between atoms: N_24  and  C_25
REMARK                            x       y       z     vdW  Elec       q    Type
REMARK                         _______ _______ _______ _____ _____    ______ ____
ROOT
ATOM      1  C   UNL     1       4.182  -2.847  24.867  0.00  0.00    +0.000 C 
ENDROOT
BRANCH   1   2
ATOM      2  C   UNL     1       5.095  -2.108  25.847  0.00  0.00    +0.000 C 
BRANCH   2   3
ATOM      3  C   UNL     1       6.204  -1.348  25.119  0.00  0.00    +0.000 C 
BRANCH   3   4
ATOM      4  C   UNL     1       6.473  -0.011  25.767  0.00  0.00    +0.001 C 
BRANCH   4   5
ATOM      5  C   UNL     1       7.398  -0.168  26.977  0.00  0.00    +0.015 C 
BRANCH   5   6
ATOM      6  C   UNL     1       8.645  -0.892  26.498  0.00  0.00    +0.081 C 
BRANCH   6   7
ATOM      7  N   UNL     1       9.737  -0.004  26.152  0.00  0.00    -0.309 NA
ATOM      8  H   UNL     1      10.560  -0.227  26.711  0.00  0.00    +0.123 HD
BRANCH   7  14
ATOM      9  O   UNL     1       7.066   3.699  21.825  0.00  0.00    -0.268 OA
ATOM     10  C   UNL     1       7.815   2.916  22.391  0.00  0.00    +0.249 A 
ATOM     11  C   UNL     1       8.735   3.348  23.467  0.00  0.00    +0.070 A 
ATOM     12  C   UNL     1       9.503   2.438  24.079  0.00  0.00    +0.012 A 
ATOM     13  C   UNL     1       9.370   1.007  23.825  0.00  0.00    -0.011 A 
ATOM     14  C   UNL     1      10.091  -0.013  24.717  0.00  0.00    +0.086 C 
ATOM     15  C   UNL     1       9.816  -1.470  24.270  0.00  0.00    +0.024 C 
ATOM     16  C   UNL     1       9.782  -1.603  22.755  0.00  0.00    +0.008 C 
ATOM     17  C   UNL     1       8.649  -0.752  22.183  0.00  0.00    +0.053 C 
ATOM     18  C   UNL     1       8.665   0.644  22.732  0.00  0.00    +0.024 A 
ATOM     19  N   UNL     1       7.916   1.587  22.048  0.00  0.00    -0.326 N 
ATOM     20  H   UNL     1       7.337   1.299  21.270  0.00  0.00    +0.169 HD
ENDBRANCH   7  14
ENDBRANCH   6   7
ENDBRANCH   5   6
ENDBRANCH   4   5
ENDBRANCH   3   4
ENDBRANCH   2   3
ENDBRANCH   1   2
BRANCH   1  21
ATOM     21  C   UNL     1       3.003  -3.474  25.597  0.00  0.00    +0.000 C 
BRANCH  21  22
ATOM     22  C   UNL     1       2.041  -4.213  24.676  0.00  0.00    +0.002 C 
BRANCH  22  23
ATOM     23  C   UNL     1       1.936  -5.691  25.083  0.00  0.00    +0.019 C 
BRANCH  23  24
ATOM     24  C   UNL     1       2.416  -6.569  23.934  0.00  0.00    +0.101 C 
BRANCH  24  25
ATOM     25  N   UNL     1       3.644  -7.279  24.255  0.00  0.00    -0.343 N 
ATOM     26  H   UNL     1       3.882  -7.867  23.463  0.00  0.00    +0.146 HD
BRANCH  25  27
ATOM     27  C   UNL     1       4.781  -6.499  24.641  0.00  0.00    +0.041 A 
ATOM     28  C   UNL     1       5.608  -5.939  23.605  0.00  0.00    +0.021 A 
ATOM     29  C   UNL     1       6.753  -5.216  24.001  0.00  0.00    +0.073 A 
ATOM     30  C   UNL     1       7.579  -4.657  23.032  0.00  0.00    +0.028 A 
ATOM     31  C   UNL     1       7.310  -4.763  21.667  0.00  0.00    +0.002 A 
ATOM     32  C   UNL     1       6.186  -5.453  21.250  0.00  0.00    +0.001 A 
ATOM     33  N   UNL     1       7.096  -5.033  25.282  0.00  0.00    -0.251 NA
ATOM     34  C   UNL     1       6.336  -5.585  26.255  0.00  0.00    +0.047 A 
ATOM     35  C   UNL     1       6.847  -5.366  27.661  0.00  0.00    +0.056 C 
ATOM     36  C   UNL     1       5.807  -5.622  28.746  0.00  0.00    +0.006 C 
ATOM     37  C   UNL     1       5.171  -6.974  28.508  0.00  0.00    +0.005 C 
ATOM     38  C   UNL     1       4.461  -6.970  27.163  0.00  0.00    +0.039 C 
ATOM     39  C   UNL     1       5.353  -6.037  22.203  0.00  0.00    +0.012 A 
ATOM     40  C   UNL     1       5.200  -6.360  25.994  0.00  0.00    -0.005 A 
ENDBRANCH  25  27
ENDBRANCH  24  25
ENDBRANCH  23  24
ENDBRANCH  22  23
ENDBRANCH  21  22
ENDBRANCH   1  21
TORSDOF 13
ENDMDL
MODEL 7
REMARK VINA RESULT:      -6.4      2.263      7.668
REMARK  Name = 
REMARK  13 active torsions:
REMARK  status: ('A' for Active; 'I' for Inactive)
REMARK    1  A    between atoms: C_8  and  N_13
REMARK    2  A    between atoms: N_13  and  C_14
REMARK    3  A    between atoms: C_14  and  C_15
REMARK    4  A    between atoms: C_15  and  C_16
REMARK    5  A    between atoms: C_16  and  C_17
REMARK    6  A    between atoms: C_17  and  C_18
REMARK    7  A    between atoms: C_18  and  C_19
REMARK    8  A    between atoms: C_19  and  C_20
REMARK    9  A    between atoms: C_20  and  C_21
REMARK   10  A    between atoms: C_21  and  C_22
REMARK   11  A    between atoms: C_22  and  C_23
REMARK   12  A    between atoms: C_23  and  N_24
REMARK   13  A    between atoms: N_24  and  C_25
REMARK                            x       y       z     vdW  Elec       q    Type
REMARK                         _______ _______ _______ _____ _____    ______ ____
ROOT
ATOM      1  C   UNL     1       5.139  -2.710  26.532  0.00  0.00    +0.000 C 
ENDROOT
BRANCH   1   2
ATOM      2  C   UNL     1       3.771  -3.092  27.099  0.00  0.00    +0.000 C 
BRANCH   2   3
ATOM      3  C   UNL     1       3.904  -3.988  28.331  0.00  0.00    +0.000 C 
BRANCH   3   4
ATOM      4  C   UNL     1       5.330  -4.442  28.533  0.00  0.00    +0.001 C 
BRANCH   4   5
ATOM      5  C   UNL     1       5.375  -5.852  29.129  0.00  0.00    +0.015 C 
BRANCH   5   6
ATOM      6  C   UNL     1       4.442  -6.719  28.300  0.00  0.00    +0.081 C 
BRANCH   6   7
ATOM      7  N   UNL     1       5.004  -7.130  27.030  0.00  0.00    -0.309 NA
ATOM      8  H   UNL     1       5.456  -8.039  27.124  0.00  0.00    +0.123 HD
BRANCH   7  14
ATOM      9  O   UNL     1       5.188  -3.344  22.010  0.00  0.00    -0.268 OA
ATOM     10  C   UNL     1       4.905  -4.250  22.780  0.00  0.00    +0.249 A 
ATOM     11  C   UNL     1       5.852  -5.345  23.087  0.00  0.00    +0.070 A 
ATOM     12  C   UNL     1       5.502  -6.288  23.971  0.00  0.00    +0.012 A 
ATOM     13  C   UNL     1       4.273  -6.206  24.753  0.00  0.00    -0.011 A 
ATOM     14  C   UNL     1       4.027  -7.171  25.922  0.00  0.00    +0.086 C 
ATOM     15  C   UNL     1       2.666  -6.910  26.611  0.00  0.00    +0.024 C 
ATOM     16  C   UNL     1       1.576  -6.565  25.606  0.00  0.00    +0.008 C 
ATOM     17  C   UNL     1       1.941  -5.279  24.866  0.00  0.00    +0.053 C 
ATOM     18  C   UNL     1       3.347  -5.312  24.344  0.00  0.00    +0.024 A 
ATOM     19  N   UNL     1       3.673  -4.369  23.383  0.00  0.00    -0.326 N 
ATOM     20  H   UNL     1       3.000  -3.660  23.127  0.00  0.00    +0.169 HD
ENDBRANCH   7  14
ENDBRANCH   6   7
ENDBRANCH   5   6
ENDBRANCH   4   5
ENDBRANCH   3   4
ENDBRANCH   2   3
ENDBRANCH   1   2
BRANCH   1  21
ATOM     21  C   UNL     1       4.995  -1.669  25.431  0.00  0.00    +0.000 C 
BRANCH  21  22
ATOM     22  C   UNL     1       5.373  -0.261  25.872  0.00  0.00    +0.002 C 
BRANCH  22  23
ATOM     23  C   UNL     1       6.195  -0.307  27.170  0.00  0.00    +0.019 C 
BRANCH  23  24
ATOM     24  C   UNL     1       7.450   0.542  27.005  0.00  0.00    +0.101 C 
BRANCH  24  25
ATOM     25  N   UNL     1       8.654  -0.266  26.901  0.00  0.00    -0.343 N 
ATOM     26  H   UNL     1       8.649  -0.937  27.661  0.00  0.00    +0.146 HD
BRANCH  25  27
ATOM     27  C   UNL     1       8.898  -0.939  25.660  0.00  0.00    +0.041 A 
ATOM     28  C   UNL     1       8.829  -2.376  25.639  0.00  0.00    +0.021 A 
ATOM     29  C   UNL     1       9.121  -3.027  24.422  0.00  0.00    +0.073 A 
ATOM     30  C   UNL     1       9.066  -4.415  24.357  0.00  0.00    +0.028 A 
ATOM     31  C   UNL     1       8.710  -5.202  25.452  0.00  0.00    +0.002 A 
ATOM     32  C   UNL     1       8.403  -4.591  26.654  0.00  0.00    +0.001 A 
ATOM     33  N   UNL     1       9.454  -2.372  23.303  0.00  0.00    -0.251 NA
ATOM     34  C   UNL     1       9.548  -1.023  23.330  0.00  0.00    +0.047 A 
ATOM     35  C   UNL     1       9.987  -0.390  22.029  0.00  0.00    +0.056 C 
ATOM     36  C   UNL     1       9.702   1.104  21.938  0.00  0.00    +0.006 C 
ATOM     37  C   UNL     1      10.234   1.782  23.182  0.00  0.00    +0.005 C 
ATOM     38  C   UNL     1       9.513   1.236  24.405  0.00  0.00    +0.039 C 
ATOM     39  C   UNL     1       8.469  -3.201  26.747  0.00  0.00    +0.012 A 
ATOM     40  C   UNL     1       9.326  -0.262  24.483  0.00  0.00    -0.005 A 
ENDBRANCH  25  27
ENDBRANCH  24  25
ENDBRANCH  23  24
ENDBRANCH  22  23
ENDBRANCH  21  22
ENDBRANCH   1  21
TORSDOF 13
ENDMDL
MODEL 8
REMARK VINA RESULT:      -6.4      2.235      8.293
REMARK  Name = 
REMARK  13 active torsions:
REMARK  status: ('A' for Active; 'I' for Inactive)
REMARK    1  A    between atoms: C_8  and  N_13
REMARK    2  A    between atoms: N_13  and  C_14
REMARK    3  A    between atoms: C_14  and  C_15
REMARK    4  A    between atoms: C_15  and  C_16
REMARK    5  A    between atoms: C_16  and  C_17
REMARK    6  A    between atoms: C_17  and  C_18
REMARK    7  A    between atoms: C_18  and  C_19
REMARK    8  A    between atoms: C_19  and  C_20
REMARK    9  A    between atoms: C_20  and  C_21
REMARK   10  A    between atoms: C_21  and  C_22
REMARK   11  A    between atoms: C_22  and  C_23
REMARK   12  A    between atoms: C_23  and  N_24
REMARK   13  A    between atoms: N_24  and  C_25
REMARK                            x       y       z     vdW  Elec       q    Type
REMARK                         _______ _______ _______ _____ _____    ______ ____
ROOT
ATOM      1  C   UNL     1       8.581  -0.696  26.316  0.00  0.00    +0.000 C 
ENDROOT
BRANCH   1   2
ATOM      2  C   UNL     1       7.792  -1.990  26.111  0.00  0.00    +0.000 C 
BRANCH   2   3
ATOM      3  C   UNL     1       8.638  -3.062  25.423  0.00  0.00    +0.000 C 
BRANCH   3   4
ATOM      4  C   UNL     1       9.012  -4.169  26.381  0.00  0.00    +0.001 C 
BRANCH   4   5
ATOM      5  C   UNL     1       8.182  -5.427  26.110  0.00  0.00    +0.015 C 
BRANCH   5   6
ATOM      6  C   UNL     1       7.111  -5.499  27.185  0.00  0.00    +0.081 C 
BRANCH   6   7
ATOM      7  N   UNL     1       5.981  -6.332  26.827  0.00  0.00    -0.309 NA
ATOM      8  H   UNL     1       5.670  -6.867  27.637  0.00  0.00    +0.123 HD
BRANCH   7  14
ATOM      9  O   UNL     1       5.850  -4.025  20.976  0.00  0.00    -0.268 OA
ATOM     10  C   UNL     1       5.522  -4.387  22.097  0.00  0.00    +0.249 A 
ATOM     11  C   UNL     1       5.469  -5.816  22.477  0.00  0.00    +0.070 A 
ATOM     12  C   UNL     1       5.143  -6.151  23.732  0.00  0.00    +0.012 A 
ATOM     13  C   UNL     1       4.972  -5.156  24.785  0.00  0.00    -0.011 A 
ATOM     14  C   UNL     1       4.841  -5.588  26.253  0.00  0.00    +0.086 C 
ATOM     15  C   UNL     1       4.666  -4.376  27.199  0.00  0.00    +0.024 C 
ATOM     16  C   UNL     1       3.776  -3.302  26.591  0.00  0.00    +0.008 C 
ATOM     17  C   UNL     1       4.412  -2.763  25.311  0.00  0.00    +0.053 C 
ATOM     18  C   UNL     1       4.849  -3.868  24.394  0.00  0.00    +0.024 A 
ATOM     19  N   UNL     1       5.120  -3.515  23.083  0.00  0.00    -0.326 N 
ATOM     20  H   UNL     1       5.092  -2.541  22.810  0.00  0.00    +0.169 HD
ENDBRANCH   7  14
ENDBRANCH   6   7
ENDBRANCH   5   6
ENDBRANCH   4   5
ENDBRANCH   3   4
ENDBRANCH   2   3
ENDBRANCH   1   2
BRANCH   1  21
ATOM     21  C   UNL     1       7.668   0.422  26.797  0.00  0.00    +0.000 C 
BRANCH  21  22
ATOM     22  C   UNL     1       6.192   0.047  26.789  0.00  0.00    +0.002 C 
BRANCH  22  23
ATOM     23  C   UNL     1       5.443   0.833  25.701  0.00  0.00    +0.019 C 
BRANCH  23  24
ATOM     24  C   UNL     1       6.147   2.163  25.461  0.00  0.00    +0.101 C 
BRANCH  24  25
ATOM     25  N   UNL     1       6.431   2.392  24.053  0.00  0.00    -0.343 N 
ATOM     26  H   UNL     1       6.059   3.302  23.803  0.00  0.00    +0.146 HD
BRANCH  25  27
ATOM     27  C   UNL     1       7.794   2.290  23.625  0.00  0.00    +0.041 A 
ATOM     28  C   UNL     1       8.251   1.031  23.099  0.00  0.00    +0.021 A 
ATOM     29  C   UNL     1       9.609   0.931  22.729  0.00  0.00    +0.073 A 
ATOM     30  C   UNL     1      10.092  -0.267  22.215  0.00  0.00    +0.028 A 
ATOM     31  C   UNL     1       9.277  -1.384  22.027  0.00  0.00    +0.002 A 
ATOM     32  C   UNL     1       7.939  -1.310  22.366  0.00  0.00    +0.001 A 
ATOM     33  N   UNL     1      10.476   1.944  22.846  0.00  0.00    -0.251 NA
ATOM     34  C   UNL     1      10.054   3.118  23.369  0.00  0.00    +0.047 A 
ATOM     35  C   UNL     1      11.128   4.173  23.509  0.00  0.00    +0.056 C 
ATOM     36  C   UNL     1      10.589   5.586  23.704  0.00  0.00    +0.006 C 
ATOM     37  C   UNL     1       9.565   5.572  24.818  0.00  0.00    +0.005 C 
ATOM     38  C   UNL     1       8.403   4.671  24.429  0.00  0.00    +0.039 C 
ATOM     39  C   UNL     1       7.436  -0.124  22.900  0.00  0.00    +0.012 A 
ATOM     40  C   UNL     1       8.744   3.333  23.813  0.00  0.00    -0.005 A 
ENDBRANCH  25  27
ENDBRANCH  24  25
ENDBRANCH  23  24
ENDBRANCH  22  23
ENDBRANCH  21  22
ENDBRANCH   1  21
TORSDOF 13
ENDMDL
MODEL 9
REMARK VINA RESULT:      -6.3      2.125      3.664
REMARK  Name = 
REMARK  13 active torsions:
REMARK  status: ('A' for Active; 'I' for Inactive)
REMARK    1  A    between atoms: C_8  and  N_13
REMARK    2  A    between atoms: N_13  and  C_14
REMARK    3  A    between atoms: C_14  and  C_15
REMARK    4  A    between atoms: C_15  and  C_16
REMARK    5  A    between atoms: C_16  and  C_17
REMARK    6  A    between atoms: C_17  and  C_18
REMARK    7  A    between atoms: C_18  and  C_19
REMARK    8  A    between atoms: C_19  and  C_20
REMARK    9  A    between atoms: C_20  and  C_21
REMARK   10  A    between atoms: C_21  and  C_22
REMARK   11  A    between atoms: C_22  and  C_23
REMARK   12  A    between atoms: C_23  and  N_24
REMARK   13  A    between atoms: N_24  and  C_25
REMARK                            x       y       z     vdW  Elec       q    Type
REMARK                         _______ _______ _______ _____ _____    ______ ____
ROOT
ATOM      1  C   UNL     1       7.016  -1.545  23.641  0.00  0.00    +0.000 C 
ENDROOT
BRANCH   1   2
ATOM      2  C   UNL     1       8.332  -1.882  22.939  0.00  0.00    +0.000 C 
BRANCH   2   3
ATOM      3  C   UNL     1       8.636  -0.894  21.812  0.00  0.00    +0.000 C 
BRANCH   3   4
ATOM      4  C   UNL     1      10.068  -0.416  21.869  0.00  0.00    +0.001 C 
BRANCH   4   5
ATOM      5  C   UNL     1      10.566  -0.356  23.316  0.00  0.00    +0.015 C 
BRANCH   5   6
ATOM      6  C   UNL     1      10.650   1.111  23.701  0.00  0.00    +0.081 C 
BRANCH   6   7
ATOM      7  N   UNL     1       9.867   1.452  24.872  0.00  0.00    -0.309 NA
ATOM      8  H   UNL     1      10.475   1.805  25.610  0.00  0.00    +0.123 HD
BRANCH   7  14
ATOM      9  O   UNL     1       3.802   0.419  26.181  0.00  0.00    -0.268 OA
ATOM     10  C   UNL     1       4.856   0.958  25.877  0.00  0.00    +0.249 A 
ATOM     11  C   UNL     1       5.941   1.174  26.860  0.00  0.00    +0.070 A 
ATOM     12  C   UNL     1       7.090   1.733  26.460  0.00  0.00    +0.012 A 
ATOM     13  C   UNL     1       7.372   2.012  25.056  0.00  0.00    -0.011 A 
ATOM     14  C   UNL     1       8.784   2.423  24.612  0.00  0.00    +0.086 C 
ATOM     15  C   UNL     1       8.861   2.673  23.086  0.00  0.00    +0.024 C 
ATOM     16  C   UNL     1       7.614   3.370  22.560  0.00  0.00    +0.008 C 
ATOM     17  C   UNL     1       6.388   2.488  22.793  0.00  0.00    +0.053 C 
ATOM     18  C   UNL     1       6.325   1.977  24.203  0.00  0.00    +0.024 A 
ATOM     19  N   UNL     1       5.110   1.462  24.621  0.00  0.00    -0.326 N 
ATOM     20  H   UNL     1       4.348   1.376  23.962  0.00  0.00    +0.169 HD
ENDBRANCH   7  14
ENDBRANCH   6   7
ENDBRANCH   5   6
ENDBRANCH   4   5
ENDBRANCH   3   4
ENDBRANCH   2   3
ENDBRANCH   1   2
BRANCH   1  21
ATOM     21  C   UNL     1       7.103  -1.860  25.128  0.00  0.00    +0.000 C 
BRANCH  21  22
ATOM     22  C   UNL     1       8.510  -2.208  25.594  0.00  0.00    +0.002 C 
BRANCH  22  23
ATOM     23  C   UNL     1       8.459  -3.221  26.749  0.00  0.00    +0.019 C 
BRANCH  23  24
ATOM     24  C   UNL     1       9.084  -4.536  26.297  0.00  0.00    +0.101 C 
BRANCH  24  25
ATOM     25  N   UNL     1       8.145  -5.645  26.358  0.00  0.00    -0.343 N 
ATOM     26  H   UNL     1       8.133  -5.993  27.311  0.00  0.00    +0.146 HD
BRANCH  25  27
ATOM     27  C   UNL     1       6.806  -5.407  25.910  0.00  0.00    +0.041 A 
ATOM     28  C   UNL     1       6.573  -5.283  24.495  0.00  0.00    +0.021 A 
ATOM     29  C   UNL     1       5.257  -4.998  24.072  0.00  0.00    +0.073 A 
ATOM     30  C   UNL     1       4.987  -4.871  22.714  0.00  0.00    +0.028 A 
ATOM     31  C   UNL     1       5.969  -5.035  21.737  0.00  0.00    +0.002 A 
ATOM     32  C   UNL     1       7.264  -5.330  22.121  0.00  0.00    +0.001 A 
ATOM     33  N   UNL     1       4.233  -4.841  24.920  0.00  0.00    -0.251 NA
ATOM     34  C   UNL     1       4.458  -4.928  26.251  0.00  0.00    +0.047 A 
ATOM     35  C   UNL     1       3.245  -4.677  27.118  0.00  0.00    +0.056 C 
ATOM     36  C   UNL     1       3.396  -5.166  28.554  0.00  0.00    +0.006 C 
ATOM     37  C   UNL     1       4.698  -4.639  29.118  0.00  0.00    +0.005 C 
ATOM     38  C   UNL     1       5.861  -5.186  28.306  0.00  0.00    +0.039 C 
ATOM     39  C   UNL     1       7.562  -5.445  23.478  0.00  0.00    +0.012 A 
ATOM     40  C   UNL     1       5.723  -5.164  26.801  0.00  0.00    -0.005 A 
ENDBRANCH  25  27
ENDBRANCH  24  25
ENDBRANCH  23  24
ENDBRANCH  22  23
ENDBRANCH  21  22
ENDBRANCH   1  21
TORSDOF 13
ENDMDL
