MODEL 1
REMARK VINA RESULT:      -5.9      0.000      0.000
REMARK  Name = 
REMARK  16 active torsions:
REMARK  status: ('A' for Active; 'I' for Inactive)
REMARK    1  A    between atoms: C_2  and  O_3
REMARK    2  A    between atoms: C_2  and  C_4
REMARK    3  A    between atoms: C_2  and  C_10
REMARK    4  A    between atoms: C_4  and  C_5
REMARK    5  A    between atoms: C_5  and  C_6
REMARK    6  A    between atoms: C_6  and  C_7
REMARK    7  A    between atoms: C_7  and  O_8
REMARK    8  A    between atoms: C_11  and  C_12
REMARK    9  A    between atoms: C_13  and  C_14
REMARK   10  A    between atoms: C_14  and  C_15
REMARK   11  A    between atoms: C_16  and  C_17
REMARK   12  A    between atoms: C_17  and  C_18
REMARK   13  A    between atoms: C_19  and  C_20
REMARK   14  A    between atoms: C_20  and  C_21
REMARK   15  A    between atoms: C_22  and  C_23
REMARK   16  A    between atoms: C_23  and  C_24
REMARK                            x       y       z     vdW  Elec       q    Type
REMARK                         _______ _______ _______ _____ _____    ______ ____
ROOT
ATOM      1  C   UNL     1       7.038   2.191  22.258  0.00  0.00    -0.004 C 
ATOM      2  C   UNL     1       8.063   1.335  22.114  0.00  0.00    -0.023 C 
ENDROOT
BRANCH   1   4
ATOM      3  C   UNL     1       6.931   4.543  22.941  0.00  0.00    +0.004 C 
ATOM      4  C   UNL     1       7.144   3.606  22.006  0.00  0.00    -0.002 C 
BRANCH   3   5
ATOM      5  C   UNL     1       7.130   6.008  22.693  0.00  0.00    +0.137 C 
BRANCH   5   6
ATOM      6  O   UNL     1       7.542   6.141  21.338  0.00  0.00    -0.388 OA
ATOM      7  H   UNL     1       7.647   5.243  20.981  0.00  0.00    +0.210 HD
ENDBRANCH   5   6
BRANCH   5   8
ATOM      8  C   UNL     1       8.202   6.589  23.619  0.00  0.00    +0.036 C 
BRANCH   8   9
ATOM      9  C   UNL     1       9.616   6.185  23.187  0.00  0.00    +0.014 C 
BRANCH   9  10
ATOM     10  C   UNL     1      10.580   6.173  24.375  0.00  0.00    +0.120 C 
BRANCH  10  11
ATOM     11  C   UNL     1      11.994   5.864  23.941  0.00  0.00    +0.305 C 
ATOM     12  O   UNL     1      12.305   5.227  22.946  0.00  0.00    -0.251 OA
BRANCH  11  13
ATOM     13  O   UNL     1      12.913   6.384  24.785  0.00  0.00    -0.481 OA
ATOM     14  H   UNL     1      13.831   6.311  24.461  0.00  0.00    +0.295 HD
ENDBRANCH  11  13
ENDBRANCH  10  11
ENDBRANCH   9  10
ENDBRANCH   8   9
ENDBRANCH   5   8
ENDBRANCH   3   5
ENDBRANCH   1   4
BRANCH   2  15
ATOM     15  C   UNL     1       9.485   1.709  21.801  0.00  0.00    +0.054 C 
BRANCH  15  16
ATOM     16  C   UNL     1      10.162   2.453  22.917  0.00  0.00    -0.027 C 
ATOM     17  C   UNL     1      10.699   1.842  23.988  0.00  0.00    -0.027 C 
BRANCH  17  18
ATOM     18  C   UNL     1      10.765   0.353  24.192  0.00  0.00    +0.053 C 
BRANCH  18  19
ATOM     19  C   UNL     1       9.730  -0.142  25.163  0.00  0.00    -0.027 C 
ATOM     20  C   UNL     1       9.093  -1.321  25.042  0.00  0.00    -0.027 C 
BRANCH  20  21
ATOM     21  C   UNL     1       9.389  -2.358  23.996  0.00  0.00    +0.053 C 
BRANCH  21  22
ATOM     22  C   UNL     1       8.524  -2.225  22.777  0.00  0.00    -0.027 C 
ATOM     23  C   UNL     1       7.676  -3.176  22.345  0.00  0.00    -0.031 C 
BRANCH  23  24
ATOM     24  C   UNL     1       7.433  -4.498  23.015  0.00  0.00    +0.023 C 
ATOM     25  C   UNL     1       7.256  -5.622  22.007  0.00  0.00    +0.008 C 
ENDBRANCH  23  24
ENDBRANCH  21  22
ENDBRANCH  20  21
ENDBRANCH  18  19
ENDBRANCH  17  18
ENDBRANCH  15  16
ENDBRANCH   2  15
TORSDOF 15
ENDMDL
MODEL 2
REMARK VINA RESULT:      -5.8      5.827      9.495
REMARK  Name = 
REMARK  16 active torsions:
REMARK  status: ('A' for Active; 'I' for Inactive)
REMARK    1  A    between atoms: C_2  and  O_3
REMARK    2  A    between atoms: C_2  and  C_4
REMARK    3  A    between atoms: C_2  and  C_10
REMARK    4  A    between atoms: C_4  and  C_5
REMARK    5  A    between atoms: C_5  and  C_6
REMARK    6  A    between atoms: C_6  and  C_7
REMARK    7  A    between atoms: C_7  and  O_8
REMARK    8  A    between atoms: C_11  and  C_12
REMARK    9  A    between atoms: C_13  and  C_14
REMARK   10  A    between atoms: C_14  and  C_15
REMARK   11  A    between atoms: C_16  and  C_17
REMARK   12  A    between atoms: C_17  and  C_18
REMARK   13  A    between atoms: C_19  and  C_20
REMARK   14  A    between atoms: C_20  and  C_21
REMARK   15  A    between atoms: C_22  and  C_23
REMARK   16  A    between atoms: C_23  and  C_24
REMARK                            x       y       z     vdW  Elec       q    Type
REMARK                         _______ _______ _______ _____ _____    ______ ____
ROOT
ATOM      1  C   UNL     1       9.331  -4.212  25.380  0.00  0.00    -0.004 C 
ATOM      2  C   UNL     1       9.045  -3.957  24.092  0.00  0.00    -0.023 C 
ENDROOT
BRANCH   1   4
ATOM      3  C   UNL     1       7.333  -4.578  26.752  0.00  0.00    +0.004 C 
ATOM      4  C   UNL     1       8.492  -5.012  26.236  0.00  0.00    -0.002 C 
BRANCH   3   5
ATOM      5  C   UNL     1       6.424  -5.447  27.570  0.00  0.00    +0.137 C 
BRANCH   5   6
ATOM      6  O   UNL     1       7.260  -6.325  28.315  0.00  0.00    -0.388 OA
ATOM      7  H   UNL     1       8.159  -6.240  27.954  0.00  0.00    +0.210 HD
ENDBRANCH   5   6
BRANCH   5   8
ATOM      8  C   UNL     1       5.482  -6.261  26.679  0.00  0.00    +0.036 C 
BRANCH   8   9
ATOM      9  C   UNL     1       5.034  -5.472  25.444  0.00  0.00    +0.014 C 
BRANCH   9  10
ATOM     10  C   UNL     1       4.870  -6.386  24.228  0.00  0.00    +0.120 C 
BRANCH  10  11
ATOM     11  C   UNL     1       3.941  -5.783  23.199  0.00  0.00    +0.305 C 
ATOM     12  O   UNL     1       3.955  -4.619  22.830  0.00  0.00    -0.251 OA
BRANCH  11  13
ATOM     13  O   UNL     1       3.069  -6.690  22.704  0.00  0.00    -0.481 OA
ATOM     14  H   UNL     1       3.349  -7.616  22.832  0.00  0.00    +0.295 HD
ENDBRANCH  11  13
ENDBRANCH  10  11
ENDBRANCH   9  10
ENDBRANCH   8   9
ENDBRANCH   5   8
ENDBRANCH   3   5
ENDBRANCH   1   4
BRANCH   2  15
ATOM     15  C   UNL     1       7.779  -4.342  23.379  0.00  0.00    +0.054 C 
BRANCH  15  16
ATOM     16  C   UNL     1       7.321  -3.312  22.387  0.00  0.00    -0.027 C 
ATOM     17  C   UNL     1       6.553  -2.259  22.722  0.00  0.00    -0.027 C 
BRANCH  17  18
ATOM     18  C   UNL     1       6.108  -1.923  24.119  0.00  0.00    +0.053 C 
BRANCH  18  19
ATOM     19  C   UNL     1       6.234  -0.458  24.428  0.00  0.00    -0.027 C 
ATOM     20  C   UNL     1       7.321   0.096  24.997  0.00  0.00    -0.027 C 
BRANCH  20  21
ATOM     21  C   UNL     1       8.598  -0.631  25.308  0.00  0.00    +0.053 C 
BRANCH  21  22
ATOM     22  C   UNL     1       9.824   0.170  24.982  0.00  0.00    -0.027 C 
ATOM     23  C   UNL     1      10.504   0.072  23.825  0.00  0.00    -0.031 C 
BRANCH  23  24
ATOM     24  C   UNL     1      10.140  -0.818  22.671  0.00  0.00    +0.023 C 
ATOM     25  C   UNL     1       9.378  -0.067  21.592  0.00  0.00    +0.008 C 
ENDBRANCH  23  24
ENDBRANCH  21  22
ENDBRANCH  20  21
ENDBRANCH  18  19
ENDBRANCH  17  18
ENDBRANCH  15  16
ENDBRANCH   2  15
TORSDOF 15
ENDMDL
MODEL 3
REMARK VINA RESULT:      -5.8      3.088      6.688
REMARK  Name = 
REMARK  16 active torsions:
REMARK  status: ('A' for Active; 'I' for Inactive)
REMARK    1  A    between atoms: C_2  and  O_3
REMARK    2  A    between atoms: C_2  and  C_4
REMARK    3  A    between atoms: C_2  and  C_10
REMARK    4  A    between atoms: C_4  and  C_5
REMARK    5  A    between atoms: C_5  and  C_6
REMARK    6  A    between atoms: C_6  and  C_7
REMARK    7  A    between atoms: C_7  and  O_8
REMARK    8  A    between atoms: C_11  and  C_12
REMARK    9  A    between atoms: C_13  and  C_14
REMARK   10  A    between atoms: C_14  and  C_15
REMARK   11  A    between atoms: C_16  and  C_17
REMARK   12  A    between atoms: C_17  and  C_18
REMARK   13  A    between atoms: C_19  and  C_20
REMARK   14  A    between atoms: C_20  and  C_21
REMARK   15  A    between atoms: C_22  and  C_23
REMARK   16  A    between atoms: C_23  and  C_24
REMARK                            x       y       z     vdW  Elec       q    Type
REMARK                         _______ _______ _______ _____ _____    ______ ____
ROOT
ATOM      1  C   UNL     1       9.261  -4.717  25.603  0.00  0.00    -0.004 C 
ATOM      2  C   UNL     1       8.351  -5.316  26.390  0.00  0.00    -0.023 C 
ENDROOT
BRANCH   1   4
ATOM      3  C   UNL     1       9.728  -2.888  24.040  0.00  0.00    +0.004 C 
ATOM      4  C   UNL     1       9.148  -3.353  25.156  0.00  0.00    -0.002 C 
BRANCH   3   5
ATOM      5  C   UNL     1       9.534  -1.490  23.535  0.00  0.00    +0.137 C 
BRANCH   5   6
ATOM      6  O   UNL     1      10.419  -1.327  22.433  0.00  0.00    -0.388 OA
ATOM      7  H   UNL     1      11.240  -1.801  22.652  0.00  0.00    +0.210 HD
ENDBRANCH   5   6
BRANCH   5   8
ATOM      8  C   UNL     1       9.860  -0.456  24.617  0.00  0.00    +0.036 C 
BRANCH   8   9
ATOM      9  C   UNL     1      10.797   0.641  24.101  0.00  0.00    +0.014 C 
BRANCH   9  10
ATOM     10  C   UNL     1      10.079   1.987  24.004  0.00  0.00    +0.120 C 
BRANCH  10  11
ATOM     11  C   UNL     1       9.366   2.145  22.681  0.00  0.00    +0.305 C 
ATOM     12  O   UNL     1       8.155   2.217  22.535  0.00  0.00    -0.251 OA
BRANCH  11  13
ATOM     13  O   UNL     1      10.227   2.207  21.640  0.00  0.00    -0.481 OA
ATOM     14  H   UNL     1      10.602   1.343  21.386  0.00  0.00    +0.295 HD
ENDBRANCH  11  13
ENDBRANCH  10  11
ENDBRANCH   9  10
ENDBRANCH   8   9
ENDBRANCH   5   8
ENDBRANCH   3   5
ENDBRANCH   1   4
BRANCH   2  15
ATOM     15  C   UNL     1       7.036  -4.727  26.820  0.00  0.00    +0.054 C 
BRANCH  15  16
ATOM     16  C   UNL     1       6.034  -5.762  27.245  0.00  0.00    -0.027 C 
ATOM     17  C   UNL     1       5.031  -6.183  26.452  0.00  0.00    -0.027 C 
BRANCH  17  18
ATOM     18  C   UNL     1       4.810  -5.744  25.031  0.00  0.00    +0.053 C 
BRANCH  18  19
ATOM     19  C   UNL     1       3.861  -4.583  24.928  0.00  0.00    -0.027 C 
ATOM     20  C   UNL     1       4.233  -3.342  24.565  0.00  0.00    -0.027 C 
BRANCH  20  21
ATOM     21  C   UNL     1       5.611  -2.952  24.109  0.00  0.00    +0.053 C 
BRANCH  21  22
ATOM     22  C   UNL     1       5.746  -2.913  22.615  0.00  0.00    -0.027 C 
ATOM     23  C   UNL     1       6.458  -3.801  21.899  0.00  0.00    -0.031 C 
BRANCH  23  24
ATOM     24  C   UNL     1       7.202  -4.980  22.459  0.00  0.00    +0.023 C 
ATOM     25  C   UNL     1       6.685  -6.296  21.902  0.00  0.00    +0.008 C 
ENDBRANCH  23  24
ENDBRANCH  21  22
ENDBRANCH  20  21
ENDBRANCH  18  19
ENDBRANCH  17  18
ENDBRANCH  15  16
ENDBRANCH   2  15
TORSDOF 15
ENDMDL
MODEL 4
REMARK VINA RESULT:      -5.7      5.617      8.492
REMARK  Name = 
REMARK  16 active torsions:
REMARK  status: ('A' for Active; 'I' for Inactive)
REMARK    1  A    between atoms: C_2  and  O_3
REMARK    2  A    between atoms: C_2  and  C_4
REMARK    3  A    between atoms: C_2  and  C_10
REMARK    4  A    between atoms: C_4  and  C_5
REMARK    5  A    between atoms: C_5  and  C_6
REMARK    6  A    between atoms: C_6  and  C_7
REMARK    7  A    between atoms: C_7  and  O_8
REMARK    8  A    between atoms: C_11  and  C_12
REMARK    9  A    between atoms: C_13  and  C_14
REMARK   10  A    between atoms: C_14  and  C_15
REMARK   11  A    between atoms: C_16  and  C_17
REMARK   12  A    between atoms: C_17  and  C_18
REMARK   13  A    between atoms: C_19  and  C_20
REMARK   14  A    between atoms: C_20  and  C_21
REMARK   15  A    between atoms: C_22  and  C_23
REMARK   16  A    between atoms: C_23  and  C_24
REMARK                            x       y       z     vdW  Elec       q    Type
REMARK                         _______ _______ _______ _____ _____    ______ ____
ROOT
ATOM      1  C   UNL     1       9.909  -1.858  22.956  0.00  0.00    -0.004 C 
ATOM      2  C   UNL     1      10.170  -0.540  22.932  0.00  0.00    -0.023 C 
ENDROOT
BRANCH   1   4
ATOM      3  C   UNL     1       9.222  -3.803  24.280  0.00  0.00    +0.004 C 
ATOM      4  C   UNL     1       9.876  -2.639  24.166  0.00  0.00    -0.002 C 
BRANCH   3   5
ATOM      5  C   UNL     1       9.266  -4.652  25.515  0.00  0.00    +0.137 C 
BRANCH   5   6
ATOM      6  O   UNL     1      10.238  -5.664  25.280  0.00  0.00    -0.388 OA
ATOM      7  H   UNL     1      10.911  -5.283  24.690  0.00  0.00    +0.210 HD
ENDBRANCH   5   6
BRANCH   5   8
ATOM      8  C   UNL     1       7.906  -5.297  25.796  0.00  0.00    +0.036 C 
BRANCH   8   9
ATOM      9  C   UNL     1       7.356  -4.905  27.172  0.00  0.00    +0.014 C 
BRANCH   9  10
ATOM     10  C   UNL     1       5.968  -5.500  27.408  0.00  0.00    +0.120 C 
BRANCH  10  11
ATOM     11  C   UNL     1       5.918  -6.309  28.684  0.00  0.00    +0.305 C 
ATOM     12  O   UNL     1       6.176  -5.884  29.800  0.00  0.00    -0.251 OA
BRANCH  11  13
ATOM     13  O   UNL     1       5.540  -7.588  28.464  0.00  0.00    -0.481 OA
ATOM     14  H   UNL     1       4.945  -7.697  27.698  0.00  0.00    +0.295 HD
ENDBRANCH  11  13
ENDBRANCH  10  11
ENDBRANCH   9  10
ENDBRANCH   8   9
ENDBRANCH   5   8
ENDBRANCH   3   5
ENDBRANCH   1   4
BRANCH   2  15
ATOM     15  C   UNL     1      10.586   0.296  24.110  0.00  0.00    +0.054 C 
BRANCH  15  16
ATOM     16  C   UNL     1       9.665   1.454  24.370  0.00  0.00    -0.027 C 
ATOM     17  C   UNL     1       8.492   1.330  25.016  0.00  0.00    -0.027 C 
BRANCH  17  18
ATOM     18  C   UNL     1       7.969   0.056  25.623  0.00  0.00    +0.053 C 
BRANCH  18  19
ATOM     19  C   UNL     1       6.479   0.081  25.820  0.00  0.00    -0.027 C 
ATOM     20  C   UNL     1       5.646  -0.864  25.345  0.00  0.00    -0.027 C 
BRANCH  20  21
ATOM     21  C   UNL     1       6.077  -2.125  24.651  0.00  0.00    +0.053 C 
BRANCH  21  22
ATOM     22  C   UNL     1       6.224  -1.957  23.167  0.00  0.00    -0.027 C 
ATOM     23  C   UNL     1       6.169  -2.970  22.284  0.00  0.00    -0.031 C 
BRANCH  23  24
ATOM     24  C   UNL     1       5.926  -4.413  22.623  0.00  0.00    +0.023 C 
ATOM     25  C   UNL     1       6.881  -5.338  21.887  0.00  0.00    +0.008 C 
ENDBRANCH  23  24
ENDBRANCH  21  22
ENDBRANCH  20  21
ENDBRANCH  18  19
ENDBRANCH  17  18
ENDBRANCH  15  16
ENDBRANCH   2  15
TORSDOF 15
ENDMDL
MODEL 5
REMARK VINA RESULT:      -5.7      1.875      3.931
REMARK  Name = 
REMARK  16 active torsions:
REMARK  status: ('A' for Active; 'I' for Inactive)
REMARK    1  A    between atoms: C_2  and  O_3
REMARK    2  A    between atoms: C_2  and  C_4
REMARK    3  A    between atoms: C_2  and  C_10
REMARK    4  A    between atoms: C_4  and  C_5
REMARK    5  A    between atoms: C_5  and  C_6
REMARK    6  A    between atoms: C_6  and  C_7
REMARK    7  A    between atoms: C_7  and  O_8
REMARK    8  A    between atoms: C_11  and  C_12
REMARK    9  A    between atoms: C_13  and  C_14
REMARK   10  A    between atoms: C_14  and  C_15
REMARK   11  A    between atoms: C_16  and  C_17
REMARK   12  A    between atoms: C_17  and  C_18
REMARK   13  A    between atoms: C_19  and  C_20
REMARK   14  A    between atoms: C_20  and  C_21
REMARK   15  A    between atoms: C_22  and  C_23
REMARK   16  A    between atoms: C_23  and  C_24
REMARK                            x       y       z     vdW  Elec       q    Type
REMARK                         _______ _______ _______ _____ _____    ______ ____
ROOT
ATOM      1  C   UNL     1      10.089  -1.635  22.498  0.00  0.00    -0.004 C 
ATOM      2  C   UNL     1       9.857  -2.129  23.726  0.00  0.00    -0.023 C 
ENDROOT
BRANCH   1   4
ATOM      3  C   UNL     1       8.936   0.432  21.862  0.00  0.00    +0.004 C 
ATOM      4  C   UNL     1      10.056  -0.229  22.188  0.00  0.00    -0.002 C 
BRANCH   3   5
ATOM      5  C   UNL     1       8.895   1.912  21.627  0.00  0.00    +0.137 C 
BRANCH   5   6
ATOM      6  O   UNL     1      10.246   2.343  21.504  0.00  0.00    -0.388 OA
ATOM      7  H   UNL     1      10.799   1.684  21.957  0.00  0.00    +0.210 HD
ENDBRANCH   5   6
BRANCH   5   8
ATOM      8  C   UNL     1       8.224   2.643  22.793  0.00  0.00    +0.036 C 
BRANCH   8   9
ATOM      9  C   UNL     1       9.217   2.977  23.911  0.00  0.00    +0.014 C 
BRANCH   9  10
ATOM     10  C   UNL     1       9.387   4.488  24.073  0.00  0.00    +0.120 C 
BRANCH  10  11
ATOM     11  C   UNL     1      10.801   4.925  23.767  0.00  0.00    +0.305 C 
ATOM     12  O   UNL     1      11.681   4.207  23.317  0.00  0.00    -0.251 OA
BRANCH  11  13
ATOM     13  O   UNL     1      11.003   6.234  24.041  0.00  0.00    -0.481 OA
ATOM     14  H   UNL     1      10.591   6.530  24.875  0.00  0.00    +0.295 HD
ENDBRANCH  11  13
ENDBRANCH  10  11
ENDBRANCH   9  10
ENDBRANCH   8   9
ENDBRANCH   5   8
ENDBRANCH   3   5
ENDBRANCH   1   4
BRANCH   2  15
ATOM     15  C   UNL     1       9.412  -1.336  24.923  0.00  0.00    +0.054 C 
BRANCH  15  16
ATOM     16  C   UNL     1       7.921  -1.167  25.000  0.00  0.00    -0.027 C 
ATOM     17  C   UNL     1       7.122  -2.000  25.692  0.00  0.00    -0.027 C 
BRANCH  17  18
ATOM     18  C   UNL     1       7.595  -3.156  26.530  0.00  0.00    +0.053 C 
BRANCH  18  19
ATOM     19  C   UNL     1       6.775  -4.397  26.315  0.00  0.00    -0.027 C 
ATOM     20  C   UNL     1       6.958  -5.246  25.288  0.00  0.00    -0.027 C 
BRANCH  20  21
ATOM     21  C   UNL     1       8.061  -5.148  24.272  0.00  0.00    +0.053 C 
BRANCH  21  22
ATOM     22  C   UNL     1       7.644  -5.610  22.907  0.00  0.00    -0.027 C 
ATOM     23  C   UNL     1       7.084  -4.813  21.979  0.00  0.00    -0.031 C 
BRANCH  23  24
ATOM     24  C   UNL     1       6.812  -3.344  22.139  0.00  0.00    +0.023 C 
ATOM     25  C   UNL     1       5.399  -3.078  22.632  0.00  0.00    +0.008 C 
ENDBRANCH  23  24
ENDBRANCH  21  22
ENDBRANCH  20  21
ENDBRANCH  18  19
ENDBRANCH  17  18
ENDBRANCH  15  16
ENDBRANCH   2  15
TORSDOF 15
ENDMDL
MODEL 6
REMARK VINA RESULT:      -5.7      4.308      7.714
REMARK  Name = 
REMARK  16 active torsions:
REMARK  status: ('A' for Active; 'I' for Inactive)
REMARK    1  A    between atoms: C_2  and  O_3
REMARK    2  A    between atoms: C_2  and  C_4
REMARK    3  A    between atoms: C_2  and  C_10
REMARK    4  A    between atoms: C_4  and  C_5
REMARK    5  A    between atoms: C_5  and  C_6
REMARK    6  A    between atoms: C_6  and  C_7
REMARK    7  A    between atoms: C_7  and  O_8
REMARK    8  A    between atoms: C_11  and  C_12
REMARK    9  A    between atoms: C_13  and  C_14
REMARK   10  A    between atoms: C_14  and  C_15
REMARK   11  A    between atoms: C_16  and  C_17
REMARK   12  A    between atoms: C_17  and  C_18
REMARK   13  A    between atoms: C_19  and  C_20
REMARK   14  A    between atoms: C_20  and  C_21
REMARK   15  A    between atoms: C_22  and  C_23
REMARK   16  A    between atoms: C_23  and  C_24
REMARK                            x       y       z     vdW  Elec       q    Type
REMARK                         _______ _______ _______ _____ _____    ______ ____
ROOT
ATOM      1  C   UNL     1       9.125  -0.164  21.221  0.00  0.00    -0.004 C 
ATOM      2  C   UNL     1       8.533   1.034  21.081  0.00  0.00    -0.023 C 
ENDROOT
BRANCH   1   4
ATOM      3  C   UNL     1       9.591  -1.921  22.865  0.00  0.00    +0.004 C 
ATOM      4  C   UNL     1       8.726  -1.135  22.208  0.00  0.00    -0.002 C 
BRANCH   3   5
ATOM      5  C   UNL     1       9.177  -2.866  23.953  0.00  0.00    +0.137 C 
BRANCH   5   6
ATOM      6  O   UNL     1      10.278  -3.738  24.177  0.00  0.00    -0.388 OA
ATOM      7  H   UNL     1       9.944  -4.648  24.101  0.00  0.00    +0.210 HD
ENDBRANCH   5   6
BRANCH   5   8
ATOM      8  C   UNL     1       7.946  -3.681  23.545  0.00  0.00    +0.036 C 
BRANCH   8   9
ATOM      9  C   UNL     1       7.953  -5.083  24.165  0.00  0.00    +0.014 C 
BRANCH   9  10
ATOM     10  C   UNL     1       7.190  -5.110  25.490  0.00  0.00    +0.120 C 
BRANCH  10  11
ATOM     11  C   UNL     1       8.129  -5.187  26.672  0.00  0.00    +0.305 C 
ATOM     12  O   UNL     1       9.216  -4.634  26.748  0.00  0.00    -0.251 OA
BRANCH  11  13
ATOM     13  O   UNL     1       7.630  -5.946  27.673  0.00  0.00    -0.481 OA
ATOM     14  H   UNL     1       7.123  -5.440  28.336  0.00  0.00    +0.295 HD
ENDBRANCH  11  13
ENDBRANCH  10  11
ENDBRANCH   9  10
ENDBRANCH   8   9
ENDBRANCH   5   8
ENDBRANCH   3   5
ENDBRANCH   1   4
BRANCH   2  15
ATOM     15  C   UNL     1       7.474   1.604  21.983  0.00  0.00    +0.054 C 
BRANCH  15  16
ATOM     16  C   UNL     1       7.208   3.062  21.738  0.00  0.00    -0.027 C 
ATOM     17  C   UNL     1       7.476   4.021  22.643  0.00  0.00    -0.027 C 
BRANCH  17  18
ATOM     18  C   UNL     1       8.133   3.791  23.976  0.00  0.00    +0.053 C 
BRANCH  18  19
ATOM     19  C   UNL     1       9.536   4.327  24.027  0.00  0.00    -0.027 C 
ATOM     20  C   UNL     1      10.630   3.587  23.767  0.00  0.00    -0.027 C 
BRANCH  20  21
ATOM     21  C   UNL     1      10.614   2.162  23.290  0.00  0.00    +0.053 C 
BRANCH  21  22
ATOM     22  C   UNL     1      11.100   1.191  24.326  0.00  0.00    -0.027 C 
ATOM     23  C   UNL     1      10.298   0.557  25.199  0.00  0.00    -0.031 C 
BRANCH  23  24
ATOM     24  C   UNL     1       8.803   0.687  25.267  0.00  0.00    +0.023 C 
ATOM     25  C   UNL     1       8.201  -0.215  26.332  0.00  0.00    +0.008 C 
ENDBRANCH  23  24
ENDBRANCH  21  22
ENDBRANCH  20  21
ENDBRANCH  18  19
ENDBRANCH  17  18
ENDBRANCH  15  16
ENDBRANCH   2  15
TORSDOF 15
ENDMDL
MODEL 7
REMARK VINA RESULT:      -5.7      4.749      8.774
REMARK  Name = 
REMARK  16 active torsions:
REMARK  status: ('A' for Active; 'I' for Inactive)
REMARK    1  A    between atoms: C_2  and  O_3
REMARK    2  A    between atoms: C_2  and  C_4
REMARK    3  A    between atoms: C_2  and  C_10
REMARK    4  A    between atoms: C_4  and  C_5
REMARK    5  A    between atoms: C_5  and  C_6
REMARK    6  A    between atoms: C_6  and  C_7
REMARK    7  A    between atoms: C_7  and  O_8
REMARK    8  A    between atoms: C_11  and  C_12
REMARK    9  A    between atoms: C_13  and  C_14
REMARK   10  A    between atoms: C_14  and  C_15
REMARK   11  A    between atoms: C_16  and  C_17
REMARK   12  A    between atoms: C_17  and  C_18
REMARK   13  A    between atoms: C_19  and  C_20
REMARK   14  A    between atoms: C_20  and  C_21
REMARK   15  A    between atoms: C_22  and  C_23
REMARK   16  A    between atoms: C_23  and  C_24
REMARK                            x       y       z     vdW  Elec       q    Type
REMARK                         _______ _______ _______ _____ _____    ______ ____
ROOT
ATOM      1  C   UNL     1       8.520  -1.780  26.266  0.00  0.00    -0.004 C 
ATOM      2  C   UNL     1       8.548  -1.118  25.098  0.00  0.00    -0.023 C 
ENDROOT
BRANCH   1   4
ATOM      3  C   UNL     1       7.268  -3.829  26.758  0.00  0.00    +0.004 C 
ATOM      4  C   UNL     1       8.391  -3.212  26.364  0.00  0.00    -0.002 C 
BRANCH   3   5
ATOM      5  C   UNL     1       7.114  -5.321  26.772  0.00  0.00    +0.137 C 
BRANCH   5   6
ATOM      6  O   UNL     1       8.399  -5.867  26.498  0.00  0.00    -0.388 OA
ATOM      7  H   UNL     1       8.953  -5.703  27.281  0.00  0.00    +0.210 HD
ENDBRANCH   5   6
BRANCH   5   8
ATOM      8  C   UNL     1       6.116  -5.788  25.709  0.00  0.00    +0.036 C 
BRANCH   8   9
ATOM      9  C   UNL     1       5.986  -4.781  24.561  0.00  0.00    +0.014 C 
BRANCH   9  10
ATOM     10  C   UNL     1       6.787  -5.226  23.336  0.00  0.00    +0.120 C 
BRANCH  10  11
ATOM     11  C   UNL     1       5.959  -5.153  22.073  0.00  0.00    +0.305 C 
ATOM     12  O   UNL     1       5.554  -4.125  21.553  0.00  0.00    -0.251 OA
BRANCH  11  13
ATOM     13  O   UNL     1       5.710  -6.375  21.553  0.00  0.00    -0.481 OA
ATOM     14  H   UNL     1       6.109  -6.518  20.674  0.00  0.00    +0.295 HD
ENDBRANCH  11  13
ENDBRANCH  10  11
ENDBRANCH   9  10
ENDBRANCH   8   9
ENDBRANCH   5   8
ENDBRANCH   3   5
ENDBRANCH   1   4
BRANCH   2  15
ATOM     15  C   UNL     1       8.328  -1.721  23.739  0.00  0.00    +0.054 C 
BRANCH  15  16
ATOM     16  C   UNL     1       9.585  -1.815  22.922  0.00  0.00    -0.027 C 
ATOM     17  C   UNL     1       9.940  -0.894  22.008  0.00  0.00    -0.027 C 
BRANCH  17  18
ATOM     18  C   UNL     1       9.186   0.376  21.724  0.00  0.00    +0.053 C 
BRANCH  18  19
ATOM     19  C   UNL     1      10.062   1.595  21.796  0.00  0.00    -0.027 C 
ATOM     20  C   UNL     1      10.237   2.326  22.913  0.00  0.00    -0.027 C 
BRANCH  20  21
ATOM     21  C   UNL     1       9.680   1.983  24.265  0.00  0.00    +0.053 C 
BRANCH  21  22
ATOM     22  C   UNL     1       8.743   3.028  24.796  0.00  0.00    -0.027 C 
ATOM     23  C   UNL     1       7.405   2.978  24.664  0.00  0.00    -0.031 C 
BRANCH  23  24
ATOM     24  C   UNL     1       6.633   1.874  24.000  0.00  0.00    +0.023 C 
ATOM     25  C   UNL     1       6.204   2.248  22.590  0.00  0.00    +0.008 C 
ENDBRANCH  23  24
ENDBRANCH  21  22
ENDBRANCH  20  21
ENDBRANCH  18  19
ENDBRANCH  17  18
ENDBRANCH  15  16
ENDBRANCH   2  15
TORSDOF 15
ENDMDL
MODEL 8
REMARK VINA RESULT:      -5.7      4.404      7.874
REMARK  Name = 
REMARK  16 active torsions:
REMARK  status: ('A' for Active; 'I' for Inactive)
REMARK    1  A    between atoms: C_2  and  O_3
REMARK    2  A    between atoms: C_2  and  C_4
REMARK    3  A    between atoms: C_2  and  C_10
REMARK    4  A    between atoms: C_4  and  C_5
REMARK    5  A    between atoms: C_5  and  C_6
REMARK    6  A    between atoms: C_6  and  C_7
REMARK    7  A    between atoms: C_7  and  O_8
REMARK    8  A    between atoms: C_11  and  C_12
REMARK    9  A    between atoms: C_13  and  C_14
REMARK   10  A    between atoms: C_14  and  C_15
REMARK   11  A    between atoms: C_16  and  C_17
REMARK   12  A    between atoms: C_17  and  C_18
REMARK   13  A    between atoms: C_19  and  C_20
REMARK   14  A    between atoms: C_20  and  C_21
REMARK   15  A    between atoms: C_22  and  C_23
REMARK   16  A    between atoms: C_23  and  C_24
REMARK                            x       y       z     vdW  Elec       q    Type
REMARK                         _______ _______ _______ _____ _____    ______ ____
ROOT
ATOM      1  C   UNL     1       6.489  -0.059  25.159  0.00  0.00    -0.004 C 
ATOM      2  C   UNL     1       7.638   0.383  25.697  0.00  0.00    -0.023 C 
ENDROOT
BRANCH   1   4
ATOM      3  C   UNL     1       6.357  -1.817  23.457  0.00  0.00    +0.004 C 
ATOM      4  C   UNL     1       6.283  -1.420  24.735  0.00  0.00    -0.002 C 
BRANCH   3   5
ATOM      5  C   UNL     1       6.229  -3.250  23.034  0.00  0.00    +0.137 C 
BRANCH   5   6
ATOM      6  O   UNL     1       5.313  -3.274  21.945  0.00  0.00    -0.388 OA
ATOM      7  H   UNL     1       4.419  -3.327  22.324  0.00  0.00    +0.210 HD
ENDBRANCH   5   6
BRANCH   5   8
ATOM      8  C   UNL     1       5.699  -4.122  24.175  0.00  0.00    +0.036 C 
BRANCH   8   9
ATOM      9  C   UNL     1       6.701  -5.207  24.583  0.00  0.00    +0.014 C 
BRANCH   9  10
ATOM     10  C   UNL     1       8.135  -4.673  24.574  0.00  0.00    +0.120 C 
BRANCH  10  11
ATOM     11  C   UNL     1       8.876  -5.045  25.837  0.00  0.00    +0.305 C 
ATOM     12  O   UNL     1       8.504  -4.795  26.974  0.00  0.00    -0.251 OA
BRANCH  11  13
ATOM     13  O   UNL     1      10.025  -5.708  25.580  0.00  0.00    -0.481 OA
ATOM     14  H   UNL     1       9.890  -6.614  25.242  0.00  0.00    +0.295 HD
ENDBRANCH  11  13
ENDBRANCH  10  11
ENDBRANCH   9  10
ENDBRANCH   8   9
ENDBRANCH   5   8
ENDBRANCH   3   5
ENDBRANCH   1   4
BRANCH   2  15
ATOM     15  C   UNL     1       8.909  -0.407  25.828  0.00  0.00    +0.054 C 
BRANCH  15  16
ATOM     16  C   UNL     1      10.111   0.307  25.276  0.00  0.00    -0.027 C 
ATOM     17  C   UNL     1      10.512   0.189  23.997  0.00  0.00    -0.027 C 
BRANCH  17  18
ATOM     18  C   UNL     1       9.795  -0.599  22.935  0.00  0.00    +0.053 C 
BRANCH  18  19
ATOM     19  C   UNL     1       9.751   0.121  21.615  0.00  0.00    -0.027 C 
ATOM     20  C   UNL     1       8.772   0.974  21.261  0.00  0.00    -0.027 C 
BRANCH  20  21
ATOM     21  C   UNL     1       7.649   1.418  22.155  0.00  0.00    +0.053 C 
BRANCH  21  22
ATOM     22  C   UNL     1       7.357   2.886  22.046  0.00  0.00    -0.027 C 
ATOM     23  C   UNL     1       7.895   3.823  22.848  0.00  0.00    -0.031 C 
BRANCH  23  24
ATOM     24  C   UNL     1       8.883   3.568  23.949  0.00  0.00    +0.023 C 
ATOM     25  C   UNL     1       8.328   3.952  25.311  0.00  0.00    +0.008 C 
ENDBRANCH  23  24
ENDBRANCH  21  22
ENDBRANCH  20  21
ENDBRANCH  18  19
ENDBRANCH  17  18
ENDBRANCH  15  16
ENDBRANCH   2  15
TORSDOF 15
ENDMDL
MODEL 9
REMARK VINA RESULT:      -5.7      4.613      8.726
REMARK  Name = 
REMARK  16 active torsions:
REMARK  status: ('A' for Active; 'I' for Inactive)
REMARK    1  A    between atoms: C_2  and  O_3
REMARK    2  A    between atoms: C_2  and  C_4
REMARK    3  A    between atoms: C_2  and  C_10
REMARK    4  A    between atoms: C_4  and  C_5
REMARK    5  A    between atoms: C_5  and  C_6
REMARK    6  A    between atoms: C_6  and  C_7
REMARK    7  A    between atoms: C_7  and  O_8
REMARK    8  A    between atoms: C_11  and  C_12
REMARK    9  A    between atoms: C_13  and  C_14
REMARK   10  A    between atoms: C_14  and  C_15
REMARK   11  A    between atoms: C_16  and  C_17
REMARK   12  A    between atoms: C_17  and  C_18
REMARK   13  A    between atoms: C_19  and  C_20
REMARK   14  A    between atoms: C_20  and  C_21
REMARK   15  A    between atoms: C_22  and  C_23
REMARK   16  A    between atoms: C_23  and  C_24
REMARK                            x       y       z     vdW  Elec       q    Type
REMARK                         _______ _______ _______ _____ _____    ______ ____
ROOT
ATOM      1  C   UNL     1       8.637  -1.360  26.362  0.00  0.00    -0.004 C 
ATOM      2  C   UNL     1       9.424  -0.388  25.869  0.00  0.00    -0.023 C 
ENDROOT
BRANCH   1   4
ATOM      3  C   UNL     1       8.770  -3.800  26.176  0.00  0.00    +0.004 C 
ATOM      4  C   UNL     1       8.400  -2.609  25.684  0.00  0.00    -0.002 C 
BRANCH   3   5
ATOM      5  C   UNL     1       8.442  -5.102  25.507  0.00  0.00    +0.137 C 
BRANCH   5   6
ATOM      6  O   UNL     1       9.632  -5.541  24.863  0.00  0.00    -0.388 OA
ATOM      7  H   UNL     1       9.597  -5.219  23.946  0.00  0.00    +0.210 HD
ENDBRANCH   5   6
BRANCH   5   8
ATOM      8  C   UNL     1       7.326  -4.931  24.473  0.00  0.00    +0.036 C 
BRANCH   8   9
ATOM      9  C   UNL     1       7.864  -4.956  23.038  0.00  0.00    +0.014 C 
BRANCH   9  10
ATOM     10  C   UNL     1       7.162  -6.025  22.199  0.00  0.00    +0.120 C 
BRANCH  10  11
ATOM     11  C   UNL     1       5.882  -5.502  21.588  0.00  0.00    +0.305 C 
ATOM     12  O   UNL     1       5.813  -4.682  20.685  0.00  0.00    -0.251 OA
BRANCH  11  13
ATOM     13  O   UNL     1       4.784  -6.053  22.151  0.00  0.00    -0.481 OA
ATOM     14  H   UNL     1       4.654  -6.994  21.925  0.00  0.00    +0.295 HD
ENDBRANCH  11  13
ENDBRANCH  10  11
ENDBRANCH   9  10
ENDBRANCH   8   9
ENDBRANCH   5   8
ENDBRANCH   3   5
ENDBRANCH   1   4
BRANCH   2  15
ATOM     15  C   UNL     1      10.069  -0.383  24.511  0.00  0.00    +0.054 C 
BRANCH  15  16
ATOM     16  C   UNL     1      10.604   0.964  24.114  0.00  0.00    -0.027 C 
ATOM     17  C   UNL     1      10.350   1.534  22.922  0.00  0.00    -0.027 C 
BRANCH  17  18
ATOM     18  C   UNL     1       9.457   0.954  21.860  0.00  0.00    +0.053 C 
BRANCH  18  19
ATOM     19  C   UNL     1       8.248   1.808  21.595  0.00  0.00    -0.027 C 
ATOM     20  C   UNL     1       7.076   1.665  22.239  0.00  0.00    -0.027 C 
BRANCH  20  21
ATOM     21  C   UNL     1       6.827   0.718  23.379  0.00  0.00    +0.053 C 
BRANCH  21  22
ATOM     22  C   UNL     1       5.984   1.317  24.466  0.00  0.00    -0.027 C 
ATOM     23  C   UNL     1       6.442   2.190  25.381  0.00  0.00    -0.031 C 
BRANCH  23  24
ATOM     24  C   UNL     1       7.843   2.728  25.451  0.00  0.00    +0.023 C 
ATOM     25  C   UNL     1       7.935   4.145  24.910  0.00  0.00    +0.008 C 
ENDBRANCH  23  24
ENDBRANCH  21  22
ENDBRANCH  20  21
ENDBRANCH  18  19
ENDBRANCH  17  18
ENDBRANCH  15  16
ENDBRANCH   2  15
TORSDOF 15
ENDMDL
