MODEL 1
REMARK VINA RESULT:      -5.5      0.000      0.000
REMARK  Name = 
REMARK  1 active torsions:
REMARK  status: ('A' for Active; 'I' for Inactive)
REMARK    1  A    between atoms: N_4  and  C_5
REMARK                            x       y       z     vdW  Elec       q    Type
REMARK                         _______ _______ _______ _____ _____    ______ ____
ROOT
ATOM      1  F   UNL     1       5.783  -3.663  27.345  0.00  0.00    -0.198 F 
ATOM      2  C   UNL     1       6.933  -4.018  26.745  0.00  0.00    +0.204 A 
ATOM      3  C   UNL     1       7.583  -5.266  27.190  0.00  0.00    +0.289 A 
ATOM      4  O   UNL     1       7.110  -5.986  28.061  0.00  0.00    -0.265 OA
ATOM      5  N   UNL     1       8.751  -5.570  26.543  0.00  0.00    -0.273 N 
ATOM      6  H   UNL     1       9.214  -6.424  26.811  0.00  0.00    +0.174 HD
ATOM      7  C   UNL     1       9.320  -4.857  25.516  0.00  0.00    +0.331 A 
ATOM      8  O   UNL     1      10.332  -5.276  24.961  0.00  0.00    -0.246 OA
ATOM      9  N   UNL     1       8.674  -3.674  25.170  0.00  0.00    -0.271 N 
ATOM     10  C   UNL     1       7.491  -3.291  25.778  0.00  0.00    +0.137 A 
ENDROOT
BRANCH   9  11
ATOM     11  C   UNL     1       9.272  -2.881  24.108  0.00  0.00    +0.223 C 
ATOM     12  O   UNL     1       9.580  -1.549  24.554  0.00  0.00    -0.356 OA
ATOM     13  C   UNL     1       9.390  -0.655  23.446  0.00  0.00    +0.162 C 
ATOM     14  C   UNL     1       8.996  -1.494  22.246  0.00  0.00    +0.032 C 
ATOM     15  C   UNL     1       8.377  -2.708  22.891  0.00  0.00    +0.057 C 
ENDBRANCH   9  11
TORSDOF 1
ENDMDL
MODEL 2
REMARK VINA RESULT:      -5.3      2.919      3.394
REMARK  Name = 
REMARK  1 active torsions:
REMARK  status: ('A' for Active; 'I' for Inactive)
REMARK    1  A    between atoms: N_4  and  C_5
REMARK                            x       y       z     vdW  Elec       q    Type
REMARK                         _______ _______ _______ _____ _____    ______ ____
ROOT
ATOM      1  F   UNL     1       5.207  -3.053  22.010  0.00  0.00    -0.198 F 
ATOM      2  C   UNL     1       6.441  -3.047  22.545  0.00  0.00    +0.204 A 
ATOM      3  C   UNL     1       6.893  -4.267  23.241  0.00  0.00    +0.289 A 
ATOM      4  O   UNL     1       6.202  -5.275  23.332  0.00  0.00    -0.265 OA
ATOM      5  N   UNL     1       8.156  -4.196  23.767  0.00  0.00    -0.273 N 
ATOM      6  H   UNL     1       8.504  -5.018  24.236  0.00  0.00    +0.174 HD
ATOM      7  C   UNL     1       9.022  -3.136  23.660  0.00  0.00    +0.331 A 
ATOM      8  O   UNL     1      10.163  -3.222  24.108  0.00  0.00    -0.246 OA
ATOM      9  N   UNL     1       8.519  -2.006  23.022  0.00  0.00    -0.271 N 
ATOM     10  C   UNL     1       7.252  -1.992  22.466  0.00  0.00    +0.137 A 
ENDROOT
BRANCH   9  11
ATOM     11  C   UNL     1       9.403  -0.855  22.922  0.00  0.00    +0.223 C 
ATOM     12  O   UNL     1       9.058   0.159  23.882  0.00  0.00    -0.356 OA
ATOM     13  C   UNL     1       9.329   1.440  23.292  0.00  0.00    +0.162 C 
ATOM     14  C   UNL     1       9.921   1.192  21.918  0.00  0.00    +0.032 C 
ATOM     15  C   UNL     1       9.365  -0.165  21.568  0.00  0.00    +0.057 C 
ENDBRANCH   9  11
TORSDOF 1
ENDMDL
MODEL 3
REMARK VINA RESULT:      -5.3      3.383      5.069
REMARK  Name = 
REMARK  1 active torsions:
REMARK  status: ('A' for Active; 'I' for Inactive)
REMARK    1  A    between atoms: N_4  and  C_5
REMARK                            x       y       z     vdW  Elec       q    Type
REMARK                         _______ _______ _______ _____ _____    ______ ____
ROOT
ATOM      1  F   UNL     1      10.034  -0.343  21.233  0.00  0.00    -0.198 F 
ATOM      2  C   UNL     1       9.590  -1.040  22.295  0.00  0.00    +0.204 A 
ATOM      3  C   UNL     1      10.069  -0.634  23.630  0.00  0.00    +0.289 A 
ATOM      4  O   UNL     1      10.830   0.310  23.804  0.00  0.00    -0.265 OA
ATOM      5  N   UNL     1       9.583  -1.383  24.668  0.00  0.00    -0.273 N 
ATOM      6  H   UNL     1       9.876  -1.124  25.597  0.00  0.00    +0.174 HD
ATOM      7  C   UNL     1       8.681  -2.415  24.574  0.00  0.00    +0.331 A 
ATOM      8  O   UNL     1       8.258  -2.961  25.589  0.00  0.00    -0.246 OA
ATOM      9  N   UNL     1       8.298  -2.767  23.283  0.00  0.00    -0.271 N 
ATOM     10  C   UNL     1       8.746  -2.064  22.178  0.00  0.00    +0.137 A 
ENDROOT
BRANCH   9  11
ATOM     11  C   UNL     1       7.368  -3.877  23.149  0.00  0.00    +0.223 C 
ATOM     12  O   UNL     1       8.061  -5.131  23.014  0.00  0.00    -0.356 OA
ATOM     13  C   UNL     1       7.286  -5.974  22.148  0.00  0.00    +0.162 C 
ATOM     14  C   UNL     1       6.029  -5.214  21.776  0.00  0.00    +0.032 C 
ATOM     15  C   UNL     1       6.462  -3.778  21.933  0.00  0.00    +0.057 C 
ENDBRANCH   9  11
TORSDOF 1
ENDMDL
MODEL 4
REMARK VINA RESULT:      -5.2      3.131      5.612
REMARK  Name = 
REMARK  1 active torsions:
REMARK  status: ('A' for Active; 'I' for Inactive)
REMARK    1  A    between atoms: N_4  and  C_5
REMARK                            x       y       z     vdW  Elec       q    Type
REMARK                         _______ _______ _______ _____ _____    ______ ____
ROOT
ATOM      1  F   UNL     1       9.407  -0.733  20.550  0.00  0.00    -0.198 F 
ATOM      2  C   UNL     1       9.476  -0.698  21.893  0.00  0.00    +0.204 A 
ATOM      3  C   UNL     1       9.877   0.573  22.526  0.00  0.00    +0.289 A 
ATOM      4  O   UNL     1      10.129   1.585  21.882  0.00  0.00    -0.265 OA
ATOM      5  N   UNL     1       9.931   0.543  23.894  0.00  0.00    -0.273 N 
ATOM      6  H   UNL     1      10.186   1.400  24.361  0.00  0.00    +0.174 HD
ATOM      7  C   UNL     1       9.607  -0.522  24.697  0.00  0.00    +0.331 A 
ATOM      8  O   UNL     1       9.619  -0.401  25.919  0.00  0.00    -0.246 OA
ATOM      9  N   UNL     1       9.271  -1.699  24.034  0.00  0.00    -0.271 N 
ATOM     10  C   UNL     1       9.196  -1.756  22.653  0.00  0.00    +0.137 A 
ENDROOT
BRANCH   9  11
ATOM     11  C   UNL     1       8.954  -2.854  24.858  0.00  0.00    +0.223 C 
ATOM     12  O   UNL     1       9.698  -4.015  24.448  0.00  0.00    -0.356 OA
ATOM     13  C   UNL     1       8.872  -5.170  24.661  0.00  0.00    +0.162 C 
ATOM     14  C   UNL     1       7.574  -4.693  25.284  0.00  0.00    +0.032 C 
ATOM     15  C   UNL     1       7.491  -3.266  24.804  0.00  0.00    +0.057 C 
ENDBRANCH   9  11
TORSDOF 1
ENDMDL
MODEL 5
REMARK VINA RESULT:      -5.0      2.744      5.174
REMARK  Name = 
REMARK  1 active torsions:
REMARK  status: ('A' for Active; 'I' for Inactive)
REMARK    1  A    between atoms: N_4  and  C_5
REMARK                            x       y       z     vdW  Elec       q    Type
REMARK                         _______ _______ _______ _____ _____    ______ ____
ROOT
ATOM      1  F   UNL     1      10.770  -0.166  24.248  0.00  0.00    -0.198 F 
ATOM      2  C   UNL     1       9.881  -1.060  23.777  0.00  0.00    +0.204 A 
ATOM      3  C   UNL     1       9.498  -0.963  22.355  0.00  0.00    +0.289 A 
ATOM      4  O   UNL     1       9.966  -0.121  21.598  0.00  0.00    -0.265 OA
ATOM      5  N   UNL     1       8.589  -1.898  21.939  0.00  0.00    -0.273 N 
ATOM      6  H   UNL     1       8.317  -1.871  20.968  0.00  0.00    +0.174 HD
ATOM      7  C   UNL     1       8.061  -2.913  22.698  0.00  0.00    +0.331 A 
ATOM      8  O   UNL     1       7.311  -3.741  22.188  0.00  0.00    -0.246 OA
ATOM      9  N   UNL     1       8.438  -2.925  24.038  0.00  0.00    -0.271 N 
ATOM     10  C   UNL     1       9.350  -2.013  24.541  0.00  0.00    +0.137 A 
ENDROOT
BRANCH   9  11
ATOM     11  C   UNL     1       7.869  -3.969  24.874  0.00  0.00    +0.223 C 
ATOM     12  O   UNL     1       6.812  -3.460  25.706  0.00  0.00    -0.356 OA
ATOM     13  C   UNL     1       6.842  -4.176  26.951  0.00  0.00    +0.162 C 
ATOM     14  C   UNL     1       7.944  -5.214  26.853  0.00  0.00    +0.032 C 
ATOM     15  C   UNL     1       8.868  -4.606  25.828  0.00  0.00    +0.057 C 
ENDBRANCH   9  11
TORSDOF 1
ENDMDL
MODEL 6
REMARK VINA RESULT:      -5.0      3.527      3.865
REMARK  Name = 
REMARK  1 active torsions:
REMARK  status: ('A' for Active; 'I' for Inactive)
REMARK    1  A    between atoms: N_4  and  C_5
REMARK                            x       y       z     vdW  Elec       q    Type
REMARK                         _______ _______ _______ _____ _____    ______ ____
ROOT
ATOM      1  F   UNL     1       4.820  -6.998  26.843  0.00  0.00    -0.198 F 
ATOM      2  C   UNL     1       5.085  -6.523  25.612  0.00  0.00    +0.204 A 
ATOM      3  C   UNL     1       4.324  -7.088  24.481  0.00  0.00    +0.289 A 
ATOM      4  O   UNL     1       3.461  -7.947  24.624  0.00  0.00    -0.265 OA
ATOM      5  N   UNL     1       4.642  -6.567  23.255  0.00  0.00    -0.273 N 
ATOM      6  H   UNL     1       4.129  -6.918  22.461  0.00  0.00    +0.174 HD
ATOM      7  C   UNL     1       5.545  -5.562  23.009  0.00  0.00    +0.331 A 
ATOM      8  O   UNL     1       5.686  -5.123  21.871  0.00  0.00    -0.246 OA
ATOM      9  N   UNL     1       6.252  -5.100  24.115  0.00  0.00    -0.271 N 
ATOM     10  C   UNL     1       5.995  -5.576  25.389  0.00  0.00    +0.137 A 
ENDROOT
BRANCH   9  11
ATOM     11  C   UNL     1       7.239  -4.059  23.880  0.00  0.00    +0.223 C 
ATOM     12  O   UNL     1       8.579  -4.578  23.948  0.00  0.00    -0.356 OA
ATOM     13  C   UNL     1       9.425  -3.555  24.495  0.00  0.00    +0.162 C 
ATOM     14  C   UNL     1       8.565  -2.327  24.725  0.00  0.00    +0.032 C 
ATOM     15  C   UNL     1       7.190  -2.924  24.891  0.00  0.00    +0.057 C 
ENDBRANCH   9  11
TORSDOF 1
ENDMDL
MODEL 7
REMARK VINA RESULT:      -4.9      2.636      3.371
REMARK  Name = 
REMARK  1 active torsions:
REMARK  status: ('A' for Active; 'I' for Inactive)
REMARK    1  A    between atoms: N_4  and  C_5
REMARK                            x       y       z     vdW  Elec       q    Type
REMARK                         _______ _______ _______ _____ _____    ______ ____
ROOT
ATOM      1  F   UNL     1       5.363  -1.645  24.274  0.00  0.00    -0.198 F 
ATOM      2  C   UNL     1       6.669  -1.864  24.040  0.00  0.00    +0.204 A 
ATOM      3  C   UNL     1       7.154  -3.256  24.104  0.00  0.00    +0.289 A 
ATOM      4  O   UNL     1       6.417  -4.206  24.343  0.00  0.00    -0.265 OA
ATOM      5  N   UNL     1       8.493  -3.412  23.860  0.00  0.00    -0.273 N 
ATOM      6  H   UNL     1       8.855  -4.352  23.880  0.00  0.00    +0.174 HD
ATOM      7  C   UNL     1       9.378  -2.418  23.524  0.00  0.00    +0.331 A 
ATOM      8  O   UNL     1      10.543  -2.695  23.251  0.00  0.00    -0.246 OA
ATOM      9  N   UNL     1       8.862  -1.125  23.515  0.00  0.00    -0.271 N 
ATOM     10  C   UNL     1       7.521  -0.880  23.755  0.00  0.00    +0.137 A 
ENDROOT
BRANCH   9  11
ATOM     11  C   UNL     1       9.785  -0.048  23.195  0.00  0.00    +0.223 C 
ATOM     12  O   UNL     1       9.807   0.952  24.229  0.00  0.00    -0.356 OA
ATOM     13  C   UNL     1      10.021   2.229  23.607  0.00  0.00    +0.162 C 
ATOM     14  C   UNL     1      10.190   1.989  22.120  0.00  0.00    +0.032 C 
ATOM     15  C   UNL     1       9.441   0.697  21.915  0.00  0.00    +0.057 C 
ENDBRANCH   9  11
TORSDOF 1
ENDMDL
MODEL 8
REMARK VINA RESULT:      -4.9      2.965      5.395
REMARK  Name = 
REMARK  1 active torsions:
REMARK  status: ('A' for Active; 'I' for Inactive)
REMARK    1  A    between atoms: N_4  and  C_5
REMARK                            x       y       z     vdW  Elec       q    Type
REMARK                         _______ _______ _______ _____ _____    ______ ____
ROOT
ATOM      1  F   UNL     1       6.495   1.047  23.299  0.00  0.00    -0.198 F 
ATOM      2  C   UNL     1       7.571   0.270  23.080  0.00  0.00    +0.204 A 
ATOM      3  C   UNL     1       8.473   0.644  21.974  0.00  0.00    +0.289 A 
ATOM      4  O   UNL     1       8.288   1.631  21.271  0.00  0.00    -0.265 OA
ATOM      5  N   UNL     1       9.548  -0.187  21.801  0.00  0.00    -0.273 N 
ATOM      6  H   UNL     1      10.195   0.048  21.064  0.00  0.00    +0.174 HD
ATOM      7  C   UNL     1       9.868  -1.274  22.577  0.00  0.00    +0.331 A 
ATOM      8  O   UNL     1      10.905  -1.897  22.370  0.00  0.00    -0.246 OA
ATOM      9  N   UNL     1       8.956  -1.590  23.580  0.00  0.00    -0.271 N 
ATOM     10  C   UNL     1       7.842  -0.805  23.820  0.00  0.00    +0.137 A 
ENDROOT
BRANCH   9  11
ATOM     11  C   UNL     1       9.252  -2.756  24.397  0.00  0.00    +0.223 C 
ATOM     12  O   UNL     1       8.863  -3.974  23.738  0.00  0.00    -0.356 OA
ATOM     13  C   UNL     1       8.423  -4.901  24.743  0.00  0.00    +0.162 C 
ATOM     14  C   UNL     1       8.603  -4.232  26.091  0.00  0.00    +0.032 C 
ATOM     15  C   UNL     1       8.531  -2.768  25.736  0.00  0.00    +0.057 C 
ENDBRANCH   9  11
TORSDOF 1
ENDMDL
MODEL 9
REMARK VINA RESULT:      -4.9      3.414      4.645
REMARK  Name = 
REMARK  1 active torsions:
REMARK  status: ('A' for Active; 'I' for Inactive)
REMARK    1  A    between atoms: N_4  and  C_5
REMARK                            x       y       z     vdW  Elec       q    Type
REMARK                         _______ _______ _______ _____ _____    ______ ____
ROOT
ATOM      1  F   UNL     1       9.053  -0.754  26.703  0.00  0.00    -0.198 F 
ATOM      2  C   UNL     1       9.149  -1.008  25.385  0.00  0.00    +0.204 A 
ATOM      3  C   UNL     1      10.172  -0.271  24.618  0.00  0.00    +0.289 A 
ATOM      4  O   UNL     1      10.935   0.538  25.134  0.00  0.00    -0.265 OA
ATOM      5  N   UNL     1      10.218  -0.572  23.283  0.00  0.00    -0.273 N 
ATOM      6  H   UNL     1      10.916  -0.098  22.730  0.00  0.00    +0.174 HD
ATOM      7  C   UNL     1       9.448  -1.506  22.633  0.00  0.00    +0.331 A 
ATOM      8  O   UNL     1       9.637  -1.742  21.443  0.00  0.00    -0.246 OA
ATOM      9  N   UNL     1       8.482  -2.138  23.409  0.00  0.00    -0.271 N 
ATOM     10  C   UNL     1       8.365  -1.889  24.766  0.00  0.00    +0.137 A 
ENDROOT
BRANCH   9  11
ATOM     11  C   UNL     1       7.630  -3.109  22.741  0.00  0.00    +0.223 C 
ATOM     12  O   UNL     1       6.327  -2.565  22.465  0.00  0.00    -0.356 OA
ATOM     13  C   UNL     1       5.368  -3.628  22.580  0.00  0.00    +0.162 C 
ATOM     14  C   UNL     1       6.133  -4.899  22.891  0.00  0.00    +0.032 C 
ATOM     15  C   UNL     1       7.382  -4.371  23.552  0.00  0.00    +0.057 C 
ENDBRANCH   9  11
TORSDOF 1
ENDMDL
