MODEL 1
REMARK VINA RESULT:      -5.7      0.000      0.000
REMARK  Name = 
REMARK  7 active torsions:
REMARK  status: ('A' for Active; 'I' for Inactive)
REMARK    1  A    between atoms: C_2  and  C_3
REMARK    2  A    between atoms: C_2  and  N_10
REMARK    3  A    between atoms: C_2  and  C_15
REMARK    4  A    between atoms: C_3  and  C_4
REMARK    5  A    between atoms: N_10  and  S_11
REMARK    6  A    between atoms: S_11  and  N_12
REMARK    7  A    between atoms: C_15  and  O_16
REMARK                            x       y       z     vdW  Elec       q    Type
REMARK                         _______ _______ _______ _____ _____    ______ ____
ROOT
ATOM      1  C   UNL     1       8.987  -2.598  23.824  0.00  0.00    +0.190 C 
ENDROOT
BRANCH   1   2
ATOM      2  C   UNL     1       7.700  -2.646  22.980  0.00  0.00    +0.324 C 
ATOM      3  O   UNL     1       6.919  -1.728  22.793  0.00  0.00    -0.249 OA
BRANCH   2   4
ATOM      4  O   UNL     1       7.550  -3.853  22.367  0.00  0.00    -0.479 OA
ATOM      5  H   UNL     1       8.400  -4.138  21.972  0.00  0.00    +0.295 HD
ENDBRANCH   2   4
ENDBRANCH   1   2
BRANCH   1   6
ATOM      6  N   UNL     1       9.257  -4.063  24.095  0.00  0.00    -0.166 NA
ATOM      7  H   UNL     1      10.267  -4.237  24.100  0.00  0.00    +0.150 HD
BRANCH   6   8
ATOM      8  S   UNL     1       8.640  -4.694  25.501  0.00  0.00    +0.093 S 
ATOM      9  O   UNL     1       7.377  -5.315  25.205  0.00  0.00    -0.142 OA
ATOM     10  O   UNL     1       8.848  -3.766  26.577  0.00  0.00    -0.142 OA
BRANCH   8  11
ATOM     11  N   UNL     1       9.760  -5.899  25.685  0.00  0.00    -0.193 NA
ATOM     12  H   UNL     1       9.360  -6.793  25.405  0.00  0.00    +0.145 HD
ATOM     13  H   UNL     1      10.074  -5.919  26.659  0.00  0.00    +0.145 HD
ENDBRANCH   8  11
ENDBRANCH   6   8
ENDBRANCH   1   6
BRANCH   1  14
ATOM     14  C   UNL     1      10.150  -1.907  23.099  0.00  0.00    +0.067 C 
BRANCH  14  15
ATOM     15  C   UNL     1      10.182  -0.393  23.090  0.00  0.00    -0.045 A 
ATOM     16  C   UNL     1       9.804   0.274  21.913  0.00  0.00    +0.004 A 
ATOM     17  C   UNL     1       9.841   1.666  21.834  0.00  0.00    +0.000 A 
ATOM     18  C   UNL     1      10.263   2.412  22.929  0.00  0.00    +0.000 A 
ATOM     19  C   UNL     1      10.663   1.764  24.096  0.00  0.00    +0.000 A 
ATOM     20  C   UNL     1      10.633   0.370  24.174  0.00  0.00    +0.004 A 
ENDBRANCH  14  15
ENDBRANCH   1  14
TORSDOF 7
ENDMDL
MODEL 2
REMARK VINA RESULT:      -5.6      1.617      1.977
REMARK  Name = 
REMARK  7 active torsions:
REMARK  status: ('A' for Active; 'I' for Inactive)
REMARK    1  A    between atoms: C_2  and  C_3
REMARK    2  A    between atoms: C_2  and  N_10
REMARK    3  A    between atoms: C_2  and  C_15
REMARK    4  A    between atoms: C_3  and  C_4
REMARK    5  A    between atoms: N_10  and  S_11
REMARK    6  A    between atoms: S_11  and  N_12
REMARK    7  A    between atoms: C_15  and  O_16
REMARK                            x       y       z     vdW  Elec       q    Type
REMARK                         _______ _______ _______ _____ _____    ______ ____
ROOT
ATOM      1  C   UNL     1       9.400  -1.905  23.894  0.00  0.00    +0.190 C 
ENDROOT
BRANCH   1   2
ATOM      2  C   UNL     1       8.966  -1.986  22.419  0.00  0.00    +0.324 C 
ATOM      3  O   UNL     1       7.850  -2.251  22.003  0.00  0.00    -0.249 OA
BRANCH   2   4
ATOM      4  O   UNL     1       9.981  -1.638  21.580  0.00  0.00    -0.479 OA
ATOM      5  H   UNL     1      10.788  -2.152  21.797  0.00  0.00    +0.295 HD
ENDBRANCH   2   4
ENDBRANCH   1   2
BRANCH   1   6
ATOM      6  N   UNL     1      10.001  -3.273  24.135  0.00  0.00    -0.166 NA
ATOM      7  H   UNL     1      10.915  -3.178  24.591  0.00  0.00    +0.150 HD
BRANCH   6   8
ATOM      8  S   UNL     1       9.106  -4.339  25.040  0.00  0.00    +0.093 S 
ATOM      9  O   UNL     1       8.158  -4.987  24.175  0.00  0.00    -0.142 OA
ATOM     10  O   UNL     1       8.766  -3.734  26.298  0.00  0.00    -0.142 OA
BRANCH   8  11
ATOM     11  N   UNL     1      10.327  -5.415  25.342  0.00  0.00    -0.193 NA
ATOM     12  H   UNL     1      11.004  -5.399  24.580  0.00  0.00    +0.145 HD
ATOM     13  H   UNL     1       9.928  -6.350  25.465  0.00  0.00    +0.145 HD
ENDBRANCH   8  11
ENDBRANCH   6   8
ENDBRANCH   1   6
BRANCH   1  14
ATOM     14  C   UNL     1      10.394  -0.767  24.162  0.00  0.00    +0.067 C 
BRANCH  14  15
ATOM     15  C   UNL     1       9.845   0.635  24.319  0.00  0.00    -0.045 A 
ATOM     16  C   UNL     1       8.682   0.812  25.088  0.00  0.00    +0.004 A 
ATOM     17  C   UNL     1       8.113   2.076  25.246  0.00  0.00    +0.000 A 
ATOM     18  C   UNL     1       8.692   3.180  24.631  0.00  0.00    +0.000 A 
ATOM     19  C   UNL     1       9.833   3.017  23.847  0.00  0.00    +0.000 A 
ATOM     20  C   UNL     1      10.400   1.752  23.682  0.00  0.00    +0.004 A 
ENDBRANCH  14  15
ENDBRANCH   1  14
TORSDOF 7
ENDMDL
MODEL 3
REMARK VINA RESULT:      -5.5      2.068      3.132
REMARK  Name = 
REMARK  7 active torsions:
REMARK  status: ('A' for Active; 'I' for Inactive)
REMARK    1  A    between atoms: C_2  and  C_3
REMARK    2  A    between atoms: C_2  and  N_10
REMARK    3  A    between atoms: C_2  and  C_15
REMARK    4  A    between atoms: C_3  and  C_4
REMARK    5  A    between atoms: N_10  and  S_11
REMARK    6  A    between atoms: S_11  and  N_12
REMARK    7  A    between atoms: C_15  and  O_16
REMARK                            x       y       z     vdW  Elec       q    Type
REMARK                         _______ _______ _______ _____ _____    ______ ____
ROOT
ATOM      1  C   UNL     1       8.633  -3.512  23.909  0.00  0.00    +0.190 C 
ENDROOT
BRANCH   1   2
ATOM      2  C   UNL     1       8.712  -4.759  24.809  0.00  0.00    +0.324 C 
ATOM      3  O   UNL     1       7.788  -5.282  25.410  0.00  0.00    -0.249 OA
BRANCH   2   4
ATOM      4  O   UNL     1       9.964  -5.296  24.808  0.00  0.00    -0.479 OA
ATOM      5  H   UNL     1       9.976  -6.121  24.279  0.00  0.00    +0.295 HD
ENDBRANCH   2   4
ENDBRANCH   1   2
BRANCH   1   6
ATOM      6  N   UNL     1       7.449  -2.766  24.485  0.00  0.00    -0.166 NA
ATOM      7  H   UNL     1       7.749  -1.850  24.834  0.00  0.00    +0.150 HD
BRANCH   6   8
ATOM      8  S   UNL     1       6.156  -2.510  23.475  0.00  0.00    +0.093 S 
ATOM      9  O   UNL     1       4.952  -2.869  24.175  0.00  0.00    -0.142 OA
ATOM     10  O   UNL     1       6.483  -2.964  22.152  0.00  0.00    -0.142 OA
BRANCH   8  11
ATOM     11  N   UNL     1       6.249  -0.858  23.451  0.00  0.00    -0.193 NA
ATOM     12  H   UNL     1       6.723  -0.547  22.604  0.00  0.00    +0.145 HD
ATOM     13  H   UNL     1       6.737  -0.536  24.291  0.00  0.00    +0.145 HD
ENDBRANCH   8  11
ENDBRANCH   6   8
ENDBRANCH   1   6
BRANCH   1  14
ATOM     14  C   UNL     1       9.922  -2.680  23.927  0.00  0.00    +0.067 C 
BRANCH  14  15
ATOM     15  C   UNL     1       9.885  -1.297  23.313  0.00  0.00    -0.045 A 
ATOM     16  C   UNL     1       9.507  -1.176  21.965  0.00  0.00    +0.004 A 
ATOM     17  C   UNL     1       9.481   0.069  21.337  0.00  0.00    +0.000 A 
ATOM     18  C   UNL     1       9.840   1.211  22.044  0.00  0.00    +0.000 A 
ATOM     19  C   UNL     1      10.239   1.104  23.375  0.00  0.00    +0.000 A 
ATOM     20  C   UNL     1      10.272  -0.142  24.003  0.00  0.00    +0.004 A 
ENDBRANCH  14  15
ENDBRANCH   1  14
TORSDOF 7
ENDMDL
MODEL 4
REMARK VINA RESULT:      -5.4      2.347      3.746
REMARK  Name = 
REMARK  7 active torsions:
REMARK  status: ('A' for Active; 'I' for Inactive)
REMARK    1  A    between atoms: C_2  and  C_3
REMARK    2  A    between atoms: C_2  and  N_10
REMARK    3  A    between atoms: C_2  and  C_15
REMARK    4  A    between atoms: C_3  and  C_4
REMARK    5  A    between atoms: N_10  and  S_11
REMARK    6  A    between atoms: S_11  and  N_12
REMARK    7  A    between atoms: C_15  and  O_16
REMARK                            x       y       z     vdW  Elec       q    Type
REMARK                         _______ _______ _______ _____ _____    ______ ____
ROOT
ATOM      1  C   UNL     1       8.076  -4.398  24.050  0.00  0.00    +0.190 C 
ENDROOT
BRANCH   1   2
ATOM      2  C   UNL     1       8.633  -5.327  25.145  0.00  0.00    +0.324 C 
ATOM      3  O   UNL     1       8.026  -5.757  26.112  0.00  0.00    -0.249 OA
BRANCH   2   4
ATOM      4  O   UNL     1       9.913  -5.705  24.874  0.00  0.00    -0.479 OA
ATOM      5  H   UNL     1      10.152  -6.493  25.408  0.00  0.00    +0.295 HD
ENDBRANCH   2   4
ENDBRANCH   1   2
BRANCH   1   6
ATOM      6  N   UNL     1       6.704  -4.982  23.792  0.00  0.00    -0.166 NA
ATOM      7  H   UNL     1       5.989  -4.415  24.260  0.00  0.00    +0.150 HD
BRANCH   6   8
ATOM      8  S   UNL     1       6.242  -5.146  22.205  0.00  0.00    +0.093 S 
ATOM      9  O   UNL     1       7.330  -5.738  21.474  0.00  0.00    -0.142 OA
ATOM     10  O   UNL     1       5.538  -3.966  21.785  0.00  0.00    -0.142 OA
BRANCH   8  11
ATOM     11  N   UNL     1       5.103  -6.321  22.451  0.00  0.00    -0.193 NA
ATOM     12  H   UNL     1       5.554  -7.192  22.728  0.00  0.00    +0.145 HD
ATOM     13  H   UNL     1       4.555  -6.441  21.595  0.00  0.00    +0.145 HD
ENDBRANCH   8  11
ENDBRANCH   6   8
ENDBRANCH   1   6
BRANCH   1  14
ATOM     14  C   UNL     1       8.021  -2.928  24.486  0.00  0.00    +0.067 C 
BRANCH  14  15
ATOM     15  C   UNL     1       8.751  -1.907  23.639  0.00  0.00    -0.045 A 
ATOM     16  C   UNL     1       9.576  -0.971  24.286  0.00  0.00    +0.004 A 
ATOM     17  C   UNL     1      10.251   0.010  23.562  0.00  0.00    +0.000 A 
ATOM     18  C   UNL     1      10.106   0.077  22.181  0.00  0.00    +0.000 A 
ATOM     19  C   UNL     1       9.274  -0.830  21.527  0.00  0.00    +0.000 A 
ATOM     20  C   UNL     1       8.592  -1.809  22.252  0.00  0.00    +0.004 A 
ENDBRANCH  14  15
ENDBRANCH   1  14
TORSDOF 7
ENDMDL
MODEL 5
REMARK VINA RESULT:      -5.4      2.037      3.242
REMARK  Name = 
REMARK  7 active torsions:
REMARK  status: ('A' for Active; 'I' for Inactive)
REMARK    1  A    between atoms: C_2  and  C_3
REMARK    2  A    between atoms: C_2  and  N_10
REMARK    3  A    between atoms: C_2  and  C_15
REMARK    4  A    between atoms: C_3  and  C_4
REMARK    5  A    between atoms: N_10  and  S_11
REMARK    6  A    between atoms: S_11  and  N_12
REMARK    7  A    between atoms: C_15  and  O_16
REMARK                            x       y       z     vdW  Elec       q    Type
REMARK                         _______ _______ _______ _____ _____    ______ ____
ROOT
ATOM      1  C   UNL     1       8.441  -2.762  23.628  0.00  0.00    +0.190 C 
ENDROOT
BRANCH   1   2
ATOM      2  C   UNL     1       8.412  -4.247  24.037  0.00  0.00    +0.324 C 
ATOM      3  O   UNL     1       9.341  -4.894  24.491  0.00  0.00    -0.249 OA
BRANCH   2   4
ATOM      4  O   UNL     1       7.164  -4.776  23.907  0.00  0.00    -0.479 OA
ATOM      5  H   UNL     1       6.626  -4.568  24.700  0.00  0.00    +0.295 HD
ENDBRANCH   2   4
ENDBRANCH   1   2
BRANCH   1   6
ATOM      6  N   UNL     1       7.575  -2.114  24.687  0.00  0.00    -0.166 NA
ATOM      7  H   UNL     1       8.145  -1.493  25.272  0.00  0.00    +0.150 HD
BRANCH   6   8
ATOM      8  S   UNL     1       6.270  -1.235  24.158  0.00  0.00    +0.093 S 
ATOM      9  O   UNL     1       6.700   0.116  23.913  0.00  0.00    -0.142 OA
ATOM     10  O   UNL     1       5.111  -1.582  24.931  0.00  0.00    -0.142 OA
BRANCH   8  11
ATOM     11  N   UNL     1       6.109  -1.984  22.691  0.00  0.00    -0.193 NA
ATOM     12  H   UNL     1       5.705  -2.912  22.815  0.00  0.00    +0.145 HD
ATOM     13  H   UNL     1       7.025  -2.035  22.238  0.00  0.00    +0.145 HD
ENDBRANCH   8  11
ENDBRANCH   6   8
ENDBRANCH   1   6
BRANCH   1  14
ATOM     14  C   UNL     1       9.861  -2.182  23.589  0.00  0.00    +0.067 C 
BRANCH  14  15
ATOM     15  C   UNL     1      10.018  -0.708  23.282  0.00  0.00    -0.045 A 
ATOM     16  C   UNL     1      10.446   0.146  24.313  0.00  0.00    +0.004 A 
ATOM     17  C   UNL     1      10.582   1.517  24.099  0.00  0.00    +0.000 A 
ATOM     18  C   UNL     1      10.284   2.058  22.853  0.00  0.00    +0.000 A 
ATOM     19  C   UNL     1       9.836   1.228  21.827  0.00  0.00    +0.000 A 
ATOM     20  C   UNL     1       9.693  -0.144  22.042  0.00  0.00    +0.004 A 
ENDBRANCH  14  15
ENDBRANCH   1  14
TORSDOF 7
ENDMDL
MODEL 6
REMARK VINA RESULT:      -5.3      1.845      2.253
REMARK  Name = 
REMARK  7 active torsions:
REMARK  status: ('A' for Active; 'I' for Inactive)
REMARK    1  A    between atoms: C_2  and  C_3
REMARK    2  A    between atoms: C_2  and  N_10
REMARK    3  A    between atoms: C_2  and  C_15
REMARK    4  A    between atoms: C_3  and  C_4
REMARK    5  A    between atoms: N_10  and  S_11
REMARK    6  A    between atoms: S_11  and  N_12
REMARK    7  A    between atoms: C_15  and  O_16
REMARK                            x       y       z     vdW  Elec       q    Type
REMARK                         _______ _______ _______ _____ _____    ______ ____
ROOT
ATOM      1  C   UNL     1       8.300  -2.443  23.085  0.00  0.00    +0.190 C 
ENDROOT
BRANCH   1   2
ATOM      2  C   UNL     1       7.099  -1.612  23.576  0.00  0.00    +0.324 C 
ATOM      3  O   UNL     1       7.023  -0.993  24.624  0.00  0.00    -0.249 OA
BRANCH   2   4
ATOM      4  O   UNL     1       6.107  -1.571  22.643  0.00  0.00    -0.479 OA
ATOM      5  H   UNL     1       5.857  -0.641  22.458  0.00  0.00    +0.295 HD
ENDBRANCH   2   4
ENDBRANCH   1   2
BRANCH   1   6
ATOM      6  N   UNL     1       7.631  -3.638  22.442  0.00  0.00    -0.166 NA
ATOM      7  H   UNL     1       8.127  -3.895  21.581  0.00  0.00    +0.150 HD
BRANCH   6   8
ATOM      8  S   UNL     1       7.499  -5.013  23.363  0.00  0.00    +0.093 S 
ATOM      9  O   UNL     1       6.233  -4.984  24.044  0.00  0.00    -0.142 OA
ATOM     10  O   UNL     1       8.754  -5.281  24.009  0.00  0.00    -0.142 OA
BRANCH   8  11
ATOM     11  N   UNL     1       7.370  -6.082  22.107  0.00  0.00    -0.193 NA
ATOM     12  H   UNL     1       7.714  -6.998  22.391  0.00  0.00    +0.145 HD
ATOM     13  H   UNL     1       7.891  -5.721  21.304  0.00  0.00    +0.145 HD
ENDBRANCH   8  11
ENDBRANCH   6   8
ENDBRANCH   1   6
BRANCH   1  14
ATOM     14  C   UNL     1       9.199  -1.671  22.109  0.00  0.00    +0.067 C 
BRANCH  14  15
ATOM     15  C   UNL     1       9.727  -0.321  22.545  0.00  0.00    -0.045 A 
ATOM     16  C   UNL     1      10.352  -0.223  23.799  0.00  0.00    +0.004 A 
ATOM     17  C   UNL     1      10.833   1.000  24.267  0.00  0.00    +0.000 A 
ATOM     18  C   UNL     1      10.689   2.145  23.491  0.00  0.00    +0.000 A 
ATOM     19  C   UNL     1      10.051   2.068  22.254  0.00  0.00    +0.000 A 
ATOM     20  C   UNL     1       9.563   0.846  21.788  0.00  0.00    +0.004 A 
ENDBRANCH  14  15
ENDBRANCH   1  14
TORSDOF 7
ENDMDL
MODEL 7
REMARK VINA RESULT:      -5.3      1.756      2.025
REMARK  Name = 
REMARK  7 active torsions:
REMARK  status: ('A' for Active; 'I' for Inactive)
REMARK    1  A    between atoms: C_2  and  C_3
REMARK    2  A    between atoms: C_2  and  N_10
REMARK    3  A    between atoms: C_2  and  C_15
REMARK    4  A    between atoms: C_3  and  C_4
REMARK    5  A    between atoms: N_10  and  S_11
REMARK    6  A    between atoms: S_11  and  N_12
REMARK    7  A    between atoms: C_15  and  O_16
REMARK                            x       y       z     vdW  Elec       q    Type
REMARK                         _______ _______ _______ _____ _____    ______ ____
ROOT
ATOM      1  C   UNL     1       7.728  -3.641  23.157  0.00  0.00    +0.190 C 
ENDROOT
BRANCH   1   2
ATOM      2  C   UNL     1       6.756  -4.219  22.112  0.00  0.00    +0.324 C 
ATOM      3  O   UNL     1       5.735  -3.693  21.700  0.00  0.00    -0.249 OA
BRANCH   2   4
ATOM      4  O   UNL     1       7.209  -5.401  21.608  0.00  0.00    -0.479 OA
ATOM      5  H   UNL     1       6.823  -6.150  22.108  0.00  0.00    +0.295 HD
ENDBRANCH   2   4
ENDBRANCH   1   2
BRANCH   1   6
ATOM      6  N   UNL     1       8.322  -4.888  23.777  0.00  0.00    -0.166 NA
ATOM      7  H   UNL     1       9.198  -5.131  23.302  0.00  0.00    +0.150 HD
BRANCH   6   8
ATOM      8  S   UNL     1       8.641  -4.839  25.406  0.00  0.00    +0.093 S 
ATOM      9  O   UNL     1       7.775  -5.777  26.068  0.00  0.00    -0.142 OA
ATOM     10  O   UNL     1       8.816  -3.475  25.821  0.00  0.00    -0.142 OA
BRANCH   8  11
ATOM     11  N   UNL     1      10.150  -5.514  25.332  0.00  0.00    -0.193 NA
ATOM     12  H   UNL     1      10.542  -5.394  24.399  0.00  0.00    +0.145 HD
ATOM     13  H   UNL     1      10.088  -6.504  25.585  0.00  0.00    +0.145 HD
ENDBRANCH   8  11
ENDBRANCH   6   8
ENDBRANCH   1   6
BRANCH   1  14
ATOM     14  C   UNL     1       8.792  -2.724  22.538  0.00  0.00    +0.067 C 
BRANCH  14  15
ATOM     15  C   UNL     1       8.453  -1.259  22.364  0.00  0.00    -0.045 A 
ATOM     16  C   UNL     1       9.324  -0.459  21.606  0.00  0.00    +0.004 A 
ATOM     17  C   UNL     1       9.080   0.903  21.434  0.00  0.00    +0.000 A 
ATOM     18  C   UNL     1       7.965   1.489  22.024  0.00  0.00    +0.000 A 
ATOM     19  C   UNL     1       7.104   0.713  22.798  0.00  0.00    +0.000 A 
ATOM     20  C   UNL     1       7.351  -0.650  22.977  0.00  0.00    +0.004 A 
ENDBRANCH  14  15
ENDBRANCH   1  14
TORSDOF 7
ENDMDL
MODEL 8
REMARK VINA RESULT:      -5.2      3.922      5.961
REMARK  Name = 
REMARK  7 active torsions:
REMARK  status: ('A' for Active; 'I' for Inactive)
REMARK    1  A    between atoms: C_2  and  C_3
REMARK    2  A    between atoms: C_2  and  N_10
REMARK    3  A    between atoms: C_2  and  C_15
REMARK    4  A    between atoms: C_3  and  C_4
REMARK    5  A    between atoms: N_10  and  S_11
REMARK    6  A    between atoms: S_11  and  N_12
REMARK    7  A    between atoms: C_15  and  O_16
REMARK                            x       y       z     vdW  Elec       q    Type
REMARK                         _______ _______ _______ _____ _____    ______ ____
ROOT
ATOM      1  C   UNL     1       9.013  -0.600  23.408  0.00  0.00    +0.190 C 
ENDROOT
BRANCH   1   2
ATOM      2  C   UNL     1       9.911  -1.252  22.340  0.00  0.00    +0.324 C 
ATOM      3  O   UNL     1      10.743  -2.126  22.524  0.00  0.00    -0.249 OA
BRANCH   2   4
ATOM      4  O   UNL     1       9.619  -0.791  21.093  0.00  0.00    -0.479 OA
ATOM      5  H   UNL     1      10.442  -0.682  20.572  0.00  0.00    +0.295 HD
ENDBRANCH   2   4
ENDBRANCH   1   2
BRANCH   1   6
ATOM      6  N   UNL     1       8.617   0.705  22.752  0.00  0.00    -0.166 NA
ATOM      7  H   UNL     1       7.631   0.908  22.945  0.00  0.00    +0.150 HD
BRANCH   6   8
ATOM      8  S   UNL     1       9.491   2.053  23.170  0.00  0.00    +0.093 S 
ATOM      9  O   UNL     1      10.508   1.663  24.109  0.00  0.00    -0.142 OA
ATOM     10  O   UNL     1       8.599   3.163  23.365  0.00  0.00    -0.142 OA
BRANCH   8  11
ATOM     11  N   UNL     1      10.222   2.278  21.703  0.00  0.00    -0.193 NA
ATOM     12  H   UNL     1      10.876   3.059  21.755  0.00  0.00    +0.145 HD
ATOM     13  H   UNL     1       9.505   2.440  20.991  0.00  0.00    +0.145 HD
ENDBRANCH   8  11
ENDBRANCH   6   8
ENDBRANCH   1   6
BRANCH   1  14
ATOM     14  C   UNL     1       7.802  -1.467  23.779  0.00  0.00    +0.067 C 
BRANCH  14  15
ATOM     15  C   UNL     1       8.061  -2.803  24.442  0.00  0.00    -0.045 A 
ATOM     16  C   UNL     1       8.485  -2.811  25.782  0.00  0.00    +0.004 A 
ATOM     17  C   UNL     1       8.766  -4.010  26.438  0.00  0.00    +0.000 A 
ATOM     18  C   UNL     1       8.636  -5.218  25.762  0.00  0.00    +0.000 A 
ATOM     19  C   UNL     1       8.238  -5.225  24.426  0.00  0.00    +0.000 A 
ATOM     20  C   UNL     1       7.963  -4.026  23.767  0.00  0.00    +0.004 A 
ENDBRANCH  14  15
ENDBRANCH   1  14
TORSDOF 7
ENDMDL
MODEL 9
REMARK VINA RESULT:      -5.2      3.031      4.557
REMARK  Name = 
REMARK  7 active torsions:
REMARK  status: ('A' for Active; 'I' for Inactive)
REMARK    1  A    between atoms: C_2  and  C_3
REMARK    2  A    between atoms: C_2  and  N_10
REMARK    3  A    between atoms: C_2  and  C_15
REMARK    4  A    between atoms: C_3  and  C_4
REMARK    5  A    between atoms: N_10  and  S_11
REMARK    6  A    between atoms: S_11  and  N_12
REMARK    7  A    between atoms: C_15  and  O_16
REMARK                            x       y       z     vdW  Elec       q    Type
REMARK                         _______ _______ _______ _____ _____    ______ ____
ROOT
ATOM      1  C   UNL     1       6.898  -4.998  25.104  0.00  0.00    +0.190 C 
ENDROOT
BRANCH   1   2
ATOM      2  C   UNL     1       6.813  -5.823  26.401  0.00  0.00    +0.324 C 
ATOM      3  O   UNL     1       5.860  -6.483  26.783  0.00  0.00    -0.249 OA
BRANCH   2   4
ATOM      4  O   UNL     1       7.994  -5.808  27.080  0.00  0.00    -0.479 OA
ATOM      5  H   UNL     1       8.137  -4.928  27.487  0.00  0.00    +0.295 HD
ENDBRANCH   2   4
ENDBRANCH   1   2
BRANCH   1   6
ATOM      6  N   UNL     1       5.464  -4.999  24.620  0.00  0.00    -0.166 NA
ATOM      7  H   UNL     1       5.141  -4.036  24.482  0.00  0.00    +0.150 HD
BRANCH   6   8
ATOM      8  S   UNL     1       5.143  -5.833  23.220  0.00  0.00    +0.093 S 
ATOM      9  O   UNL     1       6.391  -6.127  22.569  0.00  0.00    -0.142 OA
ATOM     10  O   UNL     1       4.010  -5.246  22.560  0.00  0.00    -0.142 OA
BRANCH   8  11
ATOM     11  N   UNL     1       4.610  -7.226  23.937  0.00  0.00    -0.193 NA
ATOM     12  H   UNL     1       3.731  -7.522  23.515  0.00  0.00    +0.145 HD
ATOM     13  H   UNL     1       4.505  -7.067  24.943  0.00  0.00    +0.145 HD
ENDBRANCH   8  11
ENDBRANCH   6   8
ENDBRANCH   1   6
BRANCH   1  14
ATOM     14  C   UNL     1       7.444  -3.582  25.332  0.00  0.00    +0.067 C 
BRANCH  14  15
ATOM     15  C   UNL     1       8.169  -2.907  24.187  0.00  0.00    -0.045 A 
ATOM     16  C   UNL     1       9.549  -2.674  24.316  0.00  0.00    +0.004 A 
ATOM     17  C   UNL     1      10.264  -2.031  23.307  0.00  0.00    +0.000 A 
ATOM     18  C   UNL     1       9.610  -1.602  22.157  0.00  0.00    +0.000 A 
ATOM     19  C   UNL     1       8.238  -1.805  22.025  0.00  0.00    +0.000 A 
ATOM     20  C   UNL     1       7.519  -2.443  23.037  0.00  0.00    +0.004 A 
ENDBRANCH  14  15
ENDBRANCH   1  14
TORSDOF 7
ENDMDL
