MODEL 1
REMARK VINA RESULT:      -6.9      0.000      0.000
REMARK  Name = 
REMARK  10 active torsions:
REMARK  status: ('A' for Active; 'I' for Inactive)
REMARK    1  A    between atoms: CA_2  and  N_3
REMARK    2  A    between atoms: CA_2  and  C_16
REMARK    3  A    between atoms: CA_2  and  C_19
REMARK    4  A    between atoms: C_4  and  C_6
REMARK    5  A    between atoms: C_6  and  C_10
REMARK    6  A    between atoms: N_7  and  O_8
REMARK    7  A    between atoms: O_8  and  C_9
REMARK    8  A    between atoms: C_16  and  O_17
REMARK    9  A    between atoms: CA_25  and  C_27
REMARK   10  A    between atoms: C_27  and  O_28
REMARK                            x       y       z     vdW  Elec       q    Type
REMARK                         _______ _______ _______ _____ _____    ______ ____
ROOT
ATOM      1  CA  UNL     1       8.165  -4.001  25.322  0.00  0.00    +0.217 C 
ENDROOT
BRANCH   1   2
ATOM      2  C   UNL     1       7.948  -2.374  24.985  0.00  0.00    +0.194 C 
ATOM      3  N   UNL     1       8.490  -1.953  23.690  0.00  0.00    -0.260 NA
ATOM      4  CA  UNL     1       9.218  -0.882  23.553  0.00  0.00    +0.147 C 
ATOM      5  C   UNL     1       9.701   0.071  24.607  0.00  0.00    -0.013 C 
ATOM      6  C   UNL     1      10.924   0.624  24.467  0.00  0.00    +0.015 C 
ATOM      7  C   UNL     1       9.001   0.163  25.948  0.00  0.00    +0.108 C 
ATOM      8  S   UNL     1       7.644  -1.032  26.248  0.00  0.00    -0.127 S 
BRANCH   4   9
ATOM      9  C   UNL     1       9.665  -0.680  22.049  0.00  0.00    +0.355 C 
ATOM     10  OXT UNL     1       9.358   0.238  21.317  0.00  0.00    -0.243 OA
BRANCH   9  11
ATOM     11  O   UNL     1      10.452  -1.707  21.683  0.00  0.00    -0.476 OA
ATOM     12  H   UNL     1       9.884  -2.514  21.685  0.00  0.00    +0.295 HD
ENDBRANCH   9  11
ENDBRANCH   4   9
ENDBRANCH   1   2
BRANCH   1  13
ATOM     13  N   UNL     1       7.955  -4.916  24.182  0.00  0.00    -0.295 N 
ATOM     14  H   UNL     1       8.806  -5.303  23.771  0.00  0.00    +0.150 HD
ATOM     15  C   UNL     1       6.831  -5.419  23.535  0.00  0.00    +0.268 C 
ATOM     16  O   UNL     1       7.078  -6.164  22.583  0.00  0.00    -0.268 OA
BRANCH  15  17
ATOM     17  C   UNL     1       5.361  -5.147  23.907  0.00  0.00    +0.190 C 
ATOM     18  N   UNL     1       4.584  -4.195  23.493  0.00  0.00    -0.078 NA
BRANCH  17  19
ATOM     19  C   UNL     1       4.723  -5.884  24.990  0.00  0.00    +0.107 A 
ATOM     20  N   UNL     1       5.496  -6.650  25.857  0.00  0.00    -0.223 NA
ATOM     21  C   UNL     1       4.848  -6.823  27.000  0.00  0.00    +0.156 A 
ATOM     22  N   UNL     1       5.411  -7.384  28.071  0.00  0.00    -0.338 N 
ATOM     23  H   UNL     1       6.272  -7.903  27.939  0.00  0.00    +0.144 HD
ATOM     24  H   UNL     1       4.828  -7.674  28.842  0.00  0.00    +0.144 HD
ATOM     25  S   UNL     1       3.245  -6.239  27.036  0.00  0.00    -0.060 S 
ATOM     26  C   UNL     1       3.440  -5.614  25.460  0.00  0.00    +0.078 A 
ENDBRANCH  17  19
BRANCH  18  27
ATOM     27  O   UNL     1       5.280  -3.055  23.174  0.00  0.00    -0.396 OA
ATOM     28  C   UNL     1       5.583  -3.014  21.796  0.00  0.00    +0.313 C 
ENDBRANCH  18  27
ENDBRANCH  15  17
ENDBRANCH   1  13
BRANCH   1  29
ATOM     29  C   UNL     1       7.828  -4.749  26.655  0.00  0.00    +0.328 C 
ATOM     30  OXT UNL     1       7.183  -4.303  27.610  0.00  0.00    -0.249 OA
BRANCH  29  31
ATOM     31  O   UNL     1       8.310  -6.039  26.747  0.00  0.00    -0.479 OA
ATOM     32  H   UNL     1       8.243  -6.528  25.905  0.00  0.00    +0.295 HD
ENDBRANCH  29  31
ENDBRANCH   1  29
TORSDOF 9
ENDMDL
MODEL 2
REMARK VINA RESULT:      -6.9      2.655      3.438
REMARK  Name = 
REMARK  10 active torsions:
REMARK  status: ('A' for Active; 'I' for Inactive)
REMARK    1  A    between atoms: CA_2  and  N_3
REMARK    2  A    between atoms: CA_2  and  C_16
REMARK    3  A    between atoms: CA_2  and  C_19
REMARK    4  A    between atoms: C_4  and  C_6
REMARK    5  A    between atoms: C_6  and  C_10
REMARK    6  A    between atoms: N_7  and  O_8
REMARK    7  A    between atoms: O_8  and  C_9
REMARK    8  A    between atoms: C_16  and  O_17
REMARK    9  A    between atoms: CA_25  and  C_27
REMARK   10  A    between atoms: C_27  and  O_28
REMARK                            x       y       z     vdW  Elec       q    Type
REMARK                         _______ _______ _______ _____ _____    ______ ____
ROOT
ATOM      1  CA  UNL     1       5.656  -1.455  24.856  0.00  0.00    +0.217 C 
ENDROOT
BRANCH   1   2
ATOM      2  C   UNL     1       6.686  -0.551  23.892  0.00  0.00    +0.194 C 
ATOM      3  N   UNL     1       7.847  -1.294  23.394  0.00  0.00    -0.260 NA
ATOM      4  CA  UNL     1       9.058  -0.814  23.445  0.00  0.00    +0.147 C 
ATOM      5  C   UNL     1       9.534   0.479  24.038  0.00  0.00    -0.013 C 
ATOM      6  C   UNL     1      10.739   0.508  24.644  0.00  0.00    +0.015 C 
ATOM      7  C   UNL     1       8.575   1.634  24.253  0.00  0.00    +0.108 C 
ATOM      8  S   UNL     1       6.810   1.312  23.881  0.00  0.00    -0.127 S 
BRANCH   4   9
ATOM      9  C   UNL     1      10.105  -1.835  22.842  0.00  0.00    +0.355 C 
ATOM     10  OXT UNL     1      10.610  -2.779  23.413  0.00  0.00    -0.243 OA
BRANCH   9  11
ATOM     11  O   UNL     1      10.370  -1.492  21.569  0.00  0.00    -0.476 OA
ATOM     12  H   UNL     1       9.500  -1.330  21.133  0.00  0.00    +0.295 HD
ENDBRANCH   9  11
ENDBRANCH   4   9
ENDBRANCH   1   2
BRANCH   1  13
ATOM     13  N   UNL     1       4.813  -2.432  24.137  0.00  0.00    -0.295 N 
ATOM     14  H   UNL     1       3.819  -2.203  24.097  0.00  0.00    +0.150 HD
ATOM     15  C   UNL     1       5.067  -3.613  23.448  0.00  0.00    +0.268 C 
ATOM     16  O   UNL     1       4.064  -4.165  22.989  0.00  0.00    -0.268 OA
BRANCH  15  17
ATOM     17  C   UNL     1       6.448  -4.252  23.203  0.00  0.00    +0.190 C 
ATOM     18  N   UNL     1       7.055  -4.458  22.076  0.00  0.00    -0.078 NA
BRANCH  17  19
ATOM     19  C   UNL     1       7.165  -4.905  24.290  0.00  0.00    +0.107 A 
ATOM     20  N   UNL     1       8.522  -5.185  24.154  0.00  0.00    -0.223 NA
ATOM     21  C   UNL     1       9.075  -5.308  25.351  0.00  0.00    +0.156 A 
ATOM     22  N   UNL     1      10.392  -5.422  25.530  0.00  0.00    -0.338 N 
ATOM     23  H   UNL     1      10.962  -5.658  24.725  0.00  0.00    +0.144 HD
ATOM     24  H   UNL     1      10.747  -5.711  26.430  0.00  0.00    +0.144 HD
ATOM     25  S   UNL     1       7.995  -5.266  26.672  0.00  0.00    -0.060 S 
ATOM     26  C   UNL     1       6.702  -4.961  25.601  0.00  0.00    +0.078 A 
ENDBRANCH  17  19
BRANCH  18  27
ATOM     27  O   UNL     1       6.178  -4.654  21.038  0.00  0.00    -0.396 OA
ATOM     28  C   UNL     1       6.102  -6.020  20.689  0.00  0.00    +0.313 C 
ENDBRANCH  18  27
ENDBRANCH  15  17
ENDBRANCH   1  13
BRANCH   1  29
ATOM     29  C   UNL     1       4.917  -0.991  26.155  0.00  0.00    +0.328 C 
ATOM     30  OXT UNL     1       3.705  -1.071  26.384  0.00  0.00    -0.249 OA
BRANCH  29  31
ATOM     31  O   UNL     1       5.724  -0.441  27.130  0.00  0.00    -0.479 OA
ATOM     32  H   UNL     1       5.834   0.524  27.029  0.00  0.00    +0.295 HD
ENDBRANCH  29  31
ENDBRANCH   1  29
TORSDOF 9
ENDMDL
MODEL 3
REMARK VINA RESULT:      -6.7      2.727      6.875
REMARK  Name = 
REMARK  10 active torsions:
REMARK  status: ('A' for Active; 'I' for Inactive)
REMARK    1  A    between atoms: CA_2  and  N_3
REMARK    2  A    between atoms: CA_2  and  C_16
REMARK    3  A    between atoms: CA_2  and  C_19
REMARK    4  A    between atoms: C_4  and  C_6
REMARK    5  A    between atoms: C_6  and  C_10
REMARK    6  A    between atoms: N_7  and  O_8
REMARK    7  A    between atoms: O_8  and  C_9
REMARK    8  A    between atoms: C_16  and  O_17
REMARK    9  A    between atoms: CA_25  and  C_27
REMARK   10  A    between atoms: C_27  and  O_28
REMARK                            x       y       z     vdW  Elec       q    Type
REMARK                         _______ _______ _______ _____ _____    ______ ____
ROOT
ATOM      1  CA  UNL     1       8.829  -3.089  23.868  0.00  0.00    +0.217 C 
ENDROOT
BRANCH   1   2
ATOM      2  C   UNL     1       8.250  -4.555  24.438  0.00  0.00    +0.194 C 
ATOM      3  N   UNL     1       7.048  -5.033  23.751  0.00  0.00    -0.260 NA
ATOM      4  CA  UNL     1       6.009  -5.485  24.394  0.00  0.00    +0.147 C 
ATOM      5  C   UNL     1       5.777  -5.560  25.875  0.00  0.00    -0.013 C 
ATOM      6  C   UNL     1       4.529  -5.350  26.345  0.00  0.00    +0.015 C 
ATOM      7  C   UNL     1       6.941  -5.540  26.845  0.00  0.00    +0.108 C 
ATOM      8  S   UNL     1       8.605  -5.284  26.121  0.00  0.00    -0.127 S 
BRANCH   4   9
ATOM      9  C   UNL     1       4.863  -5.924  23.396  0.00  0.00    +0.355 C 
ATOM     10  OXT UNL     1       4.239  -5.204  22.644  0.00  0.00    -0.243 OA
BRANCH   9  11
ATOM     11  O   UNL     1       4.667  -7.250  23.508  0.00  0.00    -0.476 OA
ATOM     12  H   UNL     1       5.413  -7.687  23.032  0.00  0.00    +0.295 HD
ENDBRANCH   9  11
ENDBRANCH   4   9
ENDBRANCH   1   2
BRANCH   1  13
ATOM     13  N   UNL     1       9.251  -2.130  24.909  0.00  0.00    -0.295 N 
ATOM     14  H   UNL     1      10.100  -2.384  25.417  0.00  0.00    +0.150 HD
ATOM     15  C   UNL     1       8.769  -0.903  25.352  0.00  0.00    +0.268 C 
ATOM     16  O   UNL     1       9.408  -0.407  26.284  0.00  0.00    -0.268 OA
BRANCH  15  17
ATOM     17  C   UNL     1       7.562  -0.134  24.784  0.00  0.00    +0.190 C 
ATOM     18  N   UNL     1       6.299  -0.402  24.913  0.00  0.00    -0.078 NA
BRANCH  17  19
ATOM     19  C   UNL     1       7.754   0.938  23.816  0.00  0.00    +0.107 A 
ATOM     20  N   UNL     1       9.041   1.358  23.495  0.00  0.00    -0.223 NA
ATOM     21  C   UNL     1       9.036   1.946  22.308  0.00  0.00    +0.156 A 
ATOM     22  N   UNL     1      10.153   2.308  21.676  0.00  0.00    -0.338 N 
ATOM     23  H   UNL     1      11.011   2.350  22.215  0.00  0.00    +0.144 HD
ATOM     24  H   UNL     1      10.095   2.924  20.878  0.00  0.00    +0.144 HD
ATOM     25  S   UNL     1       7.498   2.177  21.604  0.00  0.00    -0.060 S 
ATOM     26  C   UNL     1       6.779   1.349  22.912  0.00  0.00    +0.078 A 
ENDBRANCH  17  19
BRANCH  18  27
ATOM     27  O   UNL     1       6.062  -1.746  25.060  0.00  0.00    -0.396 OA
ATOM     28  C   UNL     1       4.778  -1.980  25.596  0.00  0.00    +0.313 C 
ENDBRANCH  18  27
ENDBRANCH  15  17
ENDBRANCH   1  13
BRANCH   1  29
ATOM     29  C   UNL     1       8.346  -2.303  22.605  0.00  0.00    +0.328 C 
ATOM     30  OXT UNL     1       9.055  -1.677  21.808  0.00  0.00    -0.249 OA
BRANCH  29  31
ATOM     31  O   UNL     1       6.985  -2.327  22.377  0.00  0.00    -0.479 OA
ATOM     32  H   UNL     1       6.471  -2.525  23.182  0.00  0.00    +0.295 HD
ENDBRANCH  29  31
ENDBRANCH   1  29
TORSDOF 9
ENDMDL
MODEL 4
REMARK VINA RESULT:      -6.7      2.862      3.714
REMARK  Name = 
REMARK  10 active torsions:
REMARK  status: ('A' for Active; 'I' for Inactive)
REMARK    1  A    between atoms: CA_2  and  N_3
REMARK    2  A    between atoms: CA_2  and  C_16
REMARK    3  A    between atoms: CA_2  and  C_19
REMARK    4  A    between atoms: C_4  and  C_6
REMARK    5  A    between atoms: C_6  and  C_10
REMARK    6  A    between atoms: N_7  and  O_8
REMARK    7  A    between atoms: O_8  and  C_9
REMARK    8  A    between atoms: C_16  and  O_17
REMARK    9  A    between atoms: CA_25  and  C_27
REMARK   10  A    between atoms: C_27  and  O_28
REMARK                            x       y       z     vdW  Elec       q    Type
REMARK                         _______ _______ _______ _____ _____    ______ ____
ROOT
ATOM      1  CA  UNL     1       6.730  -1.916  24.070  0.00  0.00    +0.217 C 
ENDROOT
BRANCH   1   2
ATOM      2  C   UNL     1       8.277  -1.288  24.213  0.00  0.00    +0.194 C 
ATOM      3  N   UNL     1       8.317   0.112  24.643  0.00  0.00    -0.260 NA
ATOM      4  CA  UNL     1       9.064   1.002  24.054  0.00  0.00    +0.147 C 
ATOM      5  C   UNL     1       9.943   0.846  22.848  0.00  0.00    -0.013 C 
ATOM      6  C   UNL     1      10.045   1.877  21.984  0.00  0.00    +0.015 C 
ATOM      7  C   UNL     1      10.440  -0.521  22.423  0.00  0.00    +0.108 C 
ATOM      8  S   UNL     1       9.804  -1.956  23.370  0.00  0.00    -0.127 S 
BRANCH   4   9
ATOM      9  C   UNL     1       8.901   2.424  24.728  0.00  0.00    +0.355 C 
ATOM     10  OXT UNL     1       9.387   3.469  24.346  0.00  0.00    -0.243 OA
BRANCH   9  11
ATOM     11  O   UNL     1       8.130   2.305  25.824  0.00  0.00    -0.476 OA
ATOM     12  H   UNL     1       7.398   2.960  25.727  0.00  0.00    +0.295 HD
ENDBRANCH   9  11
ENDBRANCH   4   9
ENDBRANCH   1   2
BRANCH   1  13
ATOM     13  N   UNL     1       6.395  -2.473  22.743  0.00  0.00    -0.295 N 
ATOM     14  H   UNL     1       6.557  -1.845  21.954  0.00  0.00    +0.150 HD
ATOM     15  C   UNL     1       5.928  -3.704  22.296  0.00  0.00    +0.268 C 
ATOM     16  O   UNL     1       5.749  -3.773  21.078  0.00  0.00    -0.268 OA
BRANCH  15  17
ATOM     17  C   UNL     1       5.644  -4.946  23.163  0.00  0.00    +0.190 C 
ATOM     18  N   UNL     1       4.574  -5.679  23.200  0.00  0.00    -0.078 NA
BRANCH  17  19
ATOM     19  C   UNL     1       6.550  -5.321  24.240  0.00  0.00    +0.107 A 
ATOM     20  N   UNL     1       7.923  -5.352  24.010  0.00  0.00    -0.223 NA
ATOM     21  C   UNL     1       8.571  -5.229  25.159  0.00  0.00    +0.156 A 
ATOM     22  N   UNL     1       9.893  -5.069  25.229  0.00  0.00    -0.338 N 
ATOM     23  H   UNL     1      10.442  -5.283  24.403  0.00  0.00    +0.144 HD
ATOM     24  H   UNL     1      10.360  -5.180  26.117  0.00  0.00    +0.144 HD
ATOM     25  S   UNL     1       7.598  -5.242  26.562  0.00  0.00    -0.060 S 
ATOM     26  C   UNL     1       6.199  -5.313  25.587  0.00  0.00    +0.078 A 
ENDBRANCH  17  19
BRANCH  18  27
ATOM     27  O   UNL     1       3.442  -4.968  22.889  0.00  0.00    -0.396 OA
ATOM     28  C   UNL     1       2.554  -4.923  23.985  0.00  0.00    +0.313 C 
ENDBRANCH  18  27
ENDBRANCH  15  17
ENDBRANCH   1  13
BRANCH   1  29
ATOM     29  C   UNL     1       5.424  -1.395  24.757  0.00  0.00    +0.328 C 
ATOM     30  OXT UNL     1       4.534  -2.083  25.271  0.00  0.00    -0.249 OA
BRANCH  29  31
ATOM     31  O   UNL     1       5.275  -0.023  24.781  0.00  0.00    -0.479 OA
ATOM     32  H   UNL     1       4.865   0.326  23.967  0.00  0.00    +0.295 HD
ENDBRANCH  29  31
ENDBRANCH   1  29
TORSDOF 9
ENDMDL
MODEL 5
REMARK VINA RESULT:      -6.6      2.586      7.663
REMARK  Name = 
REMARK  10 active torsions:
REMARK  status: ('A' for Active; 'I' for Inactive)
REMARK    1  A    between atoms: CA_2  and  N_3
REMARK    2  A    between atoms: CA_2  and  C_16
REMARK    3  A    between atoms: CA_2  and  C_19
REMARK    4  A    between atoms: C_4  and  C_6
REMARK    5  A    between atoms: C_6  and  C_10
REMARK    6  A    between atoms: N_7  and  O_8
REMARK    7  A    between atoms: O_8  and  C_9
REMARK    8  A    between atoms: C_16  and  O_17
REMARK    9  A    between atoms: CA_25  and  C_27
REMARK   10  A    between atoms: C_27  and  O_28
REMARK                            x       y       z     vdW  Elec       q    Type
REMARK                         _______ _______ _______ _____ _____    ______ ____
ROOT
ATOM      1  CA  UNL     1       6.033  -4.918  23.569  0.00  0.00    +0.217 C 
ENDROOT
BRANCH   1   2
ATOM      2  C   UNL     1       5.563  -5.975  24.782  0.00  0.00    +0.194 C 
ATOM      3  N   UNL     1       4.511  -6.914  24.384  0.00  0.00    -0.260 NA
ATOM      4  CA  UNL     1       3.463  -7.143  25.123  0.00  0.00    +0.147 C 
ATOM      5  C   UNL     1       3.070  -6.506  26.423  0.00  0.00    -0.013 C 
ATOM      6  C   UNL     1       1.761  -6.289  26.668  0.00  0.00    +0.015 C 
ATOM      7  C   UNL     1       4.104  -5.822  27.296  0.00  0.00    +0.108 C 
ATOM      8  S   UNL     1       5.801  -5.703  26.614  0.00  0.00    -0.127 S 
BRANCH   4   9
ATOM      9  C   UNL     1       2.499  -8.195  24.441  0.00  0.00    +0.355 C 
ATOM     10  OXT UNL     1       1.838  -8.030  23.436  0.00  0.00    -0.243 OA
BRANCH   9  11
ATOM     11  O   UNL     1       2.510  -9.332  25.159  0.00  0.00    -0.476 OA
ATOM     12  H   UNL     1       2.397  -9.071  26.104  0.00  0.00    +0.295 HD
ENDBRANCH   9  11
ENDBRANCH   4   9
ENDBRANCH   1   2
BRANCH   1  13
ATOM     13  N   UNL     1       5.964  -3.485  23.920  0.00  0.00    -0.295 N 
ATOM     14  H   UNL     1       5.041  -3.149  24.200  0.00  0.00    +0.150 HD
ATOM     15  C   UNL     1       6.898  -2.457  23.994  0.00  0.00    +0.268 C 
ATOM     16  O   UNL     1       6.430  -1.362  24.316  0.00  0.00    -0.268 OA
BRANCH  15  17
ATOM     17  C   UNL     1       8.412  -2.575  23.735  0.00  0.00    +0.190 C 
ATOM     18  N   UNL     1       9.218  -3.533  24.074  0.00  0.00    -0.078 NA
BRANCH  17  19
ATOM     19  C   UNL     1       9.165  -1.442  23.213  0.00  0.00    +0.107 A 
ATOM     20  N   UNL     1       8.784  -0.851  22.012  0.00  0.00    -0.223 NA
ATOM     21  C   UNL     1       9.241   0.391  21.961  0.00  0.00    +0.156 A 
ATOM     22  N   UNL     1       8.898   1.248  20.998  0.00  0.00    -0.338 N 
ATOM     23  H   UNL     1       8.468   0.872  20.159  0.00  0.00    +0.144 HD
ATOM     24  H   UNL     1       9.419   2.105  20.888  0.00  0.00    +0.144 HD
ATOM     25  S   UNL     1      10.273   0.853  23.240  0.00  0.00    -0.060 S 
ATOM     26  C   UNL     1      10.026  -0.664  23.983  0.00  0.00    +0.078 A 
ENDBRANCH  17  19
BRANCH  18  27
ATOM     27  O   UNL     1       8.815  -4.175  25.218  0.00  0.00    -0.396 OA
ATOM     28  C   UNL     1       9.374  -5.468  25.299  0.00  0.00    +0.313 C 
ENDBRANCH  18  27
ENDBRANCH  15  17
ENDBRANCH   1  13
BRANCH   1  29
ATOM     29  C   UNL     1       5.822  -5.085  22.028  0.00  0.00    +0.328 C 
ATOM     30  OXT UNL     1       5.747  -4.179  21.189  0.00  0.00    -0.249 OA
BRANCH  29  31
ATOM     31  O   UNL     1       5.714  -6.387  21.583  0.00  0.00    -0.479 OA
ATOM     32  H   UNL     1       6.219  -6.549  20.763  0.00  0.00    +0.295 HD
ENDBRANCH  29  31
ENDBRANCH   1  29
TORSDOF 9
ENDMDL
MODEL 6
REMARK VINA RESULT:      -6.6      3.430      8.038
REMARK  Name = 
REMARK  10 active torsions:
REMARK  status: ('A' for Active; 'I' for Inactive)
REMARK    1  A    between atoms: CA_2  and  N_3
REMARK    2  A    between atoms: CA_2  and  C_16
REMARK    3  A    between atoms: CA_2  and  C_19
REMARK    4  A    between atoms: C_4  and  C_6
REMARK    5  A    between atoms: C_6  and  C_10
REMARK    6  A    between atoms: N_7  and  O_8
REMARK    7  A    between atoms: O_8  and  C_9
REMARK    8  A    between atoms: C_16  and  O_17
REMARK    9  A    between atoms: CA_25  and  C_27
REMARK   10  A    between atoms: C_27  and  O_28
REMARK                            x       y       z     vdW  Elec       q    Type
REMARK                         _______ _______ _______ _____ _____    ______ ____
ROOT
ATOM      1  CA  UNL     1       8.663  -1.393  23.977  0.00  0.00    +0.217 C 
ENDROOT
BRANCH   1   2
ATOM      2  C   UNL     1       7.478  -1.963  25.016  0.00  0.00    +0.194 C 
ATOM      3  N   UNL     1       7.882  -3.132  25.801  0.00  0.00    -0.260 NA
ATOM      4  CA  UNL     1       7.123  -4.184  25.929  0.00  0.00    +0.147 C 
ATOM      5  C   UNL     1       5.790  -4.465  25.301  0.00  0.00    -0.013 C 
ATOM      6  C   UNL     1       5.502  -5.732  24.935  0.00  0.00    +0.015 C 
ATOM      7  C   UNL     1       4.921  -3.335  24.786  0.00  0.00    +0.108 C 
ATOM      8  S   UNL     1       5.644  -1.652  24.849  0.00  0.00    -0.127 S 
BRANCH   4   9
ATOM      9  C   UNL     1       7.818  -5.287  26.825  0.00  0.00    +0.355 C 
ATOM     10  OXT UNL     1       7.359  -5.808  27.821  0.00  0.00    -0.243 OA
BRANCH   9  11
ATOM     11  O   UNL     1       9.030  -5.568  26.316  0.00  0.00    -0.476 OA
ATOM     12  H   UNL     1       9.668  -4.948  26.744  0.00  0.00    +0.295 HD
ENDBRANCH   9  11
ENDBRANCH   4   9
ENDBRANCH   1   2
BRANCH   1  13
ATOM     13  N   UNL     1       8.203  -0.408  22.976  0.00  0.00    -0.295 N 
ATOM     14  H   UNL     1       7.731  -0.804  22.161  0.00  0.00    +0.150 HD
ATOM     15  C   UNL     1       8.232   0.979  22.894  0.00  0.00    +0.268 C 
ATOM     16  O   UNL     1       7.750   1.442  21.857  0.00  0.00    -0.268 OA
BRANCH  15  17
ATOM     17  C   UNL     1       8.779   1.948  23.959  0.00  0.00    +0.190 C 
ATOM     18  N   UNL     1       8.496   2.004  25.224  0.00  0.00    -0.078 NA
BRANCH  17  19
ATOM     19  C   UNL     1       9.581   3.101  23.571  0.00  0.00    +0.107 A 
ATOM     20  N   UNL     1       9.101   4.387  23.800  0.00  0.00    -0.223 NA
ATOM     21  C   UNL     1      10.113   5.241  23.844  0.00  0.00    +0.156 A 
ATOM     22  N   UNL     1       9.967   6.517  24.204  0.00  0.00    -0.338 N 
ATOM     23  H   UNL     1       9.029   6.903  24.214  0.00  0.00    +0.144 HD
ATOM     24  H   UNL     1      10.717   7.170  24.032  0.00  0.00    +0.144 HD
ATOM     25  S   UNL     1      11.644   4.594  23.454  0.00  0.00    -0.060 S 
ATOM     26  C   UNL     1      10.948   3.042  23.311  0.00  0.00    +0.078 A 
ENDBRANCH  17  19
BRANCH  18  27
ATOM     27  O   UNL     1       7.223   1.568  25.494  0.00  0.00    -0.396 OA
ATOM     28  C   UNL     1       6.293   2.625  25.400  0.00  0.00    +0.313 C 
ENDBRANCH  18  27
ENDBRANCH  15  17
ENDBRANCH   1  13
BRANCH   1  29
ATOM     29  C   UNL     1       9.885  -2.183  23.402  0.00  0.00    +0.328 C 
ATOM     30  OXT UNL     1      10.582  -1.864  22.432  0.00  0.00    -0.249 OA
BRANCH  29  31
ATOM     31  O   UNL     1      10.199  -3.352  24.066  0.00  0.00    -0.479 OA
ATOM     32  H   UNL     1      10.491  -4.061  23.463  0.00  0.00    +0.295 HD
ENDBRANCH  29  31
ENDBRANCH   1  29
TORSDOF 9
ENDMDL
MODEL 7
REMARK VINA RESULT:      -6.5      2.550      4.258
REMARK  Name = 
REMARK  10 active torsions:
REMARK  status: ('A' for Active; 'I' for Inactive)
REMARK    1  A    between atoms: CA_2  and  N_3
REMARK    2  A    between atoms: CA_2  and  C_16
REMARK    3  A    between atoms: CA_2  and  C_19
REMARK    4  A    between atoms: C_4  and  C_6
REMARK    5  A    between atoms: C_6  and  C_10
REMARK    6  A    between atoms: N_7  and  O_8
REMARK    7  A    between atoms: O_8  and  C_9
REMARK    8  A    between atoms: C_16  and  O_17
REMARK    9  A    between atoms: CA_25  and  C_27
REMARK   10  A    between atoms: C_27  and  O_28
REMARK                            x       y       z     vdW  Elec       q    Type
REMARK                         _______ _______ _______ _____ _____    ______ ____
ROOT
ATOM      1  CA  UNL     1       6.433  -4.255  21.896  0.00  0.00    +0.217 C 
ENDROOT
BRANCH   1   2
ATOM      2  C   UNL     1       7.818  -3.593  22.567  0.00  0.00    +0.194 C 
ATOM      3  N   UNL     1       8.338  -4.333  23.720  0.00  0.00    -0.260 NA
ATOM      4  CA  UNL     1       8.699  -3.742  24.824  0.00  0.00    +0.147 C 
ATOM      5  C   UNL     1       8.615  -2.288  25.185  0.00  0.00    -0.013 C 
ATOM      6  C   UNL     1       8.331  -1.953  26.461  0.00  0.00    +0.015 C 
ATOM      7  C   UNL     1       8.521  -1.225  24.107  0.00  0.00    +0.108 C 
ATOM      8  S   UNL     1       8.378  -1.821  22.380  0.00  0.00    -0.127 S 
BRANCH   4   9
ATOM      9  C   UNL     1       9.213  -4.788  25.893  0.00  0.00    +0.355 C 
ATOM     10  OXT UNL     1       8.819  -4.914  27.034  0.00  0.00    -0.243 OA
BRANCH   9  11
ATOM     11  O   UNL     1      10.186  -5.536  25.343  0.00  0.00    -0.476 OA
ATOM     12  H   UNL     1      10.914  -5.587  26.007  0.00  0.00    +0.295 HD
ENDBRANCH   9  11
ENDBRANCH   4   9
ENDBRANCH   1   2
BRANCH   1  13
ATOM     13  N   UNL     1       5.170  -3.898  22.575  0.00  0.00    -0.295 N 
ATOM     14  H   UNL     1       4.555  -3.274  22.051  0.00  0.00    +0.150 HD
ATOM     15  C   UNL     1       4.587  -4.249  23.788  0.00  0.00    +0.268 C 
ATOM     16  O   UNL     1       3.501  -3.708  24.010  0.00  0.00    -0.268 OA
BRANCH  15  17
ATOM     17  C   UNL     1       5.155  -5.235  24.826  0.00  0.00    +0.190 C 
ATOM     18  N   UNL     1       5.332  -6.516  24.713  0.00  0.00    -0.078 NA
BRANCH  17  19
ATOM     19  C   UNL     1       5.382  -4.814  26.202  0.00  0.00    +0.107 A 
ATOM     20  N   UNL     1       5.144  -3.493  26.570  0.00  0.00    -0.223 NA
ATOM     21  C   UNL     1       4.934  -3.424  27.876  0.00  0.00    +0.156 A 
ATOM     22  N   UNL     1       4.527  -2.309  28.484  0.00  0.00    -0.338 N 
ATOM     23  H   UNL     1       4.608  -1.435  27.977  0.00  0.00    +0.144 HD
ATOM     24  H   UNL     1       4.573  -2.248  29.491  0.00  0.00    +0.144 HD
ATOM     25  S   UNL     1       5.173  -4.876  28.741  0.00  0.00    -0.060 S 
ATOM     26  C   UNL     1       5.481  -5.695  27.276  0.00  0.00    +0.078 A 
ENDBRANCH  17  19
BRANCH  18  27
ATOM     27  O   UNL     1       4.429  -7.094  23.856  0.00  0.00    -0.396 OA
ATOM     28  C   UNL     1       3.285  -7.542  24.551  0.00  0.00    +0.313 C 
ENDBRANCH  18  27
ENDBRANCH  15  17
ENDBRANCH   1  13
BRANCH   1  29
ATOM     29  C   UNL     1       6.279  -5.659  21.223  0.00  0.00    +0.328 C 
ATOM     30  OXT UNL     1       5.936  -5.886  20.057  0.00  0.00    -0.249 OA
BRANCH  29  31
ATOM     31  O   UNL     1       6.562  -6.739  22.035  0.00  0.00    -0.479 OA
ATOM     32  H   UNL     1       6.250  -6.614  22.951  0.00  0.00    +0.295 HD
ENDBRANCH  29  31
ENDBRANCH   1  29
TORSDOF 9
ENDMDL
MODEL 8
REMARK VINA RESULT:      -6.5      3.233      7.499
REMARK  Name = 
REMARK  10 active torsions:
REMARK  status: ('A' for Active; 'I' for Inactive)
REMARK    1  A    between atoms: CA_2  and  N_3
REMARK    2  A    between atoms: CA_2  and  C_16
REMARK    3  A    between atoms: CA_2  and  C_19
REMARK    4  A    between atoms: C_4  and  C_6
REMARK    5  A    between atoms: C_6  and  C_10
REMARK    6  A    between atoms: N_7  and  O_8
REMARK    7  A    between atoms: O_8  and  C_9
REMARK    8  A    between atoms: C_16  and  O_17
REMARK    9  A    between atoms: CA_25  and  C_27
REMARK   10  A    between atoms: C_27  and  O_28
REMARK                            x       y       z     vdW  Elec       q    Type
REMARK                         _______ _______ _______ _____ _____    ______ ____
ROOT
ATOM      1  CA  UNL     1       7.423  -1.034  25.212  0.00  0.00    +0.217 C 
ENDROOT
BRANCH   1   2
ATOM      2  C   UNL     1       7.821  -2.630  24.894  0.00  0.00    +0.194 C 
ATOM      3  N   UNL     1       7.332  -3.125  23.605  0.00  0.00    -0.260 NA
ATOM      4  CA  UNL     1       6.728  -4.273  23.481  0.00  0.00    +0.147 C 
ATOM      5  C   UNL     1       6.353  -5.260  24.547  0.00  0.00    -0.013 C 
ATOM      6  C   UNL     1       5.201  -5.949  24.414  0.00  0.00    +0.015 C 
ATOM      7  C   UNL     1       7.058  -5.257  25.889  0.00  0.00    +0.108 C 
ATOM      8  S   UNL     1       8.272  -3.914  26.174  0.00  0.00    -0.127 S 
BRANCH   4   9
ATOM      9  C   UNL     1       6.308  -4.541  21.980  0.00  0.00    +0.355 C 
ATOM     10  OXT UNL     1       6.714  -5.430  21.260  0.00  0.00    -0.243 OA
BRANCH   9  11
ATOM     11  O   UNL     1       5.414  -3.610  21.600  0.00  0.00    -0.476 OA
ATOM     12  H   UNL     1       4.770  -4.063  21.005  0.00  0.00    +0.295 HD
ENDBRANCH   9  11
ENDBRANCH   4   9
ENDBRANCH   1   2
BRANCH   1  13
ATOM     13  N   UNL     1       7.012  -0.240  24.036  0.00  0.00    -0.295 N 
ATOM     14  H   UNL     1       6.045  -0.375  23.735  0.00  0.00    +0.150 HD
ATOM     15  C   UNL     1       7.641   0.707  23.236  0.00  0.00    +0.268 C 
ATOM     16  O   UNL     1       6.948   1.139  22.311  0.00  0.00    -0.268 OA
BRANCH  15  17
ATOM     17  C   UNL     1       9.071   1.253  23.414  0.00  0.00    +0.190 C 
ATOM     18  N   UNL     1      10.199   0.631  23.260  0.00  0.00    -0.078 NA
BRANCH  17  19
ATOM     19  C   UNL     1       9.295   2.566  24.004  0.00  0.00    +0.107 A 
ATOM     20  N   UNL     1      10.323   3.373  23.526  0.00  0.00    -0.223 NA
ATOM     21  C   UNL     1      10.068   4.640  23.816  0.00  0.00    +0.156 A 
ATOM     22  N   UNL     1      10.800   5.651  23.346  0.00  0.00    -0.338 N 
ATOM     23  H   UNL     1      11.710   5.435  22.952  0.00  0.00    +0.144 HD
ATOM     24  H   UNL     1      10.694   6.570  23.749  0.00  0.00    +0.144 HD
ATOM     25  S   UNL     1       8.703   4.912  24.804  0.00  0.00    -0.060 S 
ATOM     26  C   UNL     1       8.351   3.242  24.771  0.00  0.00    +0.078 A 
ENDBRANCH  17  19
BRANCH  18  27
ATOM     27  O   UNL     1      10.096  -0.711  23.527  0.00  0.00    -0.396 OA
ATOM     28  C   UNL     1      10.362  -1.481  22.374  0.00  0.00    +0.313 C 
ENDBRANCH  18  27
ENDBRANCH  15  17
ENDBRANCH   1  13
BRANCH   1  29
ATOM     29  C   UNL     1       8.069  -0.086  26.277  0.00  0.00    +0.328 C 
ATOM     30  OXT UNL     1       7.474   0.692  27.032  0.00  0.00    -0.249 OA
BRANCH  29  31
ATOM     31  O   UNL     1       9.445  -0.145  26.364  0.00  0.00    -0.479 OA
ATOM     32  H   UNL     1       9.885   0.573  25.871  0.00  0.00    +0.295 HD
ENDBRANCH  29  31
ENDBRANCH   1  29
TORSDOF 9
ENDMDL
MODEL 9
REMARK VINA RESULT:      -6.5      3.147      5.054
REMARK  Name = 
REMARK  10 active torsions:
REMARK  status: ('A' for Active; 'I' for Inactive)
REMARK    1  A    between atoms: CA_2  and  N_3
REMARK    2  A    between atoms: CA_2  and  C_16
REMARK    3  A    between atoms: CA_2  and  C_19
REMARK    4  A    between atoms: C_4  and  C_6
REMARK    5  A    between atoms: C_6  and  C_10
REMARK    6  A    between atoms: N_7  and  O_8
REMARK    7  A    between atoms: O_8  and  C_9
REMARK    8  A    between atoms: C_16  and  O_17
REMARK    9  A    between atoms: CA_25  and  C_27
REMARK   10  A    between atoms: C_27  and  O_28
REMARK                            x       y       z     vdW  Elec       q    Type
REMARK                         _______ _______ _______ _____ _____    ______ ____
ROOT
ATOM      1  CA  UNL     1       6.509  -0.593  24.815  0.00  0.00    +0.217 C 
ENDROOT
BRANCH   1   2
ATOM      2  C   UNL     1       6.600   0.832  23.938  0.00  0.00    +0.194 C 
ATOM      3  N   UNL     1       7.944   1.153  23.452  0.00  0.00    -0.260 NA
ATOM      4  CA  UNL     1       8.467   2.340  23.576  0.00  0.00    +0.147 C 
ATOM      5  C   UNL     1       7.898   3.554  24.250  0.00  0.00    -0.013 C 
ATOM      6  C   UNL     1       8.738   4.383  24.905  0.00  0.00    +0.015 C 
ATOM      7  C   UNL     1       6.406   3.686  24.481  0.00  0.00    +0.108 C 
ATOM      8  S   UNL     1       5.376   2.241  24.023  0.00  0.00    -0.127 S 
BRANCH   4   9
ATOM      9  C   UNL     1       9.926   2.391  22.967  0.00  0.00    +0.355 C 
ATOM     10  OXT UNL     1      10.967   2.493  23.583  0.00  0.00    -0.243 OA
BRANCH   9  11
ATOM     11  O   UNL     1       9.846   2.309  21.627  0.00  0.00    -0.476 OA
ATOM     12  H   UNL     1       9.763   3.234  21.291  0.00  0.00    +0.295 HD
ENDBRANCH   9  11
ENDBRANCH   4   9
ENDBRANCH   1   2
BRANCH   1  13
ATOM     13  N   UNL     1       5.597  -1.616  24.265  0.00  0.00    -0.295 N 
ATOM     14  H   UNL     1       4.635  -1.307  24.116  0.00  0.00    +0.150 HD
ATOM     15  C   UNL     1       5.752  -2.935  23.855  0.00  0.00    +0.268 C 
ATOM     16  O   UNL     1       4.715  -3.475  23.461  0.00  0.00    -0.268 OA
BRANCH  15  17
ATOM     17  C   UNL     1       7.065  -3.741  23.836  0.00  0.00    +0.190 C 
ATOM     18  N   UNL     1       7.324  -4.879  24.404  0.00  0.00    -0.078 NA
BRANCH  17  19
ATOM     19  C   UNL     1       8.285  -3.157  23.296  0.00  0.00    +0.107 A 
ATOM     20  N   UNL     1       8.238  -2.425  22.113  0.00  0.00    -0.223 NA
ATOM     21  C   UNL     1       9.276  -1.604  22.054  0.00  0.00    +0.156 A 
ATOM     22  N   UNL     1       9.406  -0.671  21.110  0.00  0.00    -0.338 N 
ATOM     23  H   UNL     1       8.821  -0.746  20.284  0.00  0.00    +0.144 HD
ATOM     24  H   UNL     1      10.296  -0.210  20.987  0.00  0.00    +0.144 HD
ATOM     25  S   UNL     1      10.431  -1.781  23.298  0.00  0.00    -0.060 S 
ATOM     26  C   UNL     1       9.446  -2.963  24.039  0.00  0.00    +0.078 A 
ENDBRANCH  17  19
BRANCH  18  27
ATOM     27  O   UNL     1       6.588  -5.072  25.546  0.00  0.00    -0.396 OA
ATOM     28  C   UNL     1       7.428  -5.272  26.663  0.00  0.00    +0.313 C 
ENDBRANCH  18  27
ENDBRANCH  15  17
ENDBRANCH   1  13
BRANCH   1  29
ATOM     29  C   UNL     1       6.599  -0.761  26.368  0.00  0.00    +0.328 C 
ATOM     30  OXT UNL     1       5.950  -0.141  27.218  0.00  0.00    -0.249 OA
BRANCH  29  31
ATOM     31  O   UNL     1       7.502  -1.708  26.810  0.00  0.00    -0.479 OA
ATOM     32  H   UNL     1       7.229  -2.619  26.594  0.00  0.00    +0.295 HD
ENDBRANCH  29  31
ENDBRANCH   1  29
TORSDOF 9
ENDMDL
