MODEL 1
REMARK VINA RESULT:      -6.0      0.000      0.000
REMARK  Name = 
REMARK  35 active torsions:
REMARK  status: ('A' for Active; 'I' for Inactive)
REMARK    1  A    between atoms: C_1  and  O_2
REMARK    2  A    between atoms: O_2  and  C_3
REMARK    3  A    between atoms: C_5  and  C_6
REMARK    4  A    between atoms: C_7  and  C_8
REMARK    5  A    between atoms: C_8  and  S_10
REMARK    6  A    between atoms: S_10  and  C_11
REMARK    7  A    between atoms: C_11  and  C_12
REMARK    8  A    between atoms: C_12  and  N_13
REMARK    9  A    between atoms: C_14  and  C_16
REMARK   10  A    between atoms: C_16  and  C_17
REMARK   11  A    between atoms: C_17  and  N_18
REMARK   12  A    between atoms: C_19  and  C_21
REMARK   13  A    between atoms: C_21  and  O_23
REMARK   14  A    between atoms: C_21  and  C_24
REMARK   15  A    between atoms: C_24  and  C_25
REMARK   16  A    between atoms: C_24  and  C_26
REMARK   17  A    between atoms: C_24  and  C_27
REMARK   18  A    between atoms: C_27  and  O_28
REMARK   19  A    between atoms: O_28  and  P_29
REMARK   20  A    between atoms: P_29  and  O_31
REMARK   21  A    between atoms: P_29  and  O_32
REMARK   22  A    between atoms: O_32  and  P_33
REMARK   23  A    between atoms: P_33  and  O_34
REMARK   24  A    between atoms: P_33  and  O_36
REMARK   25  A    between atoms: O_36  and  C_37
REMARK   26  A    between atoms: C_37  and  C_38
REMARK   27  A    between atoms: C_41  and  N_53
REMARK   28  A    between atoms: C_43  and  O_45
REMARK   29  A    between atoms: C_46  and  O_48
REMARK   30  A    between atoms: O_48  and  P_49
REMARK   31  A    between atoms: P_49  and  O_50
REMARK   32  A    between atoms: P_49  and  O_51
REMARK   33  A    between atoms: C_57  and  N_58
REMARK   34  A    between atoms: C_64  and  O_65
REMARK   35  A    between atoms: C_66  and  O_67
REMARK                            x       y       z     vdW  Elec       q    Type
REMARK                         _______ _______ _______ _____ _____    ______ ____
ROOT
ATOM      1  O   UNL     1       7.327   0.893  27.959  0.00  0.00    -0.286 OA
ENDROOT
BRANCH   1   2
ATOM      2  P   UNL     1       6.638   1.688  29.168  0.00  0.00    +0.483 P 
ATOM      3  O   UNL     1       6.083   0.786  30.220  0.00  0.00    -0.227 OA
BRANCH   2   4
ATOM      4  O   UNL     1       7.855   2.555  29.739  0.00  0.00    -0.302 OA
ATOM      5  H   UNL     1       8.605   1.958  29.930  0.00  0.00    +0.222 HD
ENDBRANCH   2   4
BRANCH   2   6
ATOM      6  O   UNL     1       5.632   2.760  28.558  0.00  0.00    -0.186 OA
BRANCH   6   7
ATOM      7  P   UNL     1       5.785   4.322  28.815  0.00  0.00    +0.483 P 
ATOM      8  O   UNL     1       5.635   4.811  30.217  0.00  0.00    -0.227 OA
BRANCH   7   9
ATOM      9  O   UNL     1       7.211   4.717  28.204  0.00  0.00    -0.302 OA
ATOM     10  H   UNL     1       7.486   5.616  28.461  0.00  0.00    +0.222 HD
ENDBRANCH   7   9
BRANCH   7  11
ATOM     11  O   UNL     1       4.820   5.007  27.744  0.00  0.00    -0.284 OA
BRANCH  11  12
ATOM     12  C   UNL     1       4.426   4.319  26.570  0.00  0.00    +0.206 C 
BRANCH  12  13
ATOM     13  C   UNL     1       5.081   5.086  25.427  0.00  0.00    +0.179 C 
ATOM     14  C   UNL     1       4.929   4.428  24.071  0.00  0.00    +0.194 C 
ATOM     15  C   UNL     1       6.183   4.847  23.301  0.00  0.00    +0.196 C 
ATOM     16  C   UNL     1       6.883   5.797  24.275  0.00  0.00    +0.253 C 
ATOM     17  O   UNL     1       6.496   5.316  25.584  0.00  0.00    -0.346 OA
BRANCH  16  18
ATOM     18  N   UNL     1       8.320   5.818  24.114  0.00  0.00    -0.286 N 
ATOM     19  C   UNL     1       9.099   4.694  23.973  0.00  0.00    +0.167 A 
ATOM     20  C   UNL     1      10.376   5.174  23.739  0.00  0.00    +0.147 A 
ATOM     21  C   UNL     1      11.374   4.209  23.517  0.00  0.00    +0.147 A 
ATOM     22  N   UNL     1      11.030   2.902  23.560  0.00  0.00    -0.219 NA
ATOM     23  C   UNL     1       9.747   2.579  23.828  0.00  0.00    +0.225 A 
ATOM     24  N   UNL     1      10.389   6.552  23.773  0.00  0.00    -0.231 NA
ATOM     25  N   UNL     1       8.700   3.409  24.040  0.00  0.00    -0.216 NA
ATOM     26  C   UNL     1       9.140   6.903  24.018  0.00  0.00    +0.203 A 
BRANCH  21  27
ATOM     27  N   UNL     1      12.691   4.530  23.221  0.00  0.00    -0.341 N 
ATOM     28  H   UNL     1      13.335   4.076  23.855  0.00  0.00    +0.144 HD
ATOM     29  H   UNL     1      12.898   4.472  22.229  0.00  0.00    +0.144 HD
ENDBRANCH  21  27
ENDBRANCH  16  18
BRANCH  15  30
ATOM     30  O   UNL     1       5.872   5.435  22.041  0.00  0.00    -0.385 OA
ATOM     31  H   UNL     1       5.841   4.711  21.374  0.00  0.00    +0.210 HD
ENDBRANCH  15  30
BRANCH  14  32
ATOM     32  O   UNL     1       3.731   4.936  23.521  0.00  0.00    -0.278 OA
BRANCH  32  33
ATOM     33  P   UNL     1       2.649   3.693  22.993  0.00  0.00    +0.473 P 
ATOM     34  O   UNL     1       1.681   2.581  22.522  0.00  0.00    -0.228 OA
BRANCH  33  35
ATOM     35  O   UNL     1       3.786   2.605  23.443  0.00  0.00    -0.303 OA
ATOM     36  H   UNL     1       4.576   3.140  23.663  0.00  0.00    +0.222 HD
ENDBRANCH  33  35
BRANCH  33  37
ATOM     37  O   UNL     1       3.341   3.947  21.528  0.00  0.00    -0.303 OA
ATOM     38  H   UNL     1       3.423   3.071  21.105  0.00  0.00    +0.222 HD
ENDBRANCH  33  37
ENDBRANCH  32  33
ENDBRANCH  14  32
ENDBRANCH  12  13
ENDBRANCH  11  12
ENDBRANCH   7  11
ENDBRANCH   6   7
ENDBRANCH   2   6
ENDBRANCH   1   2
BRANCH   1  39
ATOM     39  C   UNL     1       7.209   1.287  26.604  0.00  0.00    +0.181 C 
BRANCH  39  40
ATOM     40  C   UNL     1       6.606   0.143  25.707  0.00  0.00    +0.024 C 
ATOM     41  C   UNL     1       6.576   0.568  24.224  0.00  0.00    +0.016 C 
ATOM     42  C   UNL     1       7.502  -1.117  25.784  0.00  0.00    +0.016 C 
BRANCH  40  43
ATOM     43  C   UNL     1       5.154  -0.122  26.225  0.00  0.00    +0.208 C 
BRANCH  43  46
ATOM     44  N   UNL     1       4.801  -2.279  27.480  0.00  0.00    -0.313 N 
ATOM     45  H   UNL     1       4.786  -1.728  28.325  0.00  0.00    +0.149 HD
ATOM     46  C   UNL     1       4.738  -1.613  26.276  0.00  0.00    +0.242 C 
ATOM     47  O   UNL     1       4.349  -2.159  25.238  0.00  0.00    -0.273 OA
BRANCH  44  48
ATOM     48  C   UNL     1       4.334  -3.668  27.624  0.00  0.00    +0.113 C 
BRANCH  48  49
ATOM     49  C   UNL     1       2.860  -3.847  28.003  0.00  0.00    +0.114 C 
BRANCH  49  52
ATOM     50  N   UNL     1       1.875  -3.826  25.800  0.00  0.00    -0.314 N 
ATOM     51  H   UNL     1       2.181  -2.859  25.785  0.00  0.00    +0.149 HD
ATOM     52  C   UNL     1       2.081  -4.584  26.937  0.00  0.00    +0.215 C 
ATOM     53  O   UNL     1       1.683  -5.731  27.064  0.00  0.00    -0.276 OA
BRANCH  50  54
ATOM     54  C   UNL     1       1.171  -4.355  24.646  0.00  0.00    +0.115 C 
BRANCH  54  55
ATOM     55  C   UNL     1       2.100  -4.985  23.606  0.00  0.00    +0.096 C 
BRANCH  55  56
ATOM     56  S   UNL     1       1.672  -6.747  23.472  0.00  0.00    -0.082 S 
BRANCH  56  57
ATOM     57  C   UNL     1       2.996  -7.477  24.355  0.00  0.00    +0.213 C 
ATOM     58  O   UNL     1       2.878  -8.475  25.048  0.00  0.00    -0.280 OA
BRANCH  57  60
ATOM     59  C   UNL     1       4.986  -6.271  25.168  0.00  0.00    +0.012 C 
ATOM     60  C   UNL     1       4.273  -6.749  24.137  0.00  0.00    +0.058 C 
BRANCH  59  65
ATOM     61  C   UNL     1       7.759  -4.259  23.580  0.00  0.00    +0.166 A 
ATOM     62  C   UNL     1       8.719  -4.275  24.593  0.00  0.00    +0.201 A 
ATOM     63  C   UNL     1       8.465  -4.916  25.803  0.00  0.00    +0.163 A 
ATOM     64  C   UNL     1       7.253  -5.564  26.024  0.00  0.00    +0.057 A 
ATOM     65  C   UNL     1       6.273  -5.566  25.019  0.00  0.00    -0.018 A 
ATOM     66  C   UNL     1       6.543  -4.919  23.798  0.00  0.00    +0.057 A 
BRANCH  61  68
ATOM     67  C   UNL     1       7.601  -2.316  22.231  0.00  0.00    +0.277 C 
ATOM     68  O   UNL     1       8.100  -3.635  22.410  0.00  0.00    -0.491 OA
ENDBRANCH  61  68
BRANCH  63  69
ATOM     69  O   UNL     1       9.451  -4.891  26.754  0.00  0.00    -0.503 OA
ATOM     70  H   UNL     1       9.217  -5.519  27.459  0.00  0.00    +0.292 HD
ENDBRANCH  63  69
BRANCH  62  71
ATOM     71  O   UNL     1       9.930  -3.656  24.419  0.00  0.00    -0.501 OA
ATOM     72  H   UNL     1       9.893  -3.279  23.520  0.00  0.00    +0.292 HD
ENDBRANCH  62  71
ENDBRANCH  59  65
ENDBRANCH  57  60
ENDBRANCH  56  57
ENDBRANCH  55  56
ENDBRANCH  54  55
ENDBRANCH  50  54
ENDBRANCH  49  52
ENDBRANCH  48  49
ENDBRANCH  44  48
ENDBRANCH  43  46
BRANCH  43  73
ATOM     73  O   UNL     1       4.228   0.797  25.656  0.00  0.00    -0.382 OA
ATOM     74  H   UNL     1       3.930   0.459  24.799  0.00  0.00    +0.210 HD
ENDBRANCH  43  73
ENDBRANCH  40  43
ENDBRANCH  39  40
ENDBRANCH   1  39
TORSDOF 32
ENDMDL
MODEL 2
REMARK VINA RESULT:      -6.0      3.672     10.175
REMARK  Name = 
REMARK  35 active torsions:
REMARK  status: ('A' for Active; 'I' for Inactive)
REMARK    1  A    between atoms: C_1  and  O_2
REMARK    2  A    between atoms: O_2  and  C_3
REMARK    3  A    between atoms: C_5  and  C_6
REMARK    4  A    between atoms: C_7  and  C_8
REMARK    5  A    between atoms: C_8  and  S_10
REMARK    6  A    between atoms: S_10  and  C_11
REMARK    7  A    between atoms: C_11  and  C_12
REMARK    8  A    between atoms: C_12  and  N_13
REMARK    9  A    between atoms: C_14  and  C_16
REMARK   10  A    between atoms: C_16  and  C_17
REMARK   11  A    between atoms: C_17  and  N_18
REMARK   12  A    between atoms: C_19  and  C_21
REMARK   13  A    between atoms: C_21  and  O_23
REMARK   14  A    between atoms: C_21  and  C_24
REMARK   15  A    between atoms: C_24  and  C_25
REMARK   16  A    between atoms: C_24  and  C_26
REMARK   17  A    between atoms: C_24  and  C_27
REMARK   18  A    between atoms: C_27  and  O_28
REMARK   19  A    between atoms: O_28  and  P_29
REMARK   20  A    between atoms: P_29  and  O_31
REMARK   21  A    between atoms: P_29  and  O_32
REMARK   22  A    between atoms: O_32  and  P_33
REMARK   23  A    between atoms: P_33  and  O_34
REMARK   24  A    between atoms: P_33  and  O_36
REMARK   25  A    between atoms: O_36  and  C_37
REMARK   26  A    between atoms: C_37  and  C_38
REMARK   27  A    between atoms: C_41  and  N_53
REMARK   28  A    between atoms: C_43  and  O_45
REMARK   29  A    between atoms: C_46  and  O_48
REMARK   30  A    between atoms: O_48  and  P_49
REMARK   31  A    between atoms: P_49  and  O_50
REMARK   32  A    between atoms: P_49  and  O_51
REMARK   33  A    between atoms: C_57  and  N_58
REMARK   34  A    between atoms: C_64  and  O_65
REMARK   35  A    between atoms: C_66  and  O_67
REMARK                            x       y       z     vdW  Elec       q    Type
REMARK                         _______ _______ _______ _____ _____    ______ ____
ROOT
ATOM      1  O   UNL     1       7.933  -3.476  24.935  0.00  0.00    -0.286 OA
ENDROOT
BRANCH   1   2
ATOM      2  P   UNL     1       8.320  -5.024  24.798  0.00  0.00    +0.483 P 
ATOM      3  O   UNL     1       9.645  -5.352  25.401  0.00  0.00    -0.227 OA
BRANCH   2   4
ATOM      4  O   UNL     1       7.132  -5.741  25.597  0.00  0.00    -0.302 OA
ATOM      5  H   UNL     1       7.468  -6.578  25.974  0.00  0.00    +0.222 HD
ENDBRANCH   2   4
BRANCH   2   6
ATOM      6  O   UNL     1       8.108  -5.465  23.284  0.00  0.00    -0.186 OA
BRANCH   6   7
ATOM      7  P   UNL     1       6.941  -4.881  22.374  0.00  0.00    +0.483 P 
ATOM      8  O   UNL     1       7.147  -3.533  21.766  0.00  0.00    -0.227 OA
BRANCH   7   9
ATOM      9  O   UNL     1       6.673  -5.995  21.257  0.00  0.00    -0.302 OA
ATOM     10  H   UNL     1       6.192  -5.638  20.488  0.00  0.00    +0.222 HD
ENDBRANCH   7   9
BRANCH   7  11
ATOM     11  O   UNL     1       5.620  -5.040  23.254  0.00  0.00    -0.284 OA
BRANCH  11  12
ATOM     12  C   UNL     1       4.647  -4.010  23.304  0.00  0.00    +0.206 C 
BRANCH  12  13
ATOM     13  C   UNL     1       4.241  -3.924  24.770  0.00  0.00    +0.179 C 
ATOM     14  C   UNL     1       3.019  -4.748  25.125  0.00  0.00    +0.194 C 
ATOM     15  C   UNL     1       2.366  -3.984  26.278  0.00  0.00    +0.196 C 
ATOM     16  C   UNL     1       3.350  -2.841  26.534  0.00  0.00    +0.253 C 
ATOM     17  O   UNL     1       3.954  -2.593  25.243  0.00  0.00    -0.346 OA
BRANCH  16  18
ATOM     18  N   UNL     1       2.717  -1.655  27.067  0.00  0.00    -0.286 N 
ATOM     19  C   UNL     1       3.398  -0.602  27.630  0.00  0.00    +0.167 A 
ATOM     20  C   UNL     1       2.426   0.347  27.897  0.00  0.00    +0.147 A 
ATOM     21  C   UNL     1       2.874   1.560  28.451  0.00  0.00    +0.147 A 
ATOM     22  N   UNL     1       4.196   1.710  28.693  0.00  0.00    -0.219 NA
ATOM     23  C   UNL     1       5.027   0.686  28.407  0.00  0.00    +0.225 A 
ATOM     24  N   UNL     1       1.180  -0.124  27.544  0.00  0.00    -0.231 NA
ATOM     25  N   UNL     1       4.722  -0.514  27.861  0.00  0.00    -0.216 NA
ATOM     26  C   UNL     1       1.391  -1.335  27.066  0.00  0.00    +0.203 A 
BRANCH  21  27
ATOM     27  N   UNL     1       2.032   2.626  28.729  0.00  0.00    -0.341 N 
ATOM     28  H   UNL     1       2.518   3.363  29.223  0.00  0.00    +0.144 HD
ATOM     29  H   UNL     1       1.463   2.899  27.934  0.00  0.00    +0.144 HD
ENDBRANCH  21  27
ENDBRANCH  16  18
BRANCH  15  30
ATOM     30  O   UNL     1       2.133  -4.814  27.413  0.00  0.00    -0.385 OA
ATOM     31  H   UNL     1       3.002  -5.178  27.698  0.00  0.00    +0.210 HD
ENDBRANCH  15  30
BRANCH  14  32
ATOM     32  O   UNL     1       3.501  -6.024  25.493  0.00  0.00    -0.278 OA
BRANCH  32  33
ATOM     33  P   UNL     1       2.844  -7.299  24.524  0.00  0.00    +0.473 P 
ATOM     34  O   UNL     1       2.257  -8.440  23.658  0.00  0.00    -0.228 OA
BRANCH  33  35
ATOM     35  O   UNL     1       3.002  -8.279  25.826  0.00  0.00    -0.303 OA
ATOM     36  H   UNL     1       3.137  -7.674  26.584  0.00  0.00    +0.222 HD
ENDBRANCH  33  35
BRANCH  33  37
ATOM     37  O   UNL     1       4.401  -7.518  24.058  0.00  0.00    -0.303 OA
ATOM     38  H   UNL     1       4.906  -6.760  24.410  0.00  0.00    +0.222 HD
ENDBRANCH  33  37
ENDBRANCH  32  33
ENDBRANCH  14  32
ENDBRANCH  12  13
ENDBRANCH  11  12
ENDBRANCH   7  11
ENDBRANCH   6   7
ENDBRANCH   2   6
ENDBRANCH   1   2
BRANCH   1  39
ATOM     39  C   UNL     1       8.853  -2.480  25.346  0.00  0.00    +0.181 C 
BRANCH  39  40
ATOM     40  C   UNL     1       8.616  -1.115  24.600  0.00  0.00    +0.024 C 
ATOM     41  C   UNL     1       9.440   0.016  25.252  0.00  0.00    +0.016 C 
ATOM     42  C   UNL     1       9.101  -1.221  23.134  0.00  0.00    +0.016 C 
BRANCH  40  43
ATOM     43  C   UNL     1       7.088  -0.800  24.704  0.00  0.00    +0.208 C 
BRANCH  43  46
ATOM     44  N   UNL     1       6.488   1.001  23.046  0.00  0.00    -0.313 N 
ATOM     45  H   UNL     1       6.270   0.262  22.396  0.00  0.00    +0.149 HD
ATOM     46  C   UNL     1       6.694   0.658  24.364  0.00  0.00    +0.242 C 
ATOM     47  O   UNL     1       6.563   1.471  25.287  0.00  0.00    -0.273 OA
BRANCH  44  48
ATOM     48  C   UNL     1       6.022   2.342  22.657  0.00  0.00    +0.113 C 
BRANCH  48  49
ATOM     49  C   UNL     1       7.040   3.223  21.923  0.00  0.00    +0.114 C 
BRANCH  49  52
ATOM     50  N   UNL     1       9.143   3.596  23.048  0.00  0.00    -0.314 N 
ATOM     51  H   UNL     1       8.689   4.433  23.397  0.00  0.00    +0.149 HD
ATOM     52  C   UNL     1       8.463   2.776  22.168  0.00  0.00    +0.215 C 
ATOM     53  O   UNL     1       8.959   1.788  21.648  0.00  0.00    -0.276 OA
BRANCH  50  54
ATOM     54  C   UNL     1      10.515   3.329  23.439  0.00  0.00    +0.115 C 
BRANCH  54  55
ATOM     55  C   UNL     1      11.332   4.598  23.687  0.00  0.00    +0.096 C 
BRANCH  55  56
ATOM     56  S   UNL     1      10.203   6.018  23.578  0.00  0.00    -0.082 S 
BRANCH  56  57
ATOM     57  C   UNL     1       9.973   6.390  25.273  0.00  0.00    +0.213 C 
ATOM     58  O   UNL     1      10.801   6.969  25.957  0.00  0.00    -0.280 OA
BRANCH  57  60
ATOM     59  C   UNL     1       7.548   6.043  24.999  0.00  0.00    +0.012 C 
ATOM     60  C   UNL     1       8.646   5.935  25.763  0.00  0.00    +0.058 C 
BRANCH  59  65
ATOM     61  C   UNL     1       3.926   5.002  24.760  0.00  0.00    +0.166 A 
ATOM     62  C   UNL     1       3.611   4.808  26.105  0.00  0.00    +0.201 A 
ATOM     63  C   UNL     1       4.574   4.989  27.094  0.00  0.00    +0.163 A 
ATOM     64  C   UNL     1       5.869   5.379  26.763  0.00  0.00    +0.057 A 
ATOM     65  C   UNL     1       6.210   5.585  25.417  0.00  0.00    -0.018 A 
ATOM     66  C   UNL     1       5.226   5.403  24.427  0.00  0.00    +0.057 A 
BRANCH  61  68
ATOM     67  C   UNL     1       2.707   5.901  22.936  0.00  0.00    +0.277 C 
ATOM     68  O   UNL     1       2.913   4.834  23.853  0.00  0.00    -0.491 OA
ENDBRANCH  61  68
BRANCH  63  69
ATOM     69  O   UNL     1       4.196   4.779  28.394  0.00  0.00    -0.503 OA
ATOM     70  H   UNL     1       4.886   4.253  28.836  0.00  0.00    +0.292 HD
ENDBRANCH  63  69
BRANCH  62  71
ATOM     71  O   UNL     1       2.347   4.430  26.480  0.00  0.00    -0.501 OA
ATOM     72  H   UNL     1       2.106   5.043  27.201  0.00  0.00    +0.292 HD
ENDBRANCH  62  71
ENDBRANCH  59  65
ENDBRANCH  57  60
ENDBRANCH  56  57
ENDBRANCH  55  56
ENDBRANCH  54  55
ENDBRANCH  50  54
ENDBRANCH  49  52
ENDBRANCH  48  49
ENDBRANCH  44  48
ENDBRANCH  43  46
BRANCH  43  73
ATOM     73  O   UNL     1       6.521  -1.375  25.877  0.00  0.00    -0.382 OA
ATOM     74  H   UNL     1       7.019  -1.074  26.652  0.00  0.00    +0.210 HD
ENDBRANCH  43  73
ENDBRANCH  40  43
ENDBRANCH  39  40
ENDBRANCH   1  39
TORSDOF 32
ENDMDL
MODEL 3
REMARK VINA RESULT:      -5.8      2.500      8.711
REMARK  Name = 
REMARK  35 active torsions:
REMARK  status: ('A' for Active; 'I' for Inactive)
REMARK    1  A    between atoms: C_1  and  O_2
REMARK    2  A    between atoms: O_2  and  C_3
REMARK    3  A    between atoms: C_5  and  C_6
REMARK    4  A    between atoms: C_7  and  C_8
REMARK    5  A    between atoms: C_8  and  S_10
REMARK    6  A    between atoms: S_10  and  C_11
REMARK    7  A    between atoms: C_11  and  C_12
REMARK    8  A    between atoms: C_12  and  N_13
REMARK    9  A    between atoms: C_14  and  C_16
REMARK   10  A    between atoms: C_16  and  C_17
REMARK   11  A    between atoms: C_17  and  N_18
REMARK   12  A    between atoms: C_19  and  C_21
REMARK   13  A    between atoms: C_21  and  O_23
REMARK   14  A    between atoms: C_21  and  C_24
REMARK   15  A    between atoms: C_24  and  C_25
REMARK   16  A    between atoms: C_24  and  C_26
REMARK   17  A    between atoms: C_24  and  C_27
REMARK   18  A    between atoms: C_27  and  O_28
REMARK   19  A    between atoms: O_28  and  P_29
REMARK   20  A    between atoms: P_29  and  O_31
REMARK   21  A    between atoms: P_29  and  O_32
REMARK   22  A    between atoms: O_32  and  P_33
REMARK   23  A    between atoms: P_33  and  O_34
REMARK   24  A    between atoms: P_33  and  O_36
REMARK   25  A    between atoms: O_36  and  C_37
REMARK   26  A    between atoms: C_37  and  C_38
REMARK   27  A    between atoms: C_41  and  N_53
REMARK   28  A    between atoms: C_43  and  O_45
REMARK   29  A    between atoms: C_46  and  O_48
REMARK   30  A    between atoms: O_48  and  P_49
REMARK   31  A    between atoms: P_49  and  O_50
REMARK   32  A    between atoms: P_49  and  O_51
REMARK   33  A    between atoms: C_57  and  N_58
REMARK   34  A    between atoms: C_64  and  O_65
REMARK   35  A    between atoms: C_66  and  O_67
REMARK                            x       y       z     vdW  Elec       q    Type
REMARK                         _______ _______ _______ _____ _____    ______ ____
ROOT
ATOM      1  O   UNL     1       3.954   4.541  22.442  0.00  0.00    -0.286 OA
ENDROOT
BRANCH   1   2
ATOM      2  P   UNL     1       3.060   3.409  23.139  0.00  0.00    +0.483 P 
ATOM      3  O   UNL     1       1.927   2.949  22.282  0.00  0.00    -0.227 OA
BRANCH   2   4
ATOM      4  O   UNL     1       4.121   2.233  23.368  0.00  0.00    -0.302 OA
ATOM      5  H   UNL     1       4.948   2.460  22.900  0.00  0.00    +0.222 HD
ENDBRANCH   2   4
BRANCH   2   6
ATOM      6  O   UNL     1       2.680   3.898  24.605  0.00  0.00    -0.186 OA
BRANCH   6   7
ATOM      7  P   UNL     1       3.429   3.373  25.906  0.00  0.00    +0.483 P 
ATOM      8  O   UNL     1       4.911   3.542  25.966  0.00  0.00    -0.227 OA
BRANCH   7   9
ATOM      9  O   UNL     1       2.705   4.098  27.136  0.00  0.00    -0.302 OA
ATOM     10  H   UNL     1       1.737   3.993  27.108  0.00  0.00    +0.222 HD
ENDBRANCH   7   9
BRANCH   7  11
ATOM     11  O   UNL     1       2.902   1.881  26.107  0.00  0.00    -0.284 OA
BRANCH  11  12
ATOM     12  C   UNL     1       1.785   1.606  26.934  0.00  0.00    +0.206 C 
BRANCH  12  13
ATOM     13  C   UNL     1       2.034   0.204  27.477  0.00  0.00    +0.179 C 
ATOM     14  C   UNL     1       3.497  -0.183  27.547  0.00  0.00    +0.194 C 
ATOM     15  C   UNL     1       3.499  -1.701  27.352  0.00  0.00    +0.196 C 
ATOM     16  C   UNL     1       2.009  -2.042  27.292  0.00  0.00    +0.253 C 
ATOM     17  O   UNL     1       1.393  -0.855  26.739  0.00  0.00    -0.346 OA
BRANCH  16  18
ATOM     18  N   UNL     1       1.727  -3.215  26.495  0.00  0.00    -0.286 N 
ATOM     19  C   UNL     1       1.846  -4.506  26.950  0.00  0.00    +0.167 A 
ATOM     20  C   UNL     1       1.375  -5.293  25.913  0.00  0.00    +0.147 A 
ATOM     21  C   UNL     1       1.353  -6.680  26.143  0.00  0.00    +0.147 A 
ATOM     22  N   UNL     1       1.796  -7.145  27.333  0.00  0.00    -0.219 NA
ATOM     23  C   UNL     1       2.255  -6.260  28.244  0.00  0.00    +0.225 A 
ATOM     24  N   UNL     1       1.014  -4.511  24.837  0.00  0.00    -0.231 NA
ATOM     25  N   UNL     1       2.311  -4.911  28.148  0.00  0.00    -0.216 NA
ATOM     26  C   UNL     1       1.255  -3.270  25.216  0.00  0.00    +0.203 A 
BRANCH  21  27
ATOM     27  N   UNL     1       0.866  -7.596  25.223  0.00  0.00    -0.341 N 
ATOM     28  H   UNL     1       0.017  -7.264  24.783  0.00  0.00    +0.144 HD
ATOM     29  H   UNL     1       1.588  -7.968  24.614  0.00  0.00    +0.144 HD
ENDBRANCH  21  27
ENDBRANCH  16  18
BRANCH  15  30
ATOM     30  O   UNL     1       4.207  -2.377  28.388  0.00  0.00    -0.385 OA
ATOM     31  H   UNL     1       3.651  -2.343  29.200  0.00  0.00    +0.210 HD
ENDBRANCH  15  30
BRANCH  14  32
ATOM     32  O   UNL     1       3.949   0.224  28.822  0.00  0.00    -0.278 OA
BRANCH  32  33
ATOM     33  P   UNL     1       5.499   0.993  28.775  0.00  0.00    +0.473 P 
ATOM     34  O   UNL     1       6.886   1.680  28.732  0.00  0.00    -0.228 OA
BRANCH  33  35
ATOM     35  O   UNL     1       4.714   2.428  28.755  0.00  0.00    -0.303 OA
ATOM     36  H   UNL     1       3.922   2.276  28.199  0.00  0.00    +0.222 HD
ENDBRANCH  33  35
BRANCH  33  37
ATOM     37  O   UNL     1       5.362   0.791  27.153  0.00  0.00    -0.303 OA
ATOM     38  H   UNL     1       5.175   1.674  26.779  0.00  0.00    +0.222 HD
ENDBRANCH  33  37
ENDBRANCH  32  33
ENDBRANCH  14  32
ENDBRANCH  12  13
ENDBRANCH  11  12
ENDBRANCH   7  11
ENDBRANCH   6   7
ENDBRANCH   2   6
ENDBRANCH   1   2
BRANCH   1  39
ATOM     39  C   UNL     1       4.368   5.722  23.106  0.00  0.00    +0.181 C 
BRANCH  39  40
ATOM     40  C   UNL     1       5.932   5.895  23.082  0.00  0.00    +0.024 C 
ATOM     41  C   UNL     1       6.366   6.782  21.895  0.00  0.00    +0.016 C 
ATOM     42  C   UNL     1       6.404   6.619  24.365  0.00  0.00    +0.016 C 
BRANCH  40  43
ATOM     43  C   UNL     1       6.545   4.463  22.941  0.00  0.00    +0.208 C 
BRANCH  43  46
ATOM     44  N   UNL     1       9.028   4.785  23.226  0.00  0.00    -0.313 N 
ATOM     45  H   UNL     1       8.950   5.568  22.596  0.00  0.00    +0.149 HD
ATOM     46  C   UNL     1       7.865   4.236  23.718  0.00  0.00    +0.242 C 
ATOM     47  O   UNL     1       7.835   3.579  24.765  0.00  0.00    -0.273 OA
BRANCH  44  48
ATOM     48  C   UNL     1      10.302   4.690  23.958  0.00  0.00    +0.113 C 
BRANCH  48  49
ATOM     49  C   UNL     1      11.355   3.750  23.360  0.00  0.00    +0.114 C 
BRANCH  49  52
ATOM     50  N   UNL     1      11.041   1.477  24.110  0.00  0.00    -0.314 N 
ATOM     51  H   UNL     1      11.602   1.771  24.902  0.00  0.00    +0.149 HD
ATOM     52  C   UNL     1      10.799   2.371  23.084  0.00  0.00    +0.215 C 
ATOM     53  O   UNL     1      10.193   2.079  22.065  0.00  0.00    -0.276 OA
BRANCH  50  54
ATOM     54  C   UNL     1      10.568   0.106  24.056  0.00  0.00    +0.115 C 
BRANCH  54  55
ATOM     55  C   UNL     1       9.184  -0.083  24.682  0.00  0.00    +0.096 C 
BRANCH  55  56
ATOM     56  S   UNL     1       8.056  -0.652  23.376  0.00  0.00    -0.082 S 
BRANCH  56  57
ATOM     57  C   UNL     1       6.504  -0.397  24.145  0.00  0.00    +0.213 C 
ATOM     58  O   UNL     1       6.068   0.704  24.442  0.00  0.00    -0.280 OA
BRANCH  57  60
ATOM     59  C   UNL     1       6.428  -2.851  24.357  0.00  0.00    +0.012 C 
ATOM     60  C   UNL     1       5.781  -1.676  24.369  0.00  0.00    +0.058 C 
BRANCH  59  65
ATOM     61  C   UNL     1       5.427  -6.040  26.115  0.00  0.00    +0.166 A 
ATOM     62  C   UNL     1       4.657  -6.661  25.132  0.00  0.00    +0.201 A 
ATOM     63  C   UNL     1       4.437  -6.040  23.903  0.00  0.00    +0.163 A 
ATOM     64  C   UNL     1       4.991  -4.793  23.627  0.00  0.00    +0.057 A 
ATOM     65  C   UNL     1       5.773  -4.151  24.599  0.00  0.00    -0.018 A 
ATOM     66  C   UNL     1       5.992  -4.789  25.835  0.00  0.00    +0.057 A 
BRANCH  61  68
ATOM     67  C   UNL     1       6.253  -6.019  28.337  0.00  0.00    +0.277 C 
ATOM     68  O   UNL     1       5.620  -6.731  27.281  0.00  0.00    -0.491 OA
ENDBRANCH  61  68
BRANCH  63  69
ATOM     69  O   UNL     1       3.669  -6.706  22.985  0.00  0.00    -0.503 OA
ATOM     70  H   UNL     1       2.997  -7.225  23.461  0.00  0.00    +0.292 HD
ENDBRANCH  63  69
BRANCH  62  71
ATOM     71  O   UNL     1       4.096  -7.892  25.355  0.00  0.00    -0.501 OA
ATOM     72  H   UNL     1       3.637  -7.807  26.212  0.00  0.00    +0.292 HD
ENDBRANCH  62  71
ENDBRANCH  59  65
ENDBRANCH  57  60
ENDBRANCH  56  57
ENDBRANCH  55  56
ENDBRANCH  54  55
ENDBRANCH  50  54
ENDBRANCH  49  52
ENDBRANCH  48  49
ENDBRANCH  44  48
ENDBRANCH  43  46
BRANCH  43  73
ATOM     73  O   UNL     1       6.492   4.009  21.594  0.00  0.00    -0.382 OA
ATOM     74  H   UNL     1       5.813   3.322  21.515  0.00  0.00    +0.210 HD
ENDBRANCH  43  73
ENDBRANCH  40  43
ENDBRANCH  39  40
ENDBRANCH   1  39
TORSDOF 32
ENDMDL
MODEL 4
REMARK VINA RESULT:      -5.8      3.709      5.734
REMARK  Name = 
REMARK  35 active torsions:
REMARK  status: ('A' for Active; 'I' for Inactive)
REMARK    1  A    between atoms: C_1  and  O_2
REMARK    2  A    between atoms: O_2  and  C_3
REMARK    3  A    between atoms: C_5  and  C_6
REMARK    4  A    between atoms: C_7  and  C_8
REMARK    5  A    between atoms: C_8  and  S_10
REMARK    6  A    between atoms: S_10  and  C_11
REMARK    7  A    between atoms: C_11  and  C_12
REMARK    8  A    between atoms: C_12  and  N_13
REMARK    9  A    between atoms: C_14  and  C_16
REMARK   10  A    between atoms: C_16  and  C_17
REMARK   11  A    between atoms: C_17  and  N_18
REMARK   12  A    between atoms: C_19  and  C_21
REMARK   13  A    between atoms: C_21  and  O_23
REMARK   14  A    between atoms: C_21  and  C_24
REMARK   15  A    between atoms: C_24  and  C_25
REMARK   16  A    between atoms: C_24  and  C_26
REMARK   17  A    between atoms: C_24  and  C_27
REMARK   18  A    between atoms: C_27  and  O_28
REMARK   19  A    between atoms: O_28  and  P_29
REMARK   20  A    between atoms: P_29  and  O_31
REMARK   21  A    between atoms: P_29  and  O_32
REMARK   22  A    between atoms: O_32  and  P_33
REMARK   23  A    between atoms: P_33  and  O_34
REMARK   24  A    between atoms: P_33  and  O_36
REMARK   25  A    between atoms: O_36  and  C_37
REMARK   26  A    between atoms: C_37  and  C_38
REMARK   27  A    between atoms: C_41  and  N_53
REMARK   28  A    between atoms: C_43  and  O_45
REMARK   29  A    between atoms: C_46  and  O_48
REMARK   30  A    between atoms: O_48  and  P_49
REMARK   31  A    between atoms: P_49  and  O_50
REMARK   32  A    between atoms: P_49  and  O_51
REMARK   33  A    between atoms: C_57  and  N_58
REMARK   34  A    between atoms: C_64  and  O_65
REMARK   35  A    between atoms: C_66  and  O_67
REMARK                            x       y       z     vdW  Elec       q    Type
REMARK                         _______ _______ _______ _____ _____    ______ ____
ROOT
ATOM      1  O   UNL     1       7.591   2.631  21.757  0.00  0.00    -0.286 OA
ENDROOT
BRANCH   1   2
ATOM      2  P   UNL     1       6.901   3.928  22.395  0.00  0.00    +0.483 P 
ATOM      3  O   UNL     1       7.465   5.208  21.870  0.00  0.00    -0.227 OA
BRANCH   2   4
ATOM      4  O   UNL     1       5.373   3.750  21.953  0.00  0.00    -0.302 OA
ATOM      5  H   UNL     1       4.868   3.388  22.708  0.00  0.00    +0.222 HD
ENDBRANCH   2   4
BRANCH   2   6
ATOM      6  O   UNL     1       6.884   3.764  23.978  0.00  0.00    -0.186 OA
BRANCH   6   7
ATOM      7  P   UNL     1       6.358   4.906  24.953  0.00  0.00    +0.483 P 
ATOM      8  O   UNL     1       6.164   4.552  26.390  0.00  0.00    -0.227 OA
BRANCH   7   9
ATOM      9  O   UNL     1       7.385   6.121  24.780  0.00  0.00    -0.302 OA
ATOM     10  H   UNL     1       8.171   6.023  25.347  0.00  0.00    +0.222 HD
ENDBRANCH   7   9
BRANCH   7  11
ATOM     11  O   UNL     1       5.077   5.511  24.219  0.00  0.00    -0.284 OA
BRANCH  11  12
ATOM     12  C   UNL     1       3.944   5.934  24.957  0.00  0.00    +0.206 C 
BRANCH  12  13
ATOM     13  C   UNL     1       2.759   5.249  24.285  0.00  0.00    +0.179 C 
ATOM     14  C   UNL     1       2.646   3.768  24.587  0.00  0.00    +0.194 C 
ATOM     15  C   UNL     1       1.991   3.174  23.339  0.00  0.00    +0.196 C 
ATOM     16  C   UNL     1       1.701   4.407  22.482  0.00  0.00    +0.253 C 
ATOM     17  O   UNL     1       2.738   5.348  22.846  0.00  0.00    -0.346 OA
BRANCH  16  18
ATOM     18  N   UNL     1       1.705   4.127  21.063  0.00  0.00    -0.286 N 
ATOM     19  C   UNL     1       1.688   5.093  20.085  0.00  0.00    +0.167 A 
ATOM     20  C   UNL     1       1.812   4.395  18.895  0.00  0.00    +0.147 A 
ATOM     21  C   UNL     1       1.861   5.168  17.721  0.00  0.00    +0.147 A 
ATOM     22  N   UNL     1       1.773   6.513  17.829  0.00  0.00    -0.219 NA
ATOM     23  C   UNL     1       1.626   7.056  19.056  0.00  0.00    +0.225 A 
ATOM     24  N   UNL     1       1.865   3.039  19.133  0.00  0.00    -0.231 NA
ATOM     25  N   UNL     1       1.582   6.425  20.252  0.00  0.00    -0.216 NA
ATOM     26  C   UNL     1       1.780   2.914  20.444  0.00  0.00    +0.203 A 
BRANCH  21  27
ATOM     27  N   UNL     1       2.033   4.622  16.458  0.00  0.00    -0.341 N 
ATOM     28  H   UNL     1       2.330   3.656  16.509  0.00  0.00    +0.144 HD
ATOM     29  H   UNL     1       1.268   4.839  15.826  0.00  0.00    +0.144 HD
ENDBRANCH  21  27
ENDBRANCH  16  18
BRANCH  15  30
ATOM     30  O   UNL     1       0.834   2.401  23.651  0.00  0.00    -0.385 OA
ATOM     31  H   UNL     1       0.635   2.537  24.606  0.00  0.00    +0.210 HD
ENDBRANCH  15  30
BRANCH  14  32
ATOM     32  O   UNL     1       1.848   3.666  25.748  0.00  0.00    -0.278 OA
BRANCH  32  33
ATOM     33  P   UNL     1       2.580   2.705  26.988  0.00  0.00    +0.473 P 
ATOM     34  O   UNL     1       3.234   1.846  28.097  0.00  0.00    -0.228 OA
BRANCH  33  35
ATOM     35  O   UNL     1       3.877   2.542  26.004  0.00  0.00    -0.303 OA
ATOM     36  H   UNL     1       3.712   3.161  25.263  0.00  0.00    +0.222 HD
ENDBRANCH  33  35
BRANCH  33  37
ATOM     37  O   UNL     1       1.769   1.471  26.275  0.00  0.00    -0.303 OA
ATOM     38  H   UNL     1       1.836   0.708  26.881  0.00  0.00    +0.222 HD
ENDBRANCH  33  37
ENDBRANCH  32  33
ENDBRANCH  14  32
ENDBRANCH  12  13
ENDBRANCH  11  12
ENDBRANCH   7  11
ENDBRANCH   6   7
ENDBRANCH   2   6
ENDBRANCH   1   2
BRANCH   1  39
ATOM     39  C   UNL     1       7.572   1.357  22.378  0.00  0.00    +0.181 C 
BRANCH  39  40
ATOM     40  C   UNL     1       9.013   0.736  22.495  0.00  0.00    +0.024 C 
ATOM     41  C   UNL     1       9.386  -0.029  21.207  0.00  0.00    +0.016 C 
ATOM     42  C   UNL     1      10.063   1.862  22.655  0.00  0.00    +0.016 C 
BRANCH  40  43
ATOM     43  C   UNL     1       8.989  -0.240  23.717  0.00  0.00    +0.208 C 
BRANCH  43  46
ATOM     44  N   UNL     1       7.209  -1.894  23.046  0.00  0.00    -0.313 N 
ATOM     45  H   UNL     1       6.684  -1.110  22.689  0.00  0.00    +0.149 HD
ATOM     46  C   UNL     1       8.524  -1.681  23.395  0.00  0.00    +0.242 C 
ATOM     47  O   UNL     1       9.351  -2.599  23.449  0.00  0.00    -0.273 OA
BRANCH  44  48
ATOM     48  C   UNL     1       6.719  -3.220  22.637  0.00  0.00    +0.113 C 
BRANCH  48  49
ATOM     49  C   UNL     1       5.208  -3.449  22.765  0.00  0.00    +0.114 C 
BRANCH  49  52
ATOM     50  N   UNL     1       3.508  -5.136  23.064  0.00  0.00    -0.314 N 
ATOM     51  H   UNL     1       2.884  -4.343  23.159  0.00  0.00    +0.149 HD
ATOM     52  C   UNL     1       4.861  -4.915  22.890  0.00  0.00    +0.215 C 
ATOM     53  O   UNL     1       5.689  -5.811  22.835  0.00  0.00    -0.276 OA
BRANCH  50  54
ATOM     54  C   UNL     1       2.961  -6.476  23.178  0.00  0.00    +0.115 C 
BRANCH  54  55
ATOM     55  C   UNL     1       1.803  -6.574  24.175  0.00  0.00    +0.096 C 
BRANCH  55  56
ATOM     56  S   UNL     1       2.249  -7.815  25.425  0.00  0.00    -0.082 S 
BRANCH  56  57
ATOM     57  C   UNL     1       2.207  -6.847  26.884  0.00  0.00    +0.213 C 
ATOM     58  O   UNL     1       1.409  -7.025  27.790  0.00  0.00    -0.280 OA
BRANCH  57  60
ATOM     59  C   UNL     1       4.562  -6.136  26.748  0.00  0.00    +0.012 C 
ATOM     60  C   UNL     1       3.269  -5.808  26.888  0.00  0.00    +0.058 C 
BRANCH  59  65
ATOM     61  C   UNL     1       6.346  -2.834  26.327  0.00  0.00    +0.166 A 
ATOM     62  C   UNL     1       7.672  -3.214  26.538  0.00  0.00    +0.201 A 
ATOM     63  C   UNL     1       7.993  -4.535  26.841  0.00  0.00    +0.163 A 
ATOM     64  C   UNL     1       7.000  -5.507  26.928  0.00  0.00    +0.057 A 
ATOM     65  C   UNL     1       5.659  -5.150  26.716  0.00  0.00    -0.018 A 
ATOM     66  C   UNL     1       5.347  -3.812  26.406  0.00  0.00    +0.057 A 
BRANCH  61  68
ATOM     67  C   UNL     1       4.990  -0.910  26.611  0.00  0.00    +0.277 C 
ATOM     68  O   UNL     1       6.119  -1.523  26.003  0.00  0.00    -0.491 OA
ENDBRANCH  61  68
BRANCH  63  69
ATOM     69  O   UNL     1       9.315  -4.837  27.038  0.00  0.00    -0.503 OA
ATOM     70  H   UNL     1       9.484  -4.876  27.995  0.00  0.00    +0.292 HD
ENDBRANCH  63  69
BRANCH  62  71
ATOM     71  O   UNL     1       8.685  -2.294  26.456  0.00  0.00    -0.501 OA
ATOM     72  H   UNL     1       9.311  -2.667  25.806  0.00  0.00    +0.292 HD
ENDBRANCH  62  71
ENDBRANCH  59  65
ENDBRANCH  57  60
ENDBRANCH  56  57
ENDBRANCH  55  56
ENDBRANCH  54  55
ENDBRANCH  50  54
ENDBRANCH  49  52
ENDBRANCH  48  49
ENDBRANCH  44  48
ENDBRANCH  43  46
BRANCH  43  73
ATOM     73  O   UNL     1       8.430   0.387  24.866  0.00  0.00    -0.382 OA
ATOM     74  H   UNL     1       9.139   0.806  25.377  0.00  0.00    +0.210 HD
ENDBRANCH  43  73
ENDBRANCH  40  43
ENDBRANCH  39  40
ENDBRANCH   1  39
TORSDOF 32
ENDMDL
MODEL 5
REMARK VINA RESULT:      -5.8      3.165      5.161
REMARK  Name = 
REMARK  35 active torsions:
REMARK  status: ('A' for Active; 'I' for Inactive)
REMARK    1  A    between atoms: C_1  and  O_2
REMARK    2  A    between atoms: O_2  and  C_3
REMARK    3  A    between atoms: C_5  and  C_6
REMARK    4  A    between atoms: C_7  and  C_8
REMARK    5  A    between atoms: C_8  and  S_10
REMARK    6  A    between atoms: S_10  and  C_11
REMARK    7  A    between atoms: C_11  and  C_12
REMARK    8  A    between atoms: C_12  and  N_13
REMARK    9  A    between atoms: C_14  and  C_16
REMARK   10  A    between atoms: C_16  and  C_17
REMARK   11  A    between atoms: C_17  and  N_18
REMARK   12  A    between atoms: C_19  and  C_21
REMARK   13  A    between atoms: C_21  and  O_23
REMARK   14  A    between atoms: C_21  and  C_24
REMARK   15  A    between atoms: C_24  and  C_25
REMARK   16  A    between atoms: C_24  and  C_26
REMARK   17  A    between atoms: C_24  and  C_27
REMARK   18  A    between atoms: C_27  and  O_28
REMARK   19  A    between atoms: O_28  and  P_29
REMARK   20  A    between atoms: P_29  and  O_31
REMARK   21  A    between atoms: P_29  and  O_32
REMARK   22  A    between atoms: O_32  and  P_33
REMARK   23  A    between atoms: P_33  and  O_34
REMARK   24  A    between atoms: P_33  and  O_36
REMARK   25  A    between atoms: O_36  and  C_37
REMARK   26  A    between atoms: C_37  and  C_38
REMARK   27  A    between atoms: C_41  and  N_53
REMARK   28  A    between atoms: C_43  and  O_45
REMARK   29  A    between atoms: C_46  and  O_48
REMARK   30  A    between atoms: O_48  and  P_49
REMARK   31  A    between atoms: P_49  and  O_50
REMARK   32  A    between atoms: P_49  and  O_51
REMARK   33  A    between atoms: C_57  and  N_58
REMARK   34  A    between atoms: C_64  and  O_65
REMARK   35  A    between atoms: C_66  and  O_67
REMARK                            x       y       z     vdW  Elec       q    Type
REMARK                         _______ _______ _______ _____ _____    ______ ____
ROOT
ATOM      1  O   UNL     1       4.317   2.257  28.010  0.00  0.00    -0.286 OA
ENDROOT
BRANCH   1   2
ATOM      2  P   UNL     1       5.014   1.603  26.724  0.00  0.00    +0.483 P 
ATOM      3  O   UNL     1       4.037   0.977  25.785  0.00  0.00    -0.227 OA
BRANCH   2   4
ATOM      4  O   UNL     1       5.731   2.865  26.049  0.00  0.00    -0.302 OA
ATOM      5  H   UNL     1       5.633   3.636  26.641  0.00  0.00    +0.222 HD
ENDBRANCH   2   4
BRANCH   2   6
ATOM      6  O   UNL     1       6.211   0.676  27.215  0.00  0.00    -0.186 OA
BRANCH   6   7
ATOM      7  P   UNL     1       6.979  -0.321  26.242  0.00  0.00    +0.483 P 
ATOM      8  O   UNL     1       8.126  -1.091  26.806  0.00  0.00    -0.227 OA
BRANCH   7   9
ATOM      9  O   UNL     1       5.852  -1.293  25.652  0.00  0.00    -0.302 OA
ATOM     10  H   UNL     1       5.007  -1.210  26.129  0.00  0.00    +0.222 HD
ENDBRANCH   7   9
BRANCH   7  11
ATOM     11  O   UNL     1       7.310   0.548  24.945  0.00  0.00    -0.284 OA
BRANCH  11  12
ATOM     12  C   UNL     1       6.781   0.199  23.678  0.00  0.00    +0.206 C 
BRANCH  12  13
ATOM     13  C   UNL     1       6.718   1.510  22.903  0.00  0.00    +0.179 C 
ATOM     14  C   UNL     1       7.789   2.510  23.289  0.00  0.00    +0.194 C 
ATOM     15  C   UNL     1       7.143   3.875  23.041  0.00  0.00    +0.196 C 
ATOM     16  C   UNL     1       5.787   3.508  22.435  0.00  0.00    +0.253 C 
ATOM     17  O   UNL     1       5.470   2.223  23.019  0.00  0.00    -0.346 OA
BRANCH  16  18
ATOM     18  N   UNL     1       4.759   4.489  22.707  0.00  0.00    -0.286 N 
ATOM     19  C   UNL     1       3.456   4.381  22.282  0.00  0.00    +0.167 A 
ATOM     20  C   UNL     1       2.807   5.463  22.851  0.00  0.00    +0.147 A 
ATOM     21  C   UNL     1       1.427   5.565  22.599  0.00  0.00    +0.147 A 
ATOM     22  N   UNL     1       0.840   4.626  21.823  0.00  0.00    -0.219 NA
ATOM     23  C   UNL     1       1.606   3.639  21.311  0.00  0.00    +0.225 A 
ATOM     24  N   UNL     1       3.693   6.235  23.572  0.00  0.00    -0.231 NA
ATOM     25  N   UNL     1       2.930   3.425  21.493  0.00  0.00    -0.216 NA
ATOM     26  C   UNL     1       4.858   5.629  23.449  0.00  0.00    +0.203 A 
BRANCH  21  27
ATOM     27  N   UNL     1       0.627   6.563  23.137  0.00  0.00    -0.341 N 
ATOM     28  H   UNL     1       0.074   7.020  22.423  0.00  0.00    +0.144 HD
ATOM     29  H   UNL     1       0.145   6.271  23.981  0.00  0.00    +0.144 HD
ENDBRANCH  21  27
ENDBRANCH  16  18
BRANCH  15  30
ATOM     30  O   UNL     1       7.944   4.708  22.207  0.00  0.00    -0.385 OA
ATOM     31  H   UNL     1       7.335   5.221  21.627  0.00  0.00    +0.210 HD
ENDBRANCH  15  30
BRANCH  14  32
ATOM     32  O   UNL     1       8.892   2.245  22.448  0.00  0.00    -0.278 OA
BRANCH  32  33
ATOM     33  P   UNL     1      10.329   1.842  23.325  0.00  0.00    +0.473 P 
ATOM     34  O   UNL     1      11.613   1.481  24.110  0.00  0.00    -0.228 OA
BRANCH  33  35
ATOM     35  O   UNL     1       9.532   2.262  24.691  0.00  0.00    -0.303 OA
ATOM     36  H   UNL     1       8.793   2.829  24.390  0.00  0.00    +0.222 HD
ENDBRANCH  33  35
BRANCH  33  37
ATOM     37  O   UNL     1      10.763   3.388  22.994  0.00  0.00    -0.303 OA
ATOM     38  H   UNL     1      10.075   3.749  22.402  0.00  0.00    +0.222 HD
ENDBRANCH  33  37
ENDBRANCH  32  33
ENDBRANCH  14  32
ENDBRANCH  12  13
ENDBRANCH  11  12
ENDBRANCH   7  11
ENDBRANCH   6   7
ENDBRANCH   2   6
ENDBRANCH   1   2
BRANCH   1  39
ATOM     39  C   UNL     1       3.651   1.497  29.002  0.00  0.00    +0.181 C 
BRANCH  39  40
ATOM     40  C   UNL     1       2.086   1.589  28.864  0.00  0.00    +0.024 C 
ATOM     41  C   UNL     1       1.420   1.711  30.251  0.00  0.00    +0.016 C 
ATOM     42  C   UNL     1       1.698   2.864  28.078  0.00  0.00    +0.016 C 
BRANCH  40  43
ATOM     43  C   UNL     1       1.616   0.279  28.150  0.00  0.00    +0.208 C 
BRANCH  43  46
ATOM     44  N   UNL     1       3.359  -1.507  27.790  0.00  0.00    -0.313 N 
ATOM     45  H   UNL     1       3.805  -0.873  27.145  0.00  0.00    +0.149 HD
ATOM     46  C   UNL     1       2.355  -1.009  28.592  0.00  0.00    +0.242 C 
ATOM     47  O   UNL     1       2.031  -1.546  29.657  0.00  0.00    -0.273 OA
BRANCH  44  48
ATOM     48  C   UNL     1       4.165  -2.671  28.190  0.00  0.00    +0.113 C 
BRANCH  48  49
ATOM     49  C   UNL     1       4.057  -3.908  27.291  0.00  0.00    +0.114 C 
BRANCH  49  52
ATOM     50  N   UNL     1       2.107  -4.482  25.989  0.00  0.00    -0.314 N 
ATOM     51  H   UNL     1       1.986  -5.211  26.683  0.00  0.00    +0.149 HD
ATOM     52  C   UNL     1       3.209  -3.651  26.066  0.00  0.00    +0.215 C 
ATOM     53  O   UNL     1       3.465  -2.794  25.235  0.00  0.00    -0.276 OA
BRANCH  50  54
ATOM     54  C   UNL     1       1.148  -4.382  24.904  0.00  0.00    +0.115 C 
BRANCH  54  55
ATOM     55  C   UNL     1       0.691  -5.742  24.372  0.00  0.00    +0.096 C 
BRANCH  55  56
ATOM     56  S   UNL     1       1.781  -6.195  22.991  0.00  0.00    -0.082 S 
BRANCH  56  57
ATOM     57  C   UNL     1       2.927  -7.240  23.802  0.00  0.00    +0.213 C 
ATOM     58  O   UNL     1       2.688  -8.397  24.109  0.00  0.00    -0.280 OA
BRANCH  57  60
ATOM     59  C   UNL     1       4.638  -5.552  23.259  0.00  0.00    +0.012 C 
ATOM     60  C   UNL     1       4.223  -6.555  24.047  0.00  0.00    +0.058 C 
BRANCH  59  65
ATOM     61  C   UNL     1       7.740  -4.252  24.977  0.00  0.00    +0.166 A 
ATOM     62  C   UNL     1       8.248  -3.391  24.003  0.00  0.00    +0.201 A 
ATOM     63  C   UNL     1       7.602  -3.244  22.777  0.00  0.00    +0.163 A 
ATOM     64  C   UNL     1       6.431  -3.945  22.502  0.00  0.00    +0.057 A 
ATOM     65  C   UNL     1       5.899  -4.814  23.466  0.00  0.00    -0.018 A 
ATOM     66  C   UNL     1       6.557  -4.950  24.703  0.00  0.00    +0.057 A 
BRANCH  61  68
ATOM     67  C   UNL     1       7.945  -5.266  27.110  0.00  0.00    +0.277 C 
ATOM     68  O   UNL     1       8.417  -4.314  26.165  0.00  0.00    -0.491 OA
ENDBRANCH  61  68
BRANCH  63  69
ATOM     69  O   UNL     1       8.157  -2.384  21.867  0.00  0.00    -0.503 OA
ATOM     70  H   UNL     1       8.249  -1.509  22.284  0.00  0.00    +0.292 HD
ENDBRANCH  63  69
BRANCH  62  71
ATOM     71  O   UNL     1       9.394  -2.674  24.231  0.00  0.00    -0.501 OA
ATOM     72  H   UNL     1      10.111  -3.223  23.860  0.00  0.00    +0.292 HD
ENDBRANCH  62  71
ENDBRANCH  59  65
ENDBRANCH  57  60
ENDBRANCH  56  57
ENDBRANCH  55  56
ENDBRANCH  54  55
ENDBRANCH  50  54
ENDBRANCH  49  52
ENDBRANCH  48  49
ENDBRANCH  44  48
ENDBRANCH  43  46
BRANCH  43  73
ATOM     73  O   UNL     1       1.441   0.486  26.753  0.00  0.00    -0.382 OA
ATOM     74  H   UNL     1       0.964  -0.269  26.376  0.00  0.00    +0.210 HD
ENDBRANCH  43  73
ENDBRANCH  40  43
ENDBRANCH  39  40
ENDBRANCH   1  39
TORSDOF 32
ENDMDL
MODEL 6
REMARK VINA RESULT:      -5.7      3.550      5.521
REMARK  Name = 
REMARK  35 active torsions:
REMARK  status: ('A' for Active; 'I' for Inactive)
REMARK    1  A    between atoms: C_1  and  O_2
REMARK    2  A    between atoms: O_2  and  C_3
REMARK    3  A    between atoms: C_5  and  C_6
REMARK    4  A    between atoms: C_7  and  C_8
REMARK    5  A    between atoms: C_8  and  S_10
REMARK    6  A    between atoms: S_10  and  C_11
REMARK    7  A    between atoms: C_11  and  C_12
REMARK    8  A    between atoms: C_12  and  N_13
REMARK    9  A    between atoms: C_14  and  C_16
REMARK   10  A    between atoms: C_16  and  C_17
REMARK   11  A    between atoms: C_17  and  N_18
REMARK   12  A    between atoms: C_19  and  C_21
REMARK   13  A    between atoms: C_21  and  O_23
REMARK   14  A    between atoms: C_21  and  C_24
REMARK   15  A    between atoms: C_24  and  C_25
REMARK   16  A    between atoms: C_24  and  C_26
REMARK   17  A    between atoms: C_24  and  C_27
REMARK   18  A    between atoms: C_27  and  O_28
REMARK   19  A    between atoms: O_28  and  P_29
REMARK   20  A    between atoms: P_29  and  O_31
REMARK   21  A    between atoms: P_29  and  O_32
REMARK   22  A    between atoms: O_32  and  P_33
REMARK   23  A    between atoms: P_33  and  O_34
REMARK   24  A    between atoms: P_33  and  O_36
REMARK   25  A    between atoms: O_36  and  C_37
REMARK   26  A    between atoms: C_37  and  C_38
REMARK   27  A    between atoms: C_41  and  N_53
REMARK   28  A    between atoms: C_43  and  O_45
REMARK   29  A    between atoms: C_46  and  O_48
REMARK   30  A    between atoms: O_48  and  P_49
REMARK   31  A    between atoms: P_49  and  O_50
REMARK   32  A    between atoms: P_49  and  O_51
REMARK   33  A    between atoms: C_57  and  N_58
REMARK   34  A    between atoms: C_64  and  O_65
REMARK   35  A    between atoms: C_66  and  O_67
REMARK                            x       y       z     vdW  Elec       q    Type
REMARK                         _______ _______ _______ _____ _____    ______ ____
ROOT
ATOM      1  O   UNL     1       7.838   2.934  21.665  0.00  0.00    -0.286 OA
ENDROOT
BRANCH   1   2
ATOM      2  P   UNL     1       7.095   4.139  22.416  0.00  0.00    +0.483 P 
ATOM      3  O   UNL     1       7.448   5.480  21.862  0.00  0.00    -0.227 OA
BRANCH   2   4
ATOM      4  O   UNL     1       5.553   3.799  22.156  0.00  0.00    -0.302 OA
ATOM      5  H   UNL     1       5.494   2.946  21.684  0.00  0.00    +0.222 HD
ENDBRANCH   2   4
BRANCH   2   6
ATOM      6  O   UNL     1       7.289   3.953  23.984  0.00  0.00    -0.186 OA
BRANCH   6   7
ATOM      7  P   UNL     1       6.616   4.920  25.053  0.00  0.00    +0.483 P 
ATOM      8  O   UNL     1       6.478   4.416  26.451  0.00  0.00    -0.227 OA
BRANCH   7   9
ATOM      9  O   UNL     1       7.469   6.274  24.999  0.00  0.00    -0.302 OA
ATOM     10  H   UNL     1       7.258   6.811  24.214  0.00  0.00    +0.222 HD
ENDBRANCH   7   9
BRANCH   7  11
ATOM     11  O   UNL     1       5.263   5.410  24.365  0.00  0.00    -0.284 OA
BRANCH  11  12
ATOM     12  C   UNL     1       4.141   5.784  25.145  0.00  0.00    +0.206 C 
BRANCH  12  13
ATOM     13  C   UNL     1       2.953   5.098  24.478  0.00  0.00    +0.179 C 
ATOM     14  C   UNL     1       2.882   3.605  24.724  0.00  0.00    +0.194 C 
ATOM     15  C   UNL     1       2.205   3.045  23.471  0.00  0.00    +0.196 C 
ATOM     16  C   UNL     1       1.863   4.304  22.673  0.00  0.00    +0.253 C 
ATOM     17  O   UNL     1       2.889   5.254  23.046  0.00  0.00    -0.346 OA
BRANCH  16  18
ATOM     18  N   UNL     1       1.832   4.081  21.245  0.00  0.00    -0.286 N 
ATOM     19  C   UNL     1       1.815   5.085  20.306  0.00  0.00    +0.167 A 
ATOM     20  C   UNL     1       1.901   4.433  19.088  0.00  0.00    +0.147 A 
ATOM     21  C   UNL     1       1.942   5.251  17.944  0.00  0.00    +0.147 A 
ATOM     22  N   UNL     1       1.883   6.592  18.106  0.00  0.00    -0.219 NA
ATOM     23  C   UNL     1       1.771   7.088  19.357  0.00  0.00    +0.225 A 
ATOM     24  N   UNL     1       1.932   3.067  19.270  0.00  0.00    -0.231 NA
ATOM     25  N   UNL     1       1.739   6.411  20.528  0.00  0.00    -0.216 NA
ATOM     26  C   UNL     1       1.871   2.892  20.577  0.00  0.00    +0.203 A 
BRANCH  21  27
ATOM     27  N   UNL     1       2.077   4.752  16.657  0.00  0.00    -0.341 N 
ATOM     28  H   UNL     1       2.126   5.498  15.974  0.00  0.00    +0.144 HD
ATOM     29  H   UNL     1       2.771   4.015  16.589  0.00  0.00    +0.144 HD
ENDBRANCH  21  27
ENDBRANCH  16  18
BRANCH  15  30
ATOM     30  O   UNL     1       1.076   2.233  23.784  0.00  0.00    -0.385 OA
ATOM     31  H   UNL     1       0.729   2.530  24.657  0.00  0.00    +0.210 HD
ENDBRANCH  15  30
BRANCH  14  32
ATOM     32  O   UNL     1       2.120   3.438  25.902  0.00  0.00    -0.278 OA
BRANCH  32  33
ATOM     33  P   UNL     1       2.909   2.447  27.081  0.00  0.00    +0.473 P 
ATOM     34  O   UNL     1       3.615   1.561  28.137  0.00  0.00    -0.228 OA
BRANCH  33  35
ATOM     35  O   UNL     1       4.172   2.335  26.046  0.00  0.00    -0.303 OA
ATOM     36  H   UNL     1       3.955   1.579  25.463  0.00  0.00    +0.222 HD
ENDBRANCH  33  35
BRANCH  33  37
ATOM     37  O   UNL     1       2.089   1.225  26.357  0.00  0.00    -0.303 OA
ATOM     38  H   UNL     1       2.504   0.395  26.660  0.00  0.00    +0.222 HD
ENDBRANCH  33  37
ENDBRANCH  32  33
ENDBRANCH  14  32
ENDBRANCH  12  13
ENDBRANCH  11  12
ENDBRANCH   7  11
ENDBRANCH   6   7
ENDBRANCH   2   6
ENDBRANCH   1   2
BRANCH   1  39
ATOM     39  C   UNL     1       7.678   1.575  22.031  0.00  0.00    +0.181 C 
BRANCH  39  40
ATOM     40  C   UNL     1       9.015   0.949  22.575  0.00  0.00    +0.024 C 
ATOM     41  C   UNL     1       9.287  -0.420  21.915  0.00  0.00    +0.016 C 
ATOM     42  C   UNL     1      10.213   1.858  22.208  0.00  0.00    +0.016 C 
BRANCH  40  43
ATOM     43  C   UNL     1       8.841   0.781  24.120  0.00  0.00    +0.208 C 
BRANCH  43  46
ATOM     44  N   UNL     1       7.098  -1.010  24.450  0.00  0.00    -0.313 N 
ATOM     45  H   UNL     1       7.848  -1.682  24.391  0.00  0.00    +0.149 HD
ATOM     46  C   UNL     1       7.435   0.320  24.575  0.00  0.00    +0.242 C 
ATOM     47  O   UNL     1       6.658   1.156  25.050  0.00  0.00    -0.273 OA
BRANCH  44  48
ATOM     48  C   UNL     1       5.817  -1.537  24.946  0.00  0.00    +0.113 C 
BRANCH  48  49
ATOM     49  C   UNL     1       5.738  -1.809  26.453  0.00  0.00    +0.114 C 
BRANCH  49  52
ATOM     50  N   UNL     1       4.293  -2.928  28.030  0.00  0.00    -0.314 N 
ATOM     51  H   UNL     1       5.162  -3.282  28.416  0.00  0.00    +0.149 HD
ATOM     52  C   UNL     1       4.331  -2.129  26.903  0.00  0.00    +0.215 C 
ATOM     53  O   UNL     1       3.331  -1.718  26.335  0.00  0.00    -0.276 OA
BRANCH  50  54
ATOM     54  C   UNL     1       3.040  -3.329  28.642  0.00  0.00    +0.115 C 
BRANCH  54  55
ATOM     55  C   UNL     1       3.017  -4.799  29.068  0.00  0.00    +0.096 C 
BRANCH  55  56
ATOM     56  S   UNL     1       1.530  -5.562  28.354  0.00  0.00    -0.082 S 
BRANCH  56  57
ATOM     57  C   UNL     1       2.246  -6.672  27.204  0.00  0.00    +0.213 C 
ATOM     58  O   UNL     1       1.629  -7.572  26.659  0.00  0.00    -0.280 OA
BRANCH  57  60
ATOM     59  C   UNL     1       4.092  -5.833  25.803  0.00  0.00    +0.012 C 
ATOM     60  C   UNL     1       3.680  -6.367  26.963  0.00  0.00    +0.058 C 
BRANCH  59  65
ATOM     61  C   UNL     1       7.160  -4.830  23.843  0.00  0.00    +0.166 A 
ATOM     62  C   UNL     1       8.143  -4.890  24.831  0.00  0.00    +0.201 A 
ATOM     63  C   UNL     1       7.815  -5.231  26.141  0.00  0.00    +0.163 A 
ATOM     64  C   UNL     1       6.502  -5.531  26.490  0.00  0.00    +0.057 A 
ATOM     65  C   UNL     1       5.495  -5.482  25.513  0.00  0.00    -0.018 A 
ATOM     66  C   UNL     1       5.840  -5.141  24.192  0.00  0.00    +0.057 A 
BRANCH  61  68
ATOM     67  C   UNL     1       6.758  -3.600  21.857  0.00  0.00    +0.277 C 
ATOM     68  O   UNL     1       7.571  -4.519  22.575  0.00  0.00    -0.491 OA
ENDBRANCH  61  68
BRANCH  63  69
ATOM     69  O   UNL     1       8.830  -5.267  27.061  0.00  0.00    -0.503 OA
ATOM     70  H   UNL     1       9.156  -4.360  27.199  0.00  0.00    +0.292 HD
ENDBRANCH  63  69
BRANCH  62  71
ATOM     71  O   UNL     1       9.452  -4.609  24.534  0.00  0.00    -0.501 OA
ATOM     72  H   UNL     1       9.411  -3.920  23.844  0.00  0.00    +0.292 HD
ENDBRANCH  62  71
ENDBRANCH  59  65
ENDBRANCH  57  60
ENDBRANCH  56  57
ENDBRANCH  55  56
ENDBRANCH  54  55
ENDBRANCH  50  54
ENDBRANCH  49  52
ENDBRANCH  48  49
ENDBRANCH  44  48
ENDBRANCH  43  46
BRANCH  43  73
ATOM     73  O   UNL     1       9.436   1.863  24.827  0.00  0.00    -0.382 OA
ATOM     74  H   UNL     1       9.127   2.700  24.449  0.00  0.00    +0.210 HD
ENDBRANCH  43  73
ENDBRANCH  40  43
ENDBRANCH  39  40
ENDBRANCH   1  39
TORSDOF 32
ENDMDL
MODEL 7
REMARK VINA RESULT:      -5.7      3.707      8.229
REMARK  Name = 
REMARK  35 active torsions:
REMARK  status: ('A' for Active; 'I' for Inactive)
REMARK    1  A    between atoms: C_1  and  O_2
REMARK    2  A    between atoms: O_2  and  C_3
REMARK    3  A    between atoms: C_5  and  C_6
REMARK    4  A    between atoms: C_7  and  C_8
REMARK    5  A    between atoms: C_8  and  S_10
REMARK    6  A    between atoms: S_10  and  C_11
REMARK    7  A    between atoms: C_11  and  C_12
REMARK    8  A    between atoms: C_12  and  N_13
REMARK    9  A    between atoms: C_14  and  C_16
REMARK   10  A    between atoms: C_16  and  C_17
REMARK   11  A    between atoms: C_17  and  N_18
REMARK   12  A    between atoms: C_19  and  C_21
REMARK   13  A    between atoms: C_21  and  O_23
REMARK   14  A    between atoms: C_21  and  C_24
REMARK   15  A    between atoms: C_24  and  C_25
REMARK   16  A    between atoms: C_24  and  C_26
REMARK   17  A    between atoms: C_24  and  C_27
REMARK   18  A    between atoms: C_27  and  O_28
REMARK   19  A    between atoms: O_28  and  P_29
REMARK   20  A    between atoms: P_29  and  O_31
REMARK   21  A    between atoms: P_29  and  O_32
REMARK   22  A    between atoms: O_32  and  P_33
REMARK   23  A    between atoms: P_33  and  O_34
REMARK   24  A    between atoms: P_33  and  O_36
REMARK   25  A    between atoms: O_36  and  C_37
REMARK   26  A    between atoms: C_37  and  C_38
REMARK   27  A    between atoms: C_41  and  N_53
REMARK   28  A    between atoms: C_43  and  O_45
REMARK   29  A    between atoms: C_46  and  O_48
REMARK   30  A    between atoms: O_48  and  P_49
REMARK   31  A    between atoms: P_49  and  O_50
REMARK   32  A    between atoms: P_49  and  O_51
REMARK   33  A    between atoms: C_57  and  N_58
REMARK   34  A    between atoms: C_64  and  O_65
REMARK   35  A    between atoms: C_66  and  O_67
REMARK                            x       y       z     vdW  Elec       q    Type
REMARK                         _______ _______ _______ _____ _____    ______ ____
ROOT
ATOM      1  O   UNL     1       5.691  -6.339  26.552  0.00  0.00    -0.286 OA
ENDROOT
BRANCH   1   2
ATOM      2  P   UNL     1       6.878  -5.274  26.403  0.00  0.00    +0.483 P 
ATOM      3  O   UNL     1       6.456  -3.878  26.721  0.00  0.00    -0.227 OA
BRANCH   2   4
ATOM      4  O   UNL     1       7.946  -5.807  27.470  0.00  0.00    -0.302 OA
ATOM      5  H   UNL     1       8.068  -6.768  27.339  0.00  0.00    +0.222 HD
ENDBRANCH   2   4
BRANCH   2   6
ATOM      6  O   UNL     1       7.578  -5.492  24.991  0.00  0.00    -0.186 OA
BRANCH   6   7
ATOM      7  P   UNL     1       6.789  -5.377  23.615  0.00  0.00    +0.483 P 
ATOM      8  O   UNL     1       7.416  -5.987  22.405  0.00  0.00    -0.227 OA
BRANCH   7   9
ATOM      9  O   UNL     1       5.341  -5.997  23.901  0.00  0.00    -0.302 OA
ATOM     10  H   UNL     1       5.055  -5.857  24.822  0.00  0.00    +0.222 HD
ENDBRANCH   7   9
BRANCH   7  11
ATOM     11  O   UNL     1       6.415  -3.832  23.487  0.00  0.00    -0.284 OA
BRANCH  11  12
ATOM     12  C   UNL     1       7.162  -2.966  22.649  0.00  0.00    +0.206 C 
BRANCH  12  13
ATOM     13  C   UNL     1       7.478  -1.755  23.518  0.00  0.00    +0.179 C 
ATOM     14  C   UNL     1       8.630  -1.964  24.479  0.00  0.00    +0.194 C 
ATOM     15  C   UNL     1       8.300  -1.064  25.671  0.00  0.00    +0.196 C 
ATOM     16  C   UNL     1       7.027  -0.347  25.219  0.00  0.00    +0.253 C 
ATOM     17  O   UNL     1       6.381  -1.290  24.332  0.00  0.00    -0.346 OA
BRANCH  16  18
ATOM     18  N   UNL     1       6.167   0.030  26.319  0.00  0.00    -0.286 N 
ATOM     19  C   UNL     1       6.252   1.226  26.992  0.00  0.00    +0.167 A 
ATOM     20  C   UNL     1       5.185   1.213  27.875  0.00  0.00    +0.147 A 
ATOM     21  C   UNL     1       5.021   2.361  28.671  0.00  0.00    +0.147 A 
ATOM     22  N   UNL     1       5.905   3.374  28.533  0.00  0.00    -0.219 NA
ATOM     23  C   UNL     1       6.916   3.236  27.650  0.00  0.00    +0.225 A 
ATOM     24  N   UNL     1       4.488   0.028  27.773  0.00  0.00    -0.231 NA
ATOM     25  N   UNL     1       7.170   2.197  26.821  0.00  0.00    -0.216 NA
ATOM     26  C   UNL     1       5.116  -0.664  26.842  0.00  0.00    +0.203 A 
BRANCH  21  27
ATOM     27  N   UNL     1       3.974   2.521  29.566  0.00  0.00    -0.341 N 
ATOM     28  H   UNL     1       4.047   3.397  30.068  0.00  0.00    +0.144 HD
ATOM     29  H   UNL     1       3.071   2.291  29.164  0.00  0.00    +0.144 HD
ENDBRANCH  21  27
ENDBRANCH  16  18
BRANCH  15  30
ATOM     30  O   UNL     1       9.374  -0.186  26.000  0.00  0.00    -0.385 OA
ATOM     31  H   UNL     1      10.213  -0.635  25.746  0.00  0.00    +0.210 HD
ENDBRANCH  15  30
BRANCH  14  32
ATOM     32  O   UNL     1       9.796  -1.574  23.782  0.00  0.00    -0.278 OA
BRANCH  32  33
ATOM     33  P   UNL     1       9.456  -0.619  22.379  0.00  0.00    +0.473 P 
ATOM     34  O   UNL     1       9.153   0.236  21.125  0.00  0.00    -0.228 OA
BRANCH  33  35
ATOM     35  O   UNL     1      10.572  -1.511  21.582  0.00  0.00    -0.303 OA
ATOM     36  H   UNL     1      10.054  -2.165  21.069  0.00  0.00    +0.222 HD
ENDBRANCH  33  35
BRANCH  33  37
ATOM     37  O   UNL     1      10.582   0.396  23.006  0.00  0.00    -0.303 OA
ATOM     38  H   UNL     1      11.129  -0.138  23.613  0.00  0.00    +0.222 HD
ENDBRANCH  33  37
ENDBRANCH  32  33
ENDBRANCH  14  32
ENDBRANCH  12  13
ENDBRANCH  11  12
ENDBRANCH   7  11
ENDBRANCH   6   7
ENDBRANCH   2   6
ENDBRANCH   1   2
BRANCH   1  39
ATOM     39  C   UNL     1       5.181  -6.762  27.805  0.00  0.00    +0.181 C 
BRANCH  39  40
ATOM     40  C   UNL     1       3.810  -6.069  28.148  0.00  0.00    +0.024 C 
ATOM     41  C   UNL     1       2.824  -7.083  28.767  0.00  0.00    +0.016 C 
ATOM     42  C   UNL     1       4.026  -4.964  29.208  0.00  0.00    +0.016 C 
BRANCH  40  43
ATOM     43  C   UNL     1       3.237  -5.508  26.805  0.00  0.00    +0.208 C 
BRANCH  43  46
ATOM     44  N   UNL     1       2.440  -3.118  26.890  0.00  0.00    -0.313 N 
ATOM     45  H   UNL     1       3.297  -2.868  26.420  0.00  0.00    +0.149 HD
ATOM     46  C   UNL     1       2.113  -4.455  26.961  0.00  0.00    +0.242 C 
ATOM     47  O   UNL     1       0.952  -4.843  27.133  0.00  0.00    -0.273 OA
BRANCH  44  48
ATOM     48  C   UNL     1       1.414  -2.064  26.937  0.00  0.00    +0.113 C 
BRANCH  48  49
ATOM     49  C   UNL     1       1.128  -1.463  28.318  0.00  0.00    +0.114 C 
BRANCH  49  52
ATOM     50  N   UNL     1       1.549   0.595  27.128  0.00  0.00    -0.314 N 
ATOM     51  H   UNL     1       2.035  -0.006  26.472  0.00  0.00    +0.149 HD
ATOM     52  C   UNL     1       0.999   0.043  28.270  0.00  0.00    +0.215 C 
ATOM     53  O   UNL     1       0.458   0.702  29.144  0.00  0.00    -0.276 OA
BRANCH  50  54
ATOM     54  C   UNL     1       1.508   2.023  26.874  0.00  0.00    +0.115 C 
BRANCH  54  55
ATOM     55  C   UNL     1       0.670   2.396  25.649  0.00  0.00    +0.096 C 
BRANCH  55  56
ATOM     56  S   UNL     1       1.345   3.938  24.962  0.00  0.00    -0.082 S 
BRANCH  56  57
ATOM     57  C   UNL     1       2.086   3.349  23.489  0.00  0.00    +0.213 C 
ATOM     58  O   UNL     1       1.518   2.620  22.691  0.00  0.00    -0.280 OA
BRANCH  57  60
ATOM     59  C   UNL     1       4.524   3.182  23.803  0.00  0.00    +0.012 C 
ATOM     60  C   UNL     1       3.471   3.861  23.325  0.00  0.00    +0.058 C 
BRANCH  59  65
ATOM     61  C   UNL     1       7.646   5.269  24.206  0.00  0.00    +0.166 A 
ATOM     62  C   UNL     1       8.528   4.603  23.355  0.00  0.00    +0.201 A 
ATOM     63  C   UNL     1       8.126   3.461  22.665  0.00  0.00    +0.163 A 
ATOM     64  C   UNL     1       6.831   2.968  22.801  0.00  0.00    +0.057 A 
ATOM     65  C   UNL     1       5.923   3.623  23.648  0.00  0.00    -0.018 A 
ATOM     66  C   UNL     1       6.341   4.778  24.336  0.00  0.00    +0.057 A 
BRANCH  61  68
ATOM     67  C   UNL     1       8.318   6.313  26.225  0.00  0.00    +0.277 C 
ATOM     68  O   UNL     1       8.111   6.400  24.821  0.00  0.00    -0.491 OA
ENDBRANCH  61  68
BRANCH  63  69
ATOM     69  O   UNL     1       9.044   2.856  21.848  0.00  0.00    -0.503 OA
ATOM     70  H   UNL     1       9.424   2.095  22.320  0.00  0.00    +0.292 HD
ENDBRANCH  63  69
BRANCH  62  71
ATOM     71  O   UNL     1       9.812   5.055  23.184  0.00  0.00    -0.501 OA
ATOM     72  H   UNL     1      10.377   4.282  23.371  0.00  0.00    +0.292 HD
ENDBRANCH  62  71
ENDBRANCH  59  65
ENDBRANCH  57  60
ENDBRANCH  56  57
ENDBRANCH  55  56
ENDBRANCH  54  55
ENDBRANCH  50  54
ENDBRANCH  49  52
ENDBRANCH  48  49
ENDBRANCH  44  48
ENDBRANCH  43  46
BRANCH  43  73
ATOM     73  O   UNL     1       3.031  -6.549  25.857  0.00  0.00    -0.382 OA
ATOM     74  H   UNL     1       2.165  -6.432  25.437  0.00  0.00    +0.210 HD
ENDBRANCH  43  73
ENDBRANCH  40  43
ENDBRANCH  39  40
ENDBRANCH   1  39
TORSDOF 32
ENDMDL
MODEL 8
REMARK VINA RESULT:      -5.6      2.407      8.095
REMARK  Name = 
REMARK  35 active torsions:
REMARK  status: ('A' for Active; 'I' for Inactive)
REMARK    1  A    between atoms: C_1  and  O_2
REMARK    2  A    between atoms: O_2  and  C_3
REMARK    3  A    between atoms: C_5  and  C_6
REMARK    4  A    between atoms: C_7  and  C_8
REMARK    5  A    between atoms: C_8  and  S_10
REMARK    6  A    between atoms: S_10  and  C_11
REMARK    7  A    between atoms: C_11  and  C_12
REMARK    8  A    between atoms: C_12  and  N_13
REMARK    9  A    between atoms: C_14  and  C_16
REMARK   10  A    between atoms: C_16  and  C_17
REMARK   11  A    between atoms: C_17  and  N_18
REMARK   12  A    between atoms: C_19  and  C_21
REMARK   13  A    between atoms: C_21  and  O_23
REMARK   14  A    between atoms: C_21  and  C_24
REMARK   15  A    between atoms: C_24  and  C_25
REMARK   16  A    between atoms: C_24  and  C_26
REMARK   17  A    between atoms: C_24  and  C_27
REMARK   18  A    between atoms: C_27  and  O_28
REMARK   19  A    between atoms: O_28  and  P_29
REMARK   20  A    between atoms: P_29  and  O_31
REMARK   21  A    between atoms: P_29  and  O_32
REMARK   22  A    between atoms: O_32  and  P_33
REMARK   23  A    between atoms: P_33  and  O_34
REMARK   24  A    between atoms: P_33  and  O_36
REMARK   25  A    between atoms: O_36  and  C_37
REMARK   26  A    between atoms: C_37  and  C_38
REMARK   27  A    between atoms: C_41  and  N_53
REMARK   28  A    between atoms: C_43  and  O_45
REMARK   29  A    between atoms: C_46  and  O_48
REMARK   30  A    between atoms: O_48  and  P_49
REMARK   31  A    between atoms: P_49  and  O_50
REMARK   32  A    between atoms: P_49  and  O_51
REMARK   33  A    between atoms: C_57  and  N_58
REMARK   34  A    between atoms: C_64  and  O_65
REMARK   35  A    between atoms: C_66  and  O_67
REMARK                            x       y       z     vdW  Elec       q    Type
REMARK                         _______ _______ _______ _____ _____    ______ ____
ROOT
ATOM      1  O   UNL     1       4.007   4.400  22.851  0.00  0.00    -0.286 OA
ENDROOT
BRANCH   1   2
ATOM      2  P   UNL     1       3.177   3.707  24.032  0.00  0.00    +0.483 P 
ATOM      3  O   UNL     1       2.215   2.675  23.544  0.00  0.00    -0.227 OA
BRANCH   2   4
ATOM      4  O   UNL     1       4.335   3.040  24.913  0.00  0.00    -0.302 OA
ATOM      5  H   UNL     1       4.612   2.205  24.488  0.00  0.00    +0.222 HD
ENDBRANCH   2   4
BRANCH   2   6
ATOM      6  O   UNL     1       2.572   4.848  24.962  0.00  0.00    -0.186 OA
BRANCH   6   7
ATOM      7  P   UNL     1       2.937   4.982  26.505  0.00  0.00    +0.483 P 
ATOM      8  O   UNL     1       4.216   5.666  26.855  0.00  0.00    -0.227 OA
BRANCH   7   9
ATOM      9  O   UNL     1       1.679   5.707  27.179  0.00  0.00    -0.302 OA
ATOM     10  H   UNL     1       0.890   5.682  26.608  0.00  0.00    +0.222 HD
ENDBRANCH   7   9
BRANCH   7  11
ATOM     11  O   UNL     1       2.764   3.509  27.094  0.00  0.00    -0.284 OA
BRANCH  11  12
ATOM     12  C   UNL     1       2.669   3.288  28.490  0.00  0.00    +0.206 C 
BRANCH  12  13
ATOM     13  C   UNL     1       3.276   1.908  28.712  0.00  0.00    +0.179 C 
ATOM     14  C   UNL     1       4.584   1.681  27.982  0.00  0.00    +0.194 C 
ATOM     15  C   UNL     1       4.604   0.179  27.693  0.00  0.00    +0.196 C 
ATOM     16  C   UNL     1       3.336  -0.322  28.387  0.00  0.00    +0.253 C 
ATOM     17  O   UNL     1       2.429   0.804  28.330  0.00  0.00    -0.346 OA
BRANCH  16  18
ATOM     18  N   UNL     1       2.772  -1.497  27.760  0.00  0.00    -0.286 N 
ATOM     19  C   UNL     1       3.161  -2.785  28.041  0.00  0.00    +0.167 A 
ATOM     20  C   UNL     1       2.298  -3.584  27.311  0.00  0.00    +0.147 A 
ATOM     21  C   UNL     1       2.462  -4.973  27.455  0.00  0.00    +0.147 A 
ATOM     22  N   UNL     1       3.441  -5.427  28.270  0.00  0.00    -0.219 NA
ATOM     23  C   UNL     1       4.228  -4.529  28.898  0.00  0.00    +0.225 A 
ATOM     24  N   UNL     1       1.428  -2.809  26.574  0.00  0.00    -0.231 NA
ATOM     25  N   UNL     1       4.160  -3.178  28.855  0.00  0.00    -0.216 NA
ATOM     26  C   UNL     1       1.754  -1.561  26.855  0.00  0.00    +0.203 A 
BRANCH  21  27
ATOM     27  N   UNL     1       1.646  -5.904  26.830  0.00  0.00    -0.341 N 
ATOM     28  H   UNL     1       1.914  -6.850  27.066  0.00  0.00    +0.144 HD
ATOM     29  H   UNL     1       0.659  -5.672  26.895  0.00  0.00    +0.144 HD
ENDBRANCH  21  27
ENDBRANCH  16  18
BRANCH  15  30
ATOM     30  O   UNL     1       5.801  -0.444  28.154  0.00  0.00    -0.385 OA
ATOM     31  H   UNL     1       6.286   0.213  28.704  0.00  0.00    +0.210 HD
ENDBRANCH  15  30
BRANCH  14  32
ATOM     32  O   UNL     1       5.603   2.101  28.866  0.00  0.00    -0.278 OA
BRANCH  32  33
ATOM     33  P   UNL     1       6.625   3.322  28.187  0.00  0.00    +0.473 P 
ATOM     34  O   UNL     1       7.540   4.414  27.580  0.00  0.00    -0.228 OA
BRANCH  33  35
ATOM     35  O   UNL     1       7.227   2.171  27.192  0.00  0.00    -0.303 OA
ATOM     36  H   UNL     1       6.588   1.430  27.245  0.00  0.00    +0.222 HD
ENDBRANCH  33  35
BRANCH  33  37
ATOM     37  O   UNL     1       7.636   2.919  29.414  0.00  0.00    -0.303 OA
ATOM     38  H   UNL     1       7.149   2.290  29.979  0.00  0.00    +0.222 HD
ENDBRANCH  33  37
ENDBRANCH  32  33
ENDBRANCH  14  32
ENDBRANCH  12  13
ENDBRANCH  11  12
ENDBRANCH   7  11
ENDBRANCH   6   7
ENDBRANCH   2   6
ENDBRANCH   1   2
BRANCH   1  39
ATOM     39  C   UNL     1       4.426   5.753  22.888  0.00  0.00    +0.181 C 
BRANCH  39  40
ATOM     40  C   UNL     1       5.991   5.884  22.984  0.00  0.00    +0.024 C 
ATOM     41  C   UNL     1       6.537   6.781  21.853  0.00  0.00    +0.016 C 
ATOM     42  C   UNL     1       6.385   6.568  24.315  0.00  0.00    +0.016 C 
BRANCH  40  43
ATOM     43  C   UNL     1       6.575   4.438  22.858  0.00  0.00    +0.208 C 
BRANCH  43  46
ATOM     44  N   UNL     1       9.051   4.781  23.184  0.00  0.00    -0.313 N 
ATOM     45  H   UNL     1       8.967   5.593  22.591  0.00  0.00    +0.149 HD
ATOM     46  C   UNL     1       7.891   4.192  23.637  0.00  0.00    +0.242 C 
ATOM     47  O   UNL     1       7.860   3.485  24.650  0.00  0.00    -0.273 OA
BRANCH  44  48
ATOM     48  C   UNL     1      10.318   4.668  23.924  0.00  0.00    +0.113 C 
BRANCH  48  49
ATOM     49  C   UNL     1      11.353   3.696  23.345  0.00  0.00    +0.114 C 
BRANCH  49  52
ATOM     50  N   UNL     1      10.972   1.446  24.131  0.00  0.00    -0.314 N 
ATOM     51  H   UNL     1      11.528   1.741  24.926  0.00  0.00    +0.149 HD
ATOM     52  C   UNL     1      10.768   2.326  23.085  0.00  0.00    +0.215 C 
ATOM     53  O   UNL     1      10.170   2.031  22.063  0.00  0.00    -0.276 OA
BRANCH  50  54
ATOM     54  C   UNL     1      10.466   0.086  24.095  0.00  0.00    +0.115 C 
BRANCH  54  55
ATOM     55  C   UNL     1       9.084  -0.063  24.734  0.00  0.00    +0.096 C 
BRANCH  55  56
ATOM     56  S   UNL     1       7.889  -0.388  23.403  0.00  0.00    -0.082 S 
BRANCH  56  57
ATOM     57  C   UNL     1       6.376  -0.208  24.266  0.00  0.00    +0.213 C 
ATOM     58  O   UNL     1       5.897   0.871  24.574  0.00  0.00    -0.280 OA
BRANCH  57  60
ATOM     59  C   UNL     1       6.036  -2.608  23.819  0.00  0.00    +0.012 C 
ATOM     60  C   UNL     1       5.743  -1.522  24.551  0.00  0.00    +0.058 C 
BRANCH  59  65
ATOM     61  C   UNL     1       3.859  -5.664  23.397  0.00  0.00    +0.166 A 
ATOM     62  C   UNL     1       4.244  -6.426  24.501  0.00  0.00    +0.201 A 
ATOM     63  C   UNL     1       5.227  -5.965  25.374  0.00  0.00    +0.163 A 
ATOM     64  C   UNL     1       5.838  -4.731  25.171  0.00  0.00    +0.057 A 
ATOM     65  C   UNL     1       5.464  -3.945  24.069  0.00  0.00    -0.018 A 
ATOM     66  C   UNL     1       4.466  -4.418  23.197  0.00  0.00    +0.057 A 
BRANCH  61  68
ATOM     67  C   UNL     1       1.533  -5.835  22.974  0.00  0.00    +0.277 C 
ATOM     68  O   UNL     1       2.863  -6.175  22.607  0.00  0.00    -0.491 OA
ENDBRANCH  61  68
BRANCH  63  69
ATOM     69  O   UNL     1       5.558  -6.765  26.436  0.00  0.00    -0.503 OA
ATOM     70  H   UNL     1       5.128  -7.630  26.318  0.00  0.00    +0.292 HD
ENDBRANCH  63  69
BRANCH  62  71
ATOM     71  O   UNL     1       3.666  -7.645  24.747  0.00  0.00    -0.501 OA
ATOM     72  H   UNL     1       3.653  -8.095  23.882  0.00  0.00    +0.292 HD
ENDBRANCH  62  71
ENDBRANCH  59  65
ENDBRANCH  57  60
ENDBRANCH  56  57
ENDBRANCH  55  56
ENDBRANCH  54  55
ENDBRANCH  50  54
ENDBRANCH  49  52
ENDBRANCH  48  49
ENDBRANCH  44  48
ENDBRANCH  43  46
BRANCH  43  73
ATOM     73  O   UNL     1       6.513   3.972  21.514  0.00  0.00    -0.382 OA
ATOM     74  H   UNL     1       5.602   3.714  21.308  0.00  0.00    +0.210 HD
ENDBRANCH  43  73
ENDBRANCH  40  43
ENDBRANCH  39  40
ENDBRANCH   1  39
TORSDOF 32
ENDMDL
MODEL 9
REMARK VINA RESULT:      -5.5      3.462      5.440
REMARK  Name = 
REMARK  35 active torsions:
REMARK  status: ('A' for Active; 'I' for Inactive)
REMARK    1  A    between atoms: C_1  and  O_2
REMARK    2  A    between atoms: O_2  and  C_3
REMARK    3  A    between atoms: C_5  and  C_6
REMARK    4  A    between atoms: C_7  and  C_8
REMARK    5  A    between atoms: C_8  and  S_10
REMARK    6  A    between atoms: S_10  and  C_11
REMARK    7  A    between atoms: C_11  and  C_12
REMARK    8  A    between atoms: C_12  and  N_13
REMARK    9  A    between atoms: C_14  and  C_16
REMARK   10  A    between atoms: C_16  and  C_17
REMARK   11  A    between atoms: C_17  and  N_18
REMARK   12  A    between atoms: C_19  and  C_21
REMARK   13  A    between atoms: C_21  and  O_23
REMARK   14  A    between atoms: C_21  and  C_24
REMARK   15  A    between atoms: C_24  and  C_25
REMARK   16  A    between atoms: C_24  and  C_26
REMARK   17  A    between atoms: C_24  and  C_27
REMARK   18  A    between atoms: C_27  and  O_28
REMARK   19  A    between atoms: O_28  and  P_29
REMARK   20  A    between atoms: P_29  and  O_31
REMARK   21  A    between atoms: P_29  and  O_32
REMARK   22  A    between atoms: O_32  and  P_33
REMARK   23  A    between atoms: P_33  and  O_34
REMARK   24  A    between atoms: P_33  and  O_36
REMARK   25  A    between atoms: O_36  and  C_37
REMARK   26  A    between atoms: C_37  and  C_38
REMARK   27  A    between atoms: C_41  and  N_53
REMARK   28  A    between atoms: C_43  and  O_45
REMARK   29  A    between atoms: C_46  and  O_48
REMARK   30  A    between atoms: O_48  and  P_49
REMARK   31  A    between atoms: P_49  and  O_50
REMARK   32  A    between atoms: P_49  and  O_51
REMARK   33  A    between atoms: C_57  and  N_58
REMARK   34  A    between atoms: C_64  and  O_65
REMARK   35  A    between atoms: C_66  and  O_67
REMARK                            x       y       z     vdW  Elec       q    Type
REMARK                         _______ _______ _______ _____ _____    ______ ____
ROOT
ATOM      1  O   UNL     1       7.573   2.280  22.009  0.00  0.00    -0.286 OA
ENDROOT
BRANCH   1   2
ATOM      2  P   UNL     1       7.099   3.631  22.726  0.00  0.00    +0.483 P 
ATOM      3  O   UNL     1       7.509   4.861  21.986  0.00  0.00    -0.227 OA
BRANCH   2   4
ATOM      4  O   UNL     1       5.507   3.469  22.734  0.00  0.00    -0.302 OA
ATOM      5  H   UNL     1       5.248   2.875  22.002  0.00  0.00    +0.222 HD
ENDBRANCH   2   4
BRANCH   2   6
ATOM      6  O   UNL     1       7.517   3.562  24.260  0.00  0.00    -0.186 OA
BRANCH   6   7
ATOM      7  P   UNL     1       7.447   4.824  25.227  0.00  0.00    +0.483 P 
ATOM      8  O   UNL     1       8.067   4.694  26.578  0.00  0.00    -0.227 OA
BRANCH   7   9
ATOM      9  O   UNL     1       8.092   6.031  24.397  0.00  0.00    -0.302 OA
ATOM     10  H   UNL     1       7.419   6.561  23.933  0.00  0.00    +0.222 HD
ENDBRANCH   7   9
BRANCH   7  11
ATOM     11  O   UNL     1       5.913   5.261  25.216  0.00  0.00    -0.284 OA
BRANCH  11  12
ATOM     12  C   UNL     1       4.995   4.730  26.156  0.00  0.00    +0.206 C 
BRANCH  12  13
ATOM     13  C   UNL     1       3.644   4.773  25.453  0.00  0.00    +0.179 C 
ATOM     14  C   UNL     1       3.003   3.414  25.258  0.00  0.00    +0.194 C 
ATOM     15  C   UNL     1       2.177   3.563  23.978  0.00  0.00    +0.196 C 
ATOM     16  C   UNL     1       2.353   5.040  23.625  0.00  0.00    +0.253 C 
ATOM     17  O   UNL     1       3.660   5.379  24.144  0.00  0.00    -0.346 OA
BRANCH  16  18
ATOM     18  N   UNL     1       2.255   5.301  22.206  0.00  0.00    -0.286 N 
ATOM     19  C   UNL     1       2.000   4.337  21.259  0.00  0.00    +0.167 A 
ATOM     20  C   UNL     1       1.883   5.033  20.068  0.00  0.00    +0.147 A 
ATOM     21  C   UNL     1       1.578   4.269  18.927  0.00  0.00    +0.147 A 
ATOM     22  N   UNL     1       1.435   2.932  19.064  0.00  0.00    -0.219 NA
ATOM     23  C   UNL     1       1.606   2.384  20.286  0.00  0.00    +0.225 A 
ATOM     24  N   UNL     1       2.098   6.379  20.270  0.00  0.00    -0.231 NA
ATOM     25  N   UNL     1       1.882   3.010  21.454  0.00  0.00    -0.216 NA
ATOM     26  C   UNL     1       2.336   6.501  21.562  0.00  0.00    +0.203 A 
BRANCH  21  27
ATOM     27  N   UNL     1       1.381   4.824  17.671  0.00  0.00    -0.341 N 
ATOM     28  H   UNL     1       2.220   4.774  17.108  0.00  0.00    +0.144 HD
ATOM     29  H   UNL     1       0.514   4.522  17.238  0.00  0.00    +0.144 HD
ENDBRANCH  21  27
ENDBRANCH  16  18
BRANCH  15  30
ATOM     30  O   UNL     1       0.819   3.169  24.163  0.00  0.00    -0.385 OA
ATOM     31  H   UNL     1       0.297   3.981  24.354  0.00  0.00    +0.210 HD
ENDBRANCH  15  30
BRANCH  14  32
ATOM     32  O   UNL     1       2.221   3.181  26.412  0.00  0.00    -0.278 OA
BRANCH  32  33
ATOM     33  P   UNL     1       2.574   1.667  27.171  0.00  0.00    +0.473 P 
ATOM     34  O   UNL     1       2.890   0.312  27.851  0.00  0.00    -0.228 OA
BRANCH  33  35
ATOM     35  O   UNL     1       3.618   1.371  25.946  0.00  0.00    -0.303 OA
ATOM     36  H   UNL     1       3.253   0.587  25.487  0.00  0.00    +0.222 HD
ENDBRANCH  33  35
BRANCH  33  37
ATOM     37  O   UNL     1       1.280   1.130  26.319  0.00  0.00    -0.303 OA
ATOM     38  H   UNL     1       0.860   1.919  25.926  0.00  0.00    +0.222 HD
ENDBRANCH  33  37
ENDBRANCH  32  33
ENDBRANCH  14  32
ENDBRANCH  12  13
ENDBRANCH  11  12
ENDBRANCH   7  11
ENDBRANCH   6   7
ENDBRANCH   2   6
ENDBRANCH   1   2
BRANCH   1  39
ATOM     39  C   UNL     1       7.449   1.000  22.604  0.00  0.00    +0.181 C 
BRANCH  39  40
ATOM     40  C   UNL     1       8.850   0.336  22.873  0.00  0.00    +0.024 C 
ATOM     41  C   UNL     1       9.924   0.922  21.932  0.00  0.00    +0.016 C 
ATOM     42  C   UNL     1       9.315   0.647  24.316  0.00  0.00    +0.016 C 
BRANCH  40  43
ATOM     43  C   UNL     1       8.682  -1.197  22.615  0.00  0.00    +0.208 C 
BRANCH  43  46
ATOM     44  N   UNL     1       6.804  -1.716  24.214  0.00  0.00    -0.313 N 
ATOM     45  H   UNL     1       7.216  -1.042  24.840  0.00  0.00    +0.149 HD
ATOM     46  C   UNL     1       7.273  -1.763  22.920  0.00  0.00    +0.242 C 
ATOM     47  O   UNL     1       6.605  -2.230  21.991  0.00  0.00    -0.273 OA
BRANCH  44  48
ATOM     48  C   UNL     1       5.441  -2.150  24.562  0.00  0.00    +0.113 C 
BRANCH  48  49
ATOM     49  C   UNL     1       5.009  -1.914  26.014  0.00  0.00    +0.114 C 
BRANCH  49  52
ATOM     50  N   UNL     1       3.480  -2.763  27.678  0.00  0.00    -0.314 N 
ATOM     51  H   UNL     1       4.228  -2.542  28.327  0.00  0.00    +0.149 HD
ATOM     52  C   UNL     1       3.678  -2.559  26.325  0.00  0.00    +0.215 C 
ATOM     53  O   UNL     1       2.858  -2.862  25.472  0.00  0.00    -0.276 OA
BRANCH  50  54
ATOM     54  C   UNL     1       2.255  -3.347  28.193  0.00  0.00    +0.115 C 
BRANCH  54  55
ATOM     55  C   UNL     1       2.483  -4.283  29.382  0.00  0.00    +0.096 C 
BRANCH  55  56
ATOM     56  S   UNL     1       1.916  -5.941  28.900  0.00  0.00    -0.082 S 
BRANCH  56  57
ATOM     57  C   UNL     1       3.446  -6.769  28.699  0.00  0.00    +0.213 C 
ATOM     58  O   UNL     1       4.004  -7.385  29.592  0.00  0.00    -0.280 OA
BRANCH  57  60
ATOM     59  C   UNL     1       5.063  -5.927  27.041  0.00  0.00    +0.012 C 
ATOM     60  C   UNL     1       3.963  -6.645  27.311  0.00  0.00    +0.058 C 
BRANCH  59  65
ATOM     61  C   UNL     1       7.574  -5.172  24.322  0.00  0.00    +0.166 A 
ATOM     62  C   UNL     1       6.811  -5.404  23.177  0.00  0.00    +0.201 A 
ATOM     63  C   UNL     1       5.488  -5.828  23.279  0.00  0.00    +0.163 A 
ATOM     64  C   UNL     1       4.895  -6.019  24.524  0.00  0.00    +0.057 A 
ATOM     65  C   UNL     1       5.641  -5.789  25.690  0.00  0.00    -0.018 A 
ATOM     66  C   UNL     1       6.975  -5.356  25.575  0.00  0.00    +0.057 A 
BRANCH  61  68
ATOM     67  C   UNL     1       9.716  -4.794  25.265  0.00  0.00    +0.277 C 
ATOM     68  O   UNL     1       8.855  -4.726  24.136  0.00  0.00    -0.491 OA
ENDBRANCH  61  68
BRANCH  63  69
ATOM     69  O   UNL     1       4.798  -6.038  22.114  0.00  0.00    -0.503 OA
ATOM     70  H   UNL     1       5.062  -6.902  21.749  0.00  0.00    +0.292 HD
ENDBRANCH  63  69
BRANCH  62  71
ATOM     71  O   UNL     1       7.349  -5.222  21.929  0.00  0.00    -0.501 OA
ATOM     72  H   UNL     1       7.818  -6.056  21.735  0.00  0.00    +0.292 HD
ENDBRANCH  62  71
ENDBRANCH  59  65
ENDBRANCH  57  60
ENDBRANCH  56  57
ENDBRANCH  55  56
ENDBRANCH  54  55
ENDBRANCH  50  54
ENDBRANCH  49  52
ENDBRANCH  48  49
ENDBRANCH  44  48
ENDBRANCH  43  46
BRANCH  43  73
ATOM     73  O   UNL     1       9.801  -1.929  23.103  0.00  0.00    -0.382 OA
ATOM     74  H   UNL     1       9.604  -2.877  23.065  0.00  0.00    +0.210 HD
ENDBRANCH  43  73
ENDBRANCH  40  43
ENDBRANCH  39  40
ENDBRANCH   1  39
TORSDOF 32
ENDMDL
