MODEL 1
REMARK VINA RESULT:      -4.9      0.000      0.000
REMARK  Name = 
REMARK  1 active torsions:
REMARK  status: ('A' for Active; 'I' for Inactive)
REMARK    1  A    between atoms: C_1  and  C_2
REMARK                            x       y       z     vdW  Elec       q    Type
REMARK                         _______ _______ _______ _____ _____    ______ ____
ROOT
ATOM      1  C   UNL     1      11.338   3.878  23.298  0.00  0.00    +0.086 C 
ATOM      2  C   UNL     1      10.602   2.573  23.220  0.00  0.00    +0.107 A 
ATOM      3  N   UNL     1      10.049   2.280  22.009  0.00  0.00    -0.311 N 
ATOM      4  H   UNL     1      10.119   2.916  21.230  0.00  0.00    +0.170 HD
ATOM      5  C   UNL     1       9.331   1.143  21.801  0.00  0.00    +0.256 A 
ATOM      6  O   UNL     1       8.789   0.912  20.725  0.00  0.00    -0.267 OA
ATOM      7  C   UNL     1       9.237   0.218  22.955  0.00  0.00    +0.048 A 
ATOM      8  C   UNL     1       8.490  -1.052  22.689  0.00  0.00    +0.111 C 
ATOM      9  S   UNL     1       8.776  -2.346  23.930  0.00  0.00    -0.155 S 
ATOM     10  C   UNL     1       8.698  -1.295  25.401  0.00  0.00    +0.075 C 
ATOM     11  C   UNL     1       9.784  -0.226  25.362  0.00  0.00    +0.066 C 
ATOM     12  C   UNL     1       9.828   0.610  24.099  0.00  0.00    +0.053 A 
ATOM     13  N   UNL     1      10.512   1.797  24.247  0.00  0.00    -0.239 NA
ENDROOT
TORSDOF 0
ENDMDL
MODEL 2
REMARK VINA RESULT:      -4.8      3.581      5.320
REMARK  Name = 
REMARK  1 active torsions:
REMARK  status: ('A' for Active; 'I' for Inactive)
REMARK    1  A    between atoms: C_1  and  C_2
REMARK                            x       y       z     vdW  Elec       q    Type
REMARK                         _______ _______ _______ _____ _____    ______ ____
ROOT
ATOM      1  C   UNL     1       9.176  -5.315  25.254  0.00  0.00    +0.086 C 
ATOM      2  C   UNL     1       9.193  -3.825  25.077  0.00  0.00    +0.107 A 
ATOM      3  N   UNL     1       8.639  -3.105  26.092  0.00  0.00    -0.311 N 
ATOM      4  H   UNL     1       8.229  -3.555  26.896  0.00  0.00    +0.170 HD
ATOM      5  C   UNL     1       8.561  -1.747  26.054  0.00  0.00    +0.256 A 
ATOM      6  O   UNL     1       8.011  -1.108  26.945  0.00  0.00    -0.267 OA
ATOM      7  C   UNL     1       9.168  -1.098  24.868  0.00  0.00    +0.048 A 
ATOM      8  C   UNL     1       9.122   0.398  24.871  0.00  0.00    +0.111 C 
ATOM      9  S   UNL     1      10.250   1.171  23.677  0.00  0.00    -0.155 S 
ATOM     10  C   UNL     1       9.943   0.049  22.289  0.00  0.00    +0.075 C 
ATOM     11  C   UNL     1      10.318  -1.382  22.657  0.00  0.00    +0.066 C 
ATOM     12  C   UNL     1       9.692  -1.911  23.931  0.00  0.00    +0.053 A 
ATOM     13  N   UNL     1       9.704  -3.285  24.021  0.00  0.00    -0.239 NA
ENDROOT
TORSDOF 0
ENDMDL
MODEL 3
REMARK VINA RESULT:      -4.7      7.050      8.232
REMARK  Name = 
REMARK  1 active torsions:
REMARK  status: ('A' for Active; 'I' for Inactive)
REMARK    1  A    between atoms: C_1  and  C_2
REMARK                            x       y       z     vdW  Elec       q    Type
REMARK                         _______ _______ _______ _____ _____    ______ ____
ROOT
ATOM      1  C   UNL     1       6.342  -5.668  21.136  0.00  0.00    +0.086 C 
ATOM      2  C   UNL     1       6.058  -5.766  22.606  0.00  0.00    +0.107 A 
ATOM      3  N   UNL     1       5.124  -6.692  22.965  0.00  0.00    -0.311 N 
ATOM      4  H   UNL     1       4.647  -7.254  22.278  0.00  0.00    +0.170 HD
ATOM      5  C   UNL     1       4.748  -6.871  24.260  0.00  0.00    +0.256 A 
ATOM      6  O   UNL     1       3.867  -7.666  24.571  0.00  0.00    -0.267 OA
ATOM      7  C   UNL     1       5.457  -6.038  25.261  0.00  0.00    +0.048 A 
ATOM      8  C   UNL     1       5.067  -6.288  26.684  0.00  0.00    +0.111 C 
ATOM      9  S   UNL     1       6.241  -5.618  27.895  0.00  0.00    -0.155 S 
ATOM     10  C   UNL     1       6.545  -4.027  27.087  0.00  0.00    +0.075 C 
ATOM     11  C   UNL     1       7.139  -4.230  25.698  0.00  0.00    +0.066 C 
ATOM     12  C   UNL     1       6.364  -5.161  24.790  0.00  0.00    +0.053 A 
ATOM     13  N   UNL     1       6.670  -5.010  23.455  0.00  0.00    -0.239 NA
ENDROOT
TORSDOF 0
ENDMDL
MODEL 4
REMARK VINA RESULT:      -4.7      2.074      2.633
REMARK  Name = 
REMARK  1 active torsions:
REMARK  status: ('A' for Active; 'I' for Inactive)
REMARK    1  A    between atoms: C_1  and  C_2
REMARK                            x       y       z     vdW  Elec       q    Type
REMARK                         _______ _______ _______ _____ _____    ______ ____
ROOT
ATOM      1  C   UNL     1       9.821   2.341  24.123  0.00  0.00    +0.086 C 
ATOM      2  C   UNL     1       9.649   0.857  24.262  0.00  0.00    +0.107 A 
ATOM      3  N   UNL     1      10.225   0.104  23.284  0.00  0.00    -0.311 N 
ATOM      4  H   UNL     1      10.715   0.527  22.511  0.00  0.00    +0.170 HD
ATOM      5  C   UNL     1      10.127  -1.253  23.267  0.00  0.00    +0.256 A 
ATOM      6  O   UNL     1      10.599  -1.922  22.354  0.00  0.00    -0.267 OA
ATOM      7  C   UNL     1       9.405  -1.862  24.409  0.00  0.00    +0.048 A 
ATOM      8  C   UNL     1       9.355  -3.359  24.401  0.00  0.00    +0.111 C 
ATOM      9  S   UNL     1       8.890  -4.086  25.998  0.00  0.00    -0.155 S 
ATOM     10  C   UNL     1       7.562  -2.930  26.417  0.00  0.00    +0.075 C 
ATOM     11  C   UNL     1       8.096  -1.506  26.518  0.00  0.00    +0.066 C 
ATOM     12  C   UNL     1       8.882  -1.019  25.319  0.00  0.00    +0.053 A 
ATOM     13  N   UNL     1       8.992   0.353  25.252  0.00  0.00    -0.239 NA
ENDROOT
TORSDOF 0
ENDMDL
MODEL 5
REMARK VINA RESULT:      -4.7      3.993      5.222
REMARK  Name = 
REMARK  1 active torsions:
REMARK  status: ('A' for Active; 'I' for Inactive)
REMARK    1  A    between atoms: C_1  and  C_2
REMARK                            x       y       z     vdW  Elec       q    Type
REMARK                         _______ _______ _______ _____ _____    ______ ____
ROOT
ATOM      1  C   UNL     1      10.163  -0.736  22.275  0.00  0.00    +0.086 C 
ATOM      2  C   UNL     1       9.329  -1.884  22.765  0.00  0.00    +0.107 A 
ATOM      3  N   UNL     1       9.844  -2.577  23.818  0.00  0.00    -0.311 N 
ATOM      4  H   UNL     1      10.737  -2.340  24.221  0.00  0.00    +0.170 HD
ATOM      5  C   UNL     1       9.210  -3.658  24.348  0.00  0.00    +0.256 A 
ATOM      6  O   UNL     1       9.705  -4.313  25.260  0.00  0.00    -0.267 OA
ATOM      7  C   UNL     1       7.898  -3.997  23.746  0.00  0.00    +0.048 A 
ATOM      8  C   UNL     1       7.191  -5.155  24.379  0.00  0.00    +0.111 C 
ATOM      9  S   UNL     1       5.429  -5.261  23.953  0.00  0.00    -0.155 S 
ATOM     10  C   UNL     1       5.580  -4.877  22.191  0.00  0.00    +0.075 C 
ATOM     11  C   UNL     1       6.182  -3.491  21.989  0.00  0.00    +0.066 C 
ATOM     12  C   UNL     1       7.487  -3.237  22.714  0.00  0.00    +0.053 A 
ATOM     13  N   UNL     1       8.203  -2.175  22.205  0.00  0.00    -0.239 NA
ENDROOT
TORSDOF 0
ENDMDL
MODEL 6
REMARK VINA RESULT:      -4.6      4.430      6.247
REMARK  Name = 
REMARK  1 active torsions:
REMARK  status: ('A' for Active; 'I' for Inactive)
REMARK    1  A    between atoms: C_1  and  C_2
REMARK                            x       y       z     vdW  Elec       q    Type
REMARK                         _______ _______ _______ _____ _____    ______ ____
ROOT
ATOM      1  C   UNL     1       5.524  -5.704  24.925  0.00  0.00    +0.086 C 
ATOM      2  C   UNL     1       6.633  -4.769  24.539  0.00  0.00    +0.107 A 
ATOM      3  N   UNL     1       7.890  -5.181  24.866  0.00  0.00    -0.311 N 
ATOM      4  H   UNL     1       8.052  -6.049  25.352  0.00  0.00    +0.170 HD
ATOM      5  C   UNL     1       8.988  -4.423  24.601  0.00  0.00    +0.256 A 
ATOM      6  O   UNL     1      10.112  -4.773  24.948  0.00  0.00    -0.267 OA
ATOM      7  C   UNL     1       8.737  -3.149  23.885  0.00  0.00    +0.048 A 
ATOM      8  C   UNL     1       9.963  -2.356  23.555  0.00  0.00    +0.111 C 
ATOM      9  S   UNL     1       9.690  -1.069  22.304  0.00  0.00    -0.155 S 
ATOM     10  C   UNL     1       8.101  -0.460  22.922  0.00  0.00    +0.075 C 
ATOM     11  C   UNL     1       7.054  -1.567  22.909  0.00  0.00    +0.066 C 
ATOM     12  C   UNL     1       7.454  -2.849  23.609  0.00  0.00    +0.053 A 
ATOM     13  N   UNL     1       6.385  -3.653  23.940  0.00  0.00    -0.239 NA
ENDROOT
TORSDOF 0
ENDMDL
MODEL 7
REMARK VINA RESULT:      -4.6      6.318      7.893
REMARK  Name = 
REMARK  1 active torsions:
REMARK  status: ('A' for Active; 'I' for Inactive)
REMARK    1  A    between atoms: C_1  and  C_2
REMARK                            x       y       z     vdW  Elec       q    Type
REMARK                         _______ _______ _______ _____ _____    ______ ____
ROOT
ATOM      1  C   UNL     1       3.511  -7.468  24.908  0.00  0.00    +0.086 C 
ATOM      2  C   UNL     1       4.605  -6.594  24.369  0.00  0.00    +0.107 A 
ATOM      3  N   UNL     1       4.643  -6.468  23.013  0.00  0.00    -0.311 N 
ATOM      4  H   UNL     1       3.988  -6.952  22.419  0.00  0.00    +0.170 HD
ATOM      5  C   UNL     1       5.596  -5.728  22.384  0.00  0.00    +0.256 A 
ATOM      6  O   UNL     1       5.660  -5.664  21.160  0.00  0.00    -0.267 OA
ATOM      7  C   UNL     1       6.554  -5.022  23.268  0.00  0.00    +0.048 A 
ATOM      8  C   UNL     1       7.561  -4.170  22.560  0.00  0.00    +0.111 C 
ATOM      9  S   UNL     1       8.403  -2.978  23.639  0.00  0.00    -0.155 S 
ATOM     10  C   UNL     1       8.671  -4.075  25.054  0.00  0.00    +0.075 C 
ATOM     11  C   UNL     1       7.343  -4.579  25.607  0.00  0.00    +0.066 C 
ATOM     12  C   UNL     1       6.416  -5.216  24.593  0.00  0.00    +0.053 A 
ATOM     13  N   UNL     1       5.443  -6.011  25.159  0.00  0.00    -0.239 NA
ENDROOT
TORSDOF 0
ENDMDL
MODEL 8
REMARK VINA RESULT:      -4.6      2.126      2.905
REMARK  Name = 
REMARK  1 active torsions:
REMARK  status: ('A' for Active; 'I' for Inactive)
REMARK    1  A    between atoms: C_1  and  C_2
REMARK                            x       y       z     vdW  Elec       q    Type
REMARK                         _______ _______ _______ _____ _____    ______ ____
ROOT
ATOM      1  C   UNL     1       6.135   3.525  22.230  0.00  0.00    +0.086 C 
ATOM      2  C   UNL     1       7.120   2.398  22.333  0.00  0.00    +0.107 A 
ATOM      3  N   UNL     1       8.422   2.733  22.116  0.00  0.00    -0.311 N 
ATOM      4  H   UNL     1       8.693   3.676  21.882  0.00  0.00    +0.170 HD
ATOM      5  C   UNL     1       9.420   1.809  22.150  0.00  0.00    +0.256 A 
ATOM      6  O   UNL     1      10.583   2.106  21.898  0.00  0.00    -0.267 OA
ATOM      7  C   UNL     1       9.009   0.427  22.495  0.00  0.00    +0.048 A 
ATOM      8  C   UNL     1      10.128  -0.564  22.582  0.00  0.00    +0.111 C 
ATOM      9  S   UNL     1       9.682  -2.101  23.439  0.00  0.00    -0.155 S 
ATOM     10  C   UNL     1       8.047  -2.330  22.697  0.00  0.00    +0.075 C 
ATOM     11  C   UNL     1       7.135  -1.153  23.025  0.00  0.00    +0.066 C 
ATOM     12  C   UNL     1       7.694   0.215  22.695  0.00  0.00    +0.053 A 
ATOM     13  N   UNL     1       6.733   1.198  22.609  0.00  0.00    -0.239 NA
ENDROOT
TORSDOF 0
ENDMDL
MODEL 9
REMARK VINA RESULT:      -4.5      6.152      8.162
REMARK  Name = 
REMARK  1 active torsions:
REMARK  status: ('A' for Active; 'I' for Inactive)
REMARK    1  A    between atoms: C_1  and  C_2
REMARK                            x       y       z     vdW  Elec       q    Type
REMARK                         _______ _______ _______ _____ _____    ______ ____
ROOT
ATOM      1  C   UNL     1       3.838  -7.250  25.162  0.00  0.00    +0.086 C 
ATOM      2  C   UNL     1       5.050  -6.374  25.289  0.00  0.00    +0.107 A 
ATOM      3  N   UNL     1       5.717  -6.460  26.474  0.00  0.00    -0.311 N 
ATOM      4  H   UNL     1       5.397  -7.061  27.217  0.00  0.00    +0.170 HD
ATOM      5  C   UNL     1       6.817  -5.704  26.739  0.00  0.00    +0.256 A 
ATOM      6  O   UNL     1       7.380  -5.744  27.828  0.00  0.00    -0.267 OA
ATOM      7  C   UNL     1       7.276  -4.824  25.637  0.00  0.00    +0.048 A 
ATOM      8  C   UNL     1       8.519  -4.041  25.928  0.00  0.00    +0.111 C 
ATOM      9  S   UNL     1       9.312  -3.347  24.450  0.00  0.00    -0.155 S 
ATOM     10  C   UNL     1       7.811  -2.783  23.610  0.00  0.00    +0.075 C 
ATOM     11  C   UNL     1       6.881  -3.954  23.319  0.00  0.00    +0.066 C 
ATOM     12  C   UNL     1       6.541  -4.826  24.509  0.00  0.00    +0.053 A 
ATOM     13  N   UNL     1       5.414  -5.596  24.325  0.00  0.00    -0.239 NA
ENDROOT
TORSDOF 0
ENDMDL
