MODEL 1
REMARK VINA RESULT:      -6.5      0.000      0.000
REMARK  Name = 
REMARK  7 active torsions:
REMARK  status: ('A' for Active; 'I' for Inactive)
REMARK    1  A    between atoms: C_1  and  N_2
REMARK    2  A    between atoms: C_10  and  O_13
REMARK    3  A    between atoms: O_13  and  C_14
REMARK    4  A    between atoms: C_14  and  C_16
REMARK    5  A    between atoms: C_16  and  C_18
REMARK    6  A    between atoms: C_16  and  C_20
REMARK    7  A    between atoms: C_18  and  O_19
REMARK                            x       y       z     vdW  Elec       q    Type
REMARK                         _______ _______ _______ _____ _____    ______ ____
ROOT
ATOM      1  C   UNL     1       6.564  -3.495  22.088  0.00  0.00    +0.317 C 
ATOM      2  O   UNL     1       5.363  -3.272  22.000  0.00  0.00    -0.250 OA
ENDROOT
BRANCH   1   3
ATOM      3  O   UNL     1       7.528  -2.542  21.918  0.00  0.00    -0.461 OA
BRANCH   3   8
ATOM      4  C   UNL     1       8.669   0.467  25.318  0.00  0.00    +0.105 C 
ATOM      5  N   UNL     1       8.985   0.735  23.928  0.00  0.00    -0.299 NA
ATOM      6  C   UNL     1       9.847  -0.247  23.269  0.00  0.00    +0.060 C 
ATOM      7  C   UNL     1       9.256  -1.658  23.307  0.00  0.00    +0.063 C 
ATOM      8  C   UNL     1       7.734  -1.734  23.089  0.00  0.00    +0.179 C 
ATOM      9  C   UNL     1       6.962  -0.411  22.997  0.00  0.00    +0.063 C 
ATOM     10  C   UNL     1       9.886   0.303  21.841  0.00  0.00    +0.020 C 
ATOM     11  C   UNL     1       8.556   1.031  21.672  0.00  0.00    +0.020 C 
ATOM     12  C   UNL     1       7.842   0.847  23.016  0.00  0.00    +0.060 C 
ENDBRANCH   3   8
ENDBRANCH   1   3
BRANCH   1  13
ATOM     13  C   UNL     1       7.220  -4.823  22.438  0.00  0.00    +0.153 C 
BRANCH  13  14
ATOM     14  C   UNL     1       7.333  -5.028  23.945  0.00  0.00    -0.032 A 
ATOM     15  C   UNL     1       8.581  -5.039  24.587  0.00  0.00    +0.004 A 
ATOM     16  C   UNL     1       8.671  -5.205  25.969  0.00  0.00    +0.000 A 
ATOM     17  C   UNL     1       7.517  -5.370  26.729  0.00  0.00    +0.000 A 
ATOM     18  C   UNL     1       6.271  -5.385  26.105  0.00  0.00    +0.000 A 
ATOM     19  C   UNL     1       6.177  -5.217  24.721  0.00  0.00    +0.004 A 
ENDBRANCH  13  14
BRANCH  13  20
ATOM     20  C   UNL     1       6.485  -5.977  21.754  0.00  0.00    +0.175 C 
BRANCH  20  21
ATOM     21  O   UNL     1       5.994  -5.612  20.466  0.00  0.00    -0.394 OA
ATOM     22  H   UNL     1       5.717  -4.679  20.503  0.00  0.00    +0.209 HD
ENDBRANCH  20  21
ENDBRANCH  13  20
ENDBRANCH   1  13
TORSDOF 6
ENDMDL
MODEL 2
REMARK VINA RESULT:      -6.5      2.287      3.753
REMARK  Name = 
REMARK  7 active torsions:
REMARK  status: ('A' for Active; 'I' for Inactive)
REMARK    1  A    between atoms: C_1  and  N_2
REMARK    2  A    between atoms: C_10  and  O_13
REMARK    3  A    between atoms: O_13  and  C_14
REMARK    4  A    between atoms: C_14  and  C_16
REMARK    5  A    between atoms: C_16  and  C_18
REMARK    6  A    between atoms: C_16  and  C_20
REMARK    7  A    between atoms: C_18  and  O_19
REMARK                            x       y       z     vdW  Elec       q    Type
REMARK                         _______ _______ _______ _____ _____    ______ ____
ROOT
ATOM      1  C   UNL     1       9.446  -2.889  24.316  0.00  0.00    +0.317 C 
ATOM      2  O   UNL     1      10.462  -3.129  23.677  0.00  0.00    -0.250 OA
ENDROOT
BRANCH   1   3
ATOM      3  O   UNL     1       9.112  -1.646  24.774  0.00  0.00    -0.461 OA
BRANCH   3   8
ATOM      4  C   UNL     1      10.092   2.140  22.202  0.00  0.00    +0.105 C 
ATOM      5  N   UNL     1       9.019   2.141  23.177  0.00  0.00    -0.299 NA
ATOM      6  C   UNL     1       7.958   1.156  22.961  0.00  0.00    +0.060 C 
ATOM      7  C   UNL     1       8.495  -0.276  22.919  0.00  0.00    +0.063 C 
ATOM      8  C   UNL     1       9.607  -0.586  23.938  0.00  0.00    +0.179 C 
ATOM      9  C   UNL     1      10.148   0.580  24.776  0.00  0.00    +0.063 C 
ATOM     10  C   UNL     1       7.081   1.387  24.193  0.00  0.00    +0.020 C 
ATOM     11  C   UNL     1       8.045   1.890  25.263  0.00  0.00    +0.020 C 
ATOM     12  C   UNL     1       9.413   1.912  24.571  0.00  0.00    +0.060 C 
ENDBRANCH   3   8
ENDBRANCH   1   3
BRANCH   1  13
ATOM     13  C   UNL     1       8.351  -3.878  24.689  0.00  0.00    +0.153 C 
BRANCH  13  14
ATOM     14  C   UNL     1       7.573  -4.359  23.469  0.00  0.00    -0.032 A 
ATOM     15  C   UNL     1       6.731  -3.493  22.754  0.00  0.00    +0.004 A 
ATOM     16  C   UNL     1       6.041  -3.938  21.626  0.00  0.00    +0.000 A 
ATOM     17  C   UNL     1       6.175  -5.256  21.201  0.00  0.00    +0.000 A 
ATOM     18  C   UNL     1       6.988  -6.136  21.913  0.00  0.00    +0.000 A 
ATOM     19  C   UNL     1       7.682  -5.693  23.042  0.00  0.00    +0.004 A 
ENDBRANCH  13  14
BRANCH  13  20
ATOM     20  C   UNL     1       8.935  -5.041  25.495  0.00  0.00    +0.175 C 
BRANCH  20  21
ATOM     21  O   UNL     1      10.294  -5.303  25.151  0.00  0.00    -0.394 OA
ATOM     22  H   UNL     1      10.861  -4.854  25.804  0.00  0.00    +0.209 HD
ENDBRANCH  20  21
ENDBRANCH  13  20
ENDBRANCH   1  13
TORSDOF 6
ENDMDL
MODEL 3
REMARK VINA RESULT:      -6.5      2.610      6.355
REMARK  Name = 
REMARK  7 active torsions:
REMARK  status: ('A' for Active; 'I' for Inactive)
REMARK    1  A    between atoms: C_1  and  N_2
REMARK    2  A    between atoms: C_10  and  O_13
REMARK    3  A    between atoms: O_13  and  C_14
REMARK    4  A    between atoms: C_14  and  C_16
REMARK    5  A    between atoms: C_16  and  C_18
REMARK    6  A    between atoms: C_16  and  C_20
REMARK    7  A    between atoms: C_18  and  O_19
REMARK                            x       y       z     vdW  Elec       q    Type
REMARK                         _______ _______ _______ _____ _____    ______ ____
ROOT
ATOM      1  C   UNL     1       9.465  -2.490  24.295  0.00  0.00    +0.317 C 
ATOM      2  O   UNL     1      10.370  -3.126  23.770  0.00  0.00    -0.250 OA
ENDROOT
BRANCH   1   3
ATOM      3  O   UNL     1       8.175  -2.933  24.382  0.00  0.00    -0.461 OA
BRANCH   3   8
ATOM      4  C   UNL     1       6.200  -5.444  20.961  0.00  0.00    +0.105 C 
ATOM      5  N   UNL     1       5.471  -5.093  22.164  0.00  0.00    -0.299 NA
ATOM      6  C   UNL     1       6.041  -5.577  23.421  0.00  0.00    +0.060 C 
ATOM      7  C   UNL     1       7.476  -5.089  23.635  0.00  0.00    +0.063 C 
ATOM      8  C   UNL     1       7.740  -3.634  23.205  0.00  0.00    +0.179 C 
ATOM      9  C   UNL     1       6.605  -2.885  22.495  0.00  0.00    +0.063 C 
ATOM     10  C   UNL     1       5.084  -4.958  24.441  0.00  0.00    +0.020 C 
ATOM     11  C   UNL     1       4.578  -3.685  23.771  0.00  0.00    +0.020 C 
ATOM     12  C   UNL     1       5.282  -3.660  22.410  0.00  0.00    +0.060 C 
ENDBRANCH   3   8
ENDBRANCH   1   3
BRANCH   1  13
ATOM     13  C   UNL     1       9.583  -1.137  24.982  0.00  0.00    +0.153 C 
BRANCH  13  14
ATOM     14  C   UNL     1       9.783  -0.002  23.983  0.00  0.00    -0.032 A 
ATOM     15  C   UNL     1       9.372  -0.127  22.647  0.00  0.00    +0.004 A 
ATOM     16  C   UNL     1       9.541   0.925  21.747  0.00  0.00    +0.000 A 
ATOM     17  C   UNL     1      10.129   2.115  22.166  0.00  0.00    +0.000 A 
ATOM     18  C   UNL     1      10.564   2.247  23.483  0.00  0.00    +0.000 A 
ATOM     19  C   UNL     1      10.395   1.196  24.388  0.00  0.00    +0.004 A 
ENDBRANCH  13  14
BRANCH  13  20
ATOM     20  C   UNL     1       8.378  -0.895  25.894  0.00  0.00    +0.175 C 
BRANCH  20  21
ATOM     21  O   UNL     1       8.764  -0.382  27.167  0.00  0.00    -0.394 OA
ATOM     22  H   UNL     1       8.271   0.445  27.320  0.00  0.00    +0.209 HD
ENDBRANCH  20  21
ENDBRANCH  13  20
ENDBRANCH   1  13
TORSDOF 6
ENDMDL
MODEL 4
REMARK VINA RESULT:      -6.4      0.851      2.140
REMARK  Name = 
REMARK  7 active torsions:
REMARK  status: ('A' for Active; 'I' for Inactive)
REMARK    1  A    between atoms: C_1  and  N_2
REMARK    2  A    between atoms: C_10  and  O_13
REMARK    3  A    between atoms: O_13  and  C_14
REMARK    4  A    between atoms: C_14  and  C_16
REMARK    5  A    between atoms: C_16  and  C_18
REMARK    6  A    between atoms: C_16  and  C_20
REMARK    7  A    between atoms: C_18  and  O_19
REMARK                            x       y       z     vdW  Elec       q    Type
REMARK                         _______ _______ _______ _____ _____    ______ ____
ROOT
ATOM      1  C   UNL     1       6.424  -3.728  22.076  0.00  0.00    +0.317 C 
ATOM      2  O   UNL     1       5.675  -3.597  21.116  0.00  0.00    -0.250 OA
ENDROOT
BRANCH   1   3
ATOM      3  O   UNL     1       6.688  -2.734  22.975  0.00  0.00    -0.461 OA
BRANCH   3   8
ATOM      4  C   UNL     1       9.127   1.064  21.737  0.00  0.00    +0.105 C 
ATOM      5  N   UNL     1       9.356   0.393  23.002  0.00  0.00    -0.299 NA
ATOM      6  C   UNL     1       8.204   0.317  23.902  0.00  0.00    +0.060 C 
ATOM      7  C   UNL     1       7.008  -0.386  23.257  0.00  0.00    +0.063 C 
ATOM      8  C   UNL     1       7.360  -1.607  22.388  0.00  0.00    +0.179 C 
ATOM      9  C   UNL     1       8.846  -1.905  22.149  0.00  0.00    +0.063 C 
ATOM     10  C   UNL     1       8.781  -0.508  25.054  0.00  0.00    +0.020 C 
ATOM     11  C   UNL     1       9.850  -1.380  24.406  0.00  0.00    +0.020 C 
ATOM     12  C   UNL     1       9.813  -0.998  22.922  0.00  0.00    +0.060 C 
ENDBRANCH   3   8
ENDBRANCH   1   3
BRANCH   1  13
ATOM     13  C   UNL     1       7.160  -4.994  22.489  0.00  0.00    +0.153 C 
BRANCH  13  14
ATOM     14  C   UNL     1       7.385  -5.062  23.996  0.00  0.00    -0.032 A 
ATOM     15  C   UNL     1       6.321  -5.299  24.881  0.00  0.00    +0.004 A 
ATOM     16  C   UNL     1       6.541  -5.381  26.256  0.00  0.00    +0.000 A 
ATOM     17  C   UNL     1       7.825  -5.218  26.768  0.00  0.00    +0.000 A 
ATOM     18  C   UNL     1       8.889  -4.959  25.906  0.00  0.00    +0.000 A 
ATOM     19  C   UNL     1       8.672  -4.878  24.528  0.00  0.00    +0.004 A 
ENDBRANCH  13  14
BRANCH  13  20
ATOM     20  C   UNL     1       6.432  -6.231  21.960  0.00  0.00    +0.175 C 
BRANCH  20  21
ATOM     21  O   UNL     1       5.016  -6.068  21.976  0.00  0.00    -0.394 OA
ATOM     22  H   UNL     1       4.638  -6.656  21.296  0.00  0.00    +0.209 HD
ENDBRANCH  20  21
ENDBRANCH  13  20
ENDBRANCH   1  13
TORSDOF 6
ENDMDL
MODEL 5
REMARK VINA RESULT:      -6.3      2.269      3.407
REMARK  Name = 
REMARK  7 active torsions:
REMARK  status: ('A' for Active; 'I' for Inactive)
REMARK    1  A    between atoms: C_1  and  N_2
REMARK    2  A    between atoms: C_10  and  O_13
REMARK    3  A    between atoms: O_13  and  C_14
REMARK    4  A    between atoms: C_14  and  C_16
REMARK    5  A    between atoms: C_16  and  C_18
REMARK    6  A    between atoms: C_16  and  C_20
REMARK    7  A    between atoms: C_18  and  O_19
REMARK                            x       y       z     vdW  Elec       q    Type
REMARK                         _______ _______ _______ _____ _____    ______ ____
ROOT
ATOM      1  C   UNL     1       7.527  -3.136  26.158  0.00  0.00    +0.317 C 
ATOM      2  O   UNL     1       6.782  -2.514  26.906  0.00  0.00    -0.250 OA
ENDROOT
BRANCH   1   3
ATOM      3  O   UNL     1       8.640  -2.598  25.576  0.00  0.00    -0.461 OA
BRANCH   3   8
ATOM      4  C   UNL     1       8.411   1.561  23.441  0.00  0.00    +0.105 C 
ATOM      5  N   UNL     1       8.940   0.390  22.769  0.00  0.00    -0.299 NA
ATOM      6  C   UNL     1      10.103  -0.237  23.396  0.00  0.00    +0.060 C 
ATOM      7  C   UNL     1       9.826  -0.662  24.840  0.00  0.00    +0.063 C 
ATOM      8  C   UNL     1       8.430  -1.263  25.086  0.00  0.00    +0.179 C 
ATOM      9  C   UNL     1       7.433  -1.246  23.920  0.00  0.00    +0.063 C 
ATOM     10  C   UNL     1      10.315  -1.449  22.488  0.00  0.00    +0.020 C 
ATOM     11  C   UNL     1       8.925  -1.777  21.953  0.00  0.00    +0.020 C 
ATOM     12  C   UNL     1       8.008  -0.729  22.593  0.00  0.00    +0.060 C 
ENDBRANCH   3   8
ENDBRANCH   1   3
BRANCH   1  13
ATOM     13  C   UNL     1       7.407  -4.601  25.765  0.00  0.00    +0.153 C 
BRANCH  13  14
ATOM     14  C   UNL     1       6.873  -4.772  24.348  0.00  0.00    -0.032 A 
ATOM     15  C   UNL     1       7.697  -5.233  23.309  0.00  0.00    +0.004 A 
ATOM     16  C   UNL     1       7.192  -5.407  22.020  0.00  0.00    +0.000 A 
ATOM     17  C   UNL     1       5.859  -5.116  21.748  0.00  0.00    +0.000 A 
ATOM     18  C   UNL     1       5.033  -4.635  22.762  0.00  0.00    +0.000 A 
ATOM     19  C   UNL     1       5.534  -4.461  24.054  0.00  0.00    +0.004 A 
ENDBRANCH  13  14
BRANCH  13  20
ATOM     20  C   UNL     1       8.743  -5.318  25.968  0.00  0.00    +0.175 C 
BRANCH  20  21
ATOM     21  O   UNL     1       9.470  -4.795  27.078  0.00  0.00    -0.394 OA
ATOM     22  H   UNL     1      10.276  -4.369  26.735  0.00  0.00    +0.209 HD
ENDBRANCH  20  21
ENDBRANCH  13  20
ENDBRANCH   1  13
TORSDOF 6
ENDMDL
MODEL 6
REMARK VINA RESULT:      -6.3      2.148      3.406
REMARK  Name = 
REMARK  7 active torsions:
REMARK  status: ('A' for Active; 'I' for Inactive)
REMARK    1  A    between atoms: C_1  and  N_2
REMARK    2  A    between atoms: C_10  and  O_13
REMARK    3  A    between atoms: O_13  and  C_14
REMARK    4  A    between atoms: C_14  and  C_16
REMARK    5  A    between atoms: C_16  and  C_18
REMARK    6  A    between atoms: C_16  and  C_20
REMARK    7  A    between atoms: C_18  and  O_19
REMARK                            x       y       z     vdW  Elec       q    Type
REMARK                         _______ _______ _______ _____ _____    ______ ____
ROOT
ATOM      1  C   UNL     1       9.297  -2.749  23.851  0.00  0.00    +0.317 C 
ATOM      2  O   UNL     1      10.344  -3.332  24.104  0.00  0.00    -0.250 OA
ENDROOT
BRANCH   1   3
ATOM      3  O   UNL     1       9.232  -1.566  23.170  0.00  0.00    -0.461 OA
BRANCH   3   8
ATOM      4  C   UNL     1       7.979   2.392  25.332  0.00  0.00    +0.105 C 
ATOM      5  N   UNL     1       8.590   2.405  24.017  0.00  0.00    -0.299 NA
ATOM      6  C   UNL     1       9.924   1.812  23.926  0.00  0.00    +0.060 C 
ATOM      7  C   UNL     1       9.947   0.355  24.392  0.00  0.00    +0.063 C 
ATOM      8  C   UNL     1       8.727  -0.484  23.969  0.00  0.00    +0.179 C 
ATOM      9  C   UNL     1       7.575   0.244  23.261  0.00  0.00    +0.063 C 
ATOM     10  C   UNL     1      10.199   1.922  22.425  0.00  0.00    +0.020 C 
ATOM     11  C   UNL     1       8.819   1.865  21.777  0.00  0.00    +0.020 C 
ATOM     12  C   UNL     1       7.846   1.723  22.953  0.00  0.00    +0.060 C 
ENDBRANCH   3   8
ENDBRANCH   1   3
BRANCH   1  13
ATOM     13  C   UNL     1       7.890  -3.220  24.187  0.00  0.00    +0.153 C 
BRANCH  13  14
ATOM     14  C   UNL     1       7.292  -4.077  23.077  0.00  0.00    -0.032 A 
ATOM     15  C   UNL     1       7.557  -5.453  22.996  0.00  0.00    +0.004 A 
ATOM     16  C   UNL     1       6.987  -6.232  21.989  0.00  0.00    +0.000 A 
ATOM     17  C   UNL     1       6.150  -5.647  21.044  0.00  0.00    +0.000 A 
ATOM     18  C   UNL     1       5.893  -4.278  21.096  0.00  0.00    +0.000 A 
ATOM     19  C   UNL     1       6.462  -3.495  22.105  0.00  0.00    +0.004 A 
ENDBRANCH  13  14
BRANCH  13  20
ATOM     20  C   UNL     1       7.876  -3.936  25.539  0.00  0.00    +0.175 C 
BRANCH  20  21
ATOM     21  O   UNL     1       8.660  -3.254  26.516  0.00  0.00    -0.394 OA
ATOM     22  H   UNL     1       9.332  -2.726  26.047  0.00  0.00    +0.209 HD
ENDBRANCH  20  21
ENDBRANCH  13  20
ENDBRANCH   1  13
TORSDOF 6
ENDMDL
MODEL 7
REMARK VINA RESULT:      -6.0      2.129      3.606
REMARK  Name = 
REMARK  7 active torsions:
REMARK  status: ('A' for Active; 'I' for Inactive)
REMARK    1  A    between atoms: C_1  and  N_2
REMARK    2  A    between atoms: C_10  and  O_13
REMARK    3  A    between atoms: O_13  and  C_14
REMARK    4  A    between atoms: C_14  and  C_16
REMARK    5  A    between atoms: C_16  and  C_18
REMARK    6  A    between atoms: C_16  and  C_20
REMARK    7  A    between atoms: C_18  and  O_19
REMARK                            x       y       z     vdW  Elec       q    Type
REMARK                         _______ _______ _______ _____ _____    ______ ____
ROOT
ATOM      1  C   UNL     1       8.695  -3.688  25.105  0.00  0.00    +0.317 C 
ATOM      2  O   UNL     1       9.480  -4.497  24.626  0.00  0.00    -0.250 OA
ENDROOT
BRANCH   1   3
ATOM      3  O   UNL     1       8.928  -2.343  25.159  0.00  0.00    -0.461 OA
BRANCH   3   8
ATOM      4  C   UNL     1       9.065   0.303  21.301  0.00  0.00    +0.105 C 
ATOM      5  N   UNL     1       9.397   0.843  22.604  0.00  0.00    -0.299 NA
ATOM      6  C   UNL     1       8.339   0.775  23.612  0.00  0.00    +0.060 C 
ATOM      7  C   UNL     1       7.857  -0.656  23.854  0.00  0.00    +0.063 C 
ATOM      8  C   UNL     1       8.965  -1.725  23.862  0.00  0.00    +0.179 C 
ATOM      9  C   UNL     1      10.387  -1.277  23.497  0.00  0.00    +0.063 C 
ATOM     10  C   UNL     1       9.059   1.337  24.840  0.00  0.00    +0.020 C 
ATOM     11  C   UNL     1      10.526   0.979  24.621  0.00  0.00    +0.020 C 
ATOM     12  C   UNL     1      10.547   0.235  23.282  0.00  0.00    +0.060 C 
ENDBRANCH   3   8
ENDBRANCH   1   3
BRANCH   1  13
ATOM     13  C   UNL     1       7.319  -3.988  25.682  0.00  0.00    +0.153 C 
BRANCH  13  14
ATOM     14  C   UNL     1       6.395  -4.633  24.656  0.00  0.00    -0.032 A 
ATOM     15  C   UNL     1       6.317  -4.150  23.340  0.00  0.00    +0.004 A 
ATOM     16  C   UNL     1       5.483  -4.761  22.403  0.00  0.00    +0.000 A 
ATOM     17  C   UNL     1       4.710  -5.858  22.768  0.00  0.00    +0.000 A 
ATOM     18  C   UNL     1       4.757  -6.337  24.076  0.00  0.00    +0.000 A 
ATOM     19  C   UNL     1       5.592  -5.728  25.017  0.00  0.00    +0.004 A 
ENDBRANCH  13  14
BRANCH  13  20
ATOM     20  C   UNL     1       7.447  -4.832  26.952  0.00  0.00    +0.175 C 
BRANCH  20  21
ATOM     21  O   UNL     1       8.418  -5.867  26.814  0.00  0.00    -0.394 OA
ATOM     22  H   UNL     1       8.403  -6.171  25.888  0.00  0.00    +0.209 HD
ENDBRANCH  20  21
ENDBRANCH  13  20
ENDBRANCH   1  13
TORSDOF 6
ENDMDL
MODEL 8
REMARK VINA RESULT:      -6.0      2.480      6.394
REMARK  Name = 
REMARK  7 active torsions:
REMARK  status: ('A' for Active; 'I' for Inactive)
REMARK    1  A    between atoms: C_1  and  N_2
REMARK    2  A    between atoms: C_10  and  O_13
REMARK    3  A    between atoms: O_13  and  C_14
REMARK    4  A    between atoms: C_14  and  C_16
REMARK    5  A    between atoms: C_16  and  C_18
REMARK    6  A    between atoms: C_16  and  C_20
REMARK    7  A    between atoms: C_18  and  O_19
REMARK                            x       y       z     vdW  Elec       q    Type
REMARK                         _______ _______ _______ _____ _____    ______ ____
ROOT
ATOM      1  C   UNL     1       8.783  -1.226  23.635  0.00  0.00    +0.317 C 
ATOM      2  O   UNL     1       9.809  -1.540  24.226  0.00  0.00    -0.250 OA
ENDROOT
BRANCH   1   3
ATOM      3  O   UNL     1       7.576  -1.835  23.833  0.00  0.00    -0.461 OA
BRANCH   3   8
ATOM      4  C   UNL     1       6.367  -5.547  21.251  0.00  0.00    +0.105 C 
ATOM      5  N   UNL     1       5.794  -5.315  22.563  0.00  0.00    -0.299 NA
ATOM      6  C   UNL     1       6.744  -5.262  23.674  0.00  0.00    +0.060 C 
ATOM      7  C   UNL     1       7.811  -4.183  23.478  0.00  0.00    +0.063 C 
ATOM      8  C   UNL     1       7.299  -2.864  22.869  0.00  0.00    +0.179 C 
ATOM      9  C   UNL     1       5.837  -2.816  22.404  0.00  0.00    +0.063 C 
ATOM     10  C   UNL     1       5.818  -4.924  24.844  0.00  0.00    +0.020 C 
ATOM     11  C   UNL     1       4.673  -4.139  24.212  0.00  0.00    +0.020 C 
ATOM     12  C   UNL     1       5.022  -4.078  22.722  0.00  0.00    +0.060 C 
ENDBRANCH   3   8
ENDBRANCH   1   3
BRANCH   1  13
ATOM     13  C   UNL     1       8.624  -0.102  22.621  0.00  0.00    +0.153 C 
BRANCH  13  14
ATOM     14  C   UNL     1       8.902   1.266  23.234  0.00  0.00    -0.032 A 
ATOM     15  C   UNL     1       8.067   1.804  24.226  0.00  0.00    +0.004 A 
ATOM     16  C   UNL     1       8.343   3.047  24.795  0.00  0.00    +0.000 A 
ATOM     17  C   UNL     1       9.452   3.775  24.377  0.00  0.00    +0.000 A 
ATOM     18  C   UNL     1      10.280   3.267  23.377  0.00  0.00    +0.000 A 
ATOM     19  C   UNL     1      10.007   2.021  22.806  0.00  0.00    +0.004 A 
ENDBRANCH  13  14
BRANCH  13  20
ATOM     20  C   UNL     1       9.492  -0.369  21.390  0.00  0.00    +0.175 C 
BRANCH  20  21
ATOM     21  O   UNL     1      10.245  -1.573  21.515  0.00  0.00    -0.394 OA
ATOM     22  H   UNL     1      11.191  -1.336  21.534  0.00  0.00    +0.209 HD
ENDBRANCH  20  21
ENDBRANCH  13  20
ENDBRANCH   1  13
TORSDOF 6
ENDMDL
MODEL 9
REMARK VINA RESULT:      -6.0      1.863      2.777
REMARK  Name = 
REMARK  7 active torsions:
REMARK  status: ('A' for Active; 'I' for Inactive)
REMARK    1  A    between atoms: C_1  and  N_2
REMARK    2  A    between atoms: C_10  and  O_13
REMARK    3  A    between atoms: O_13  and  C_14
REMARK    4  A    between atoms: C_14  and  C_16
REMARK    5  A    between atoms: C_16  and  C_18
REMARK    6  A    between atoms: C_16  and  C_20
REMARK    7  A    between atoms: C_18  and  O_19
REMARK                            x       y       z     vdW  Elec       q    Type
REMARK                         _______ _______ _______ _____ _____    ______ ____
ROOT
ATOM      1  C   UNL     1       8.505  -3.520  23.935  0.00  0.00    +0.317 C 
ATOM      2  O   UNL     1       7.985  -4.148  23.021  0.00  0.00    -0.250 OA
ENDROOT
BRANCH   1   3
ATOM      3  O   UNL     1       9.315  -2.436  23.748  0.00  0.00    -0.461 OA
BRANCH   3   8
ATOM      4  C   UNL     1       8.026   1.814  25.225  0.00  0.00    +0.105 C 
ATOM      5  N   UNL     1       8.594   1.608  23.908  0.00  0.00    -0.299 NA
ATOM      6  C   UNL     1       9.941   1.036  23.875  0.00  0.00    +0.060 C 
ATOM      7  C   UNL     1      10.016  -0.315  24.588  0.00  0.00    +0.063 C 
ATOM      8  C   UNL     1       8.806  -1.240  24.362  0.00  0.00    +0.179 C 
ATOM      9  C   UNL     1       7.615  -0.673  23.579  0.00  0.00    +0.063 C 
ATOM     10  C   UNL     1      10.165   0.886  22.370  0.00  0.00    +0.020 C 
ATOM     11  C   UNL     1       8.768   0.686  21.791  0.00  0.00    +0.020 C 
ATOM     12  C   UNL     1       7.836   0.734  23.006  0.00  0.00    +0.060 C 
ENDBRANCH   3   8
ENDBRANCH   1   3
BRANCH   1  13
ATOM     13  C   UNL     1       8.331  -3.773  25.426  0.00  0.00    +0.153 C 
BRANCH  13  14
ATOM     14  C   UNL     1       6.919  -4.234  25.769  0.00  0.00    -0.032 A 
ATOM     15  C   UNL     1       5.834  -3.345  25.736  0.00  0.00    +0.004 A 
ATOM     16  C   UNL     1       4.543  -3.782  26.031  0.00  0.00    +0.000 A 
ATOM     17  C   UNL     1       4.317  -5.113  26.370  0.00  0.00    +0.000 A 
ATOM     18  C   UNL     1       5.386  -6.005  26.430  0.00  0.00    +0.000 A 
ATOM     19  C   UNL     1       6.681  -5.570  26.134  0.00  0.00    +0.004 A 
ENDBRANCH  13  14
BRANCH  13  20
ATOM     20  C   UNL     1       9.395  -4.753  25.927  0.00  0.00    +0.175 C 
BRANCH  20  21
ATOM     21  O   UNL     1      10.267  -5.179  24.882  0.00  0.00    -0.394 OA
ATOM     22  H   UNL     1      10.839  -4.427  24.643  0.00  0.00    +0.209 HD
ENDBRANCH  20  21
ENDBRANCH  13  20
ENDBRANCH   1  13
TORSDOF 6
ENDMDL
