MODEL 1
REMARK VINA RESULT:      -6.9      0.000      0.000
REMARK  Name = 
REMARK  6 active torsions:
REMARK  status: ('A' for Active; 'I' for Inactive)
REMARK    1  A    between atoms: C_15  and  C_20
REMARK    2  A    between atoms: N_18  and  C_19
REMARK    3  A    between atoms: N_22  and  CA_23
REMARK    4  A    between atoms: CA_23  and  CB_25
REMARK    5  A    between atoms: CA_23  and  C_26
REMARK    6  A    between atoms: C_26  and  O_27
REMARK                            x       y       z     vdW  Elec       q    Type
REMARK                         _______ _______ _______ _____ _____    ______ ____
ROOT
ATOM      1  C   UNK A   0       8.952   0.713  24.417  0.00  0.00    +0.091 C 
ATOM      2  N   UNK A   0      10.240   1.442  24.519  0.00  0.00    -0.297 NA
ATOM      3  C   UNK A   0      11.400   0.566  24.714  0.00  0.00    +0.105 C 
ATOM      4  C   UNK A   0      10.368   2.319  23.324  0.00  0.00    +0.101 C 
ATOM      5  C   UNK A   0       9.593   1.879  22.032  0.00  0.00    +0.112 C 
ATOM      6  C   UNK A   0       9.330   0.382  22.000  0.00  0.00    -0.007 C 
ATOM      7  C   UNK A   0       8.922  -0.200  23.150  0.00  0.00    -0.025 C 
ATOM      8  C   UNK A   0       8.088  -1.421  23.166  0.00  0.00    -0.011 A 
ATOM      9  C   UNK A   0       7.151  -1.398  24.208  0.00  0.00    +0.010 A 
ATOM     10  C   UNK A   0       6.003  -2.168  24.176  0.00  0.00    +0.047 A 
ATOM     11  C   UNK A   0       5.817  -3.154  23.209  0.00  0.00    +0.026 A 
ATOM     12  C   UNK A   0       6.849  -3.312  22.264  0.00  0.00    +0.003 A 
ATOM     13  N   UNK A   0       5.205  -1.677  25.190  0.00  0.00    -0.360 N 
ATOM     14  H   UNK A   0       4.243  -1.948  25.344  0.00  0.00    +0.165 HD
ATOM     15  C   UNK A   0       5.879  -0.722  25.920  0.00  0.00    +0.087 A 
ATOM     16  C   UNK A   0       7.140  -0.623  25.390  0.00  0.00    -0.020 A 
ATOM     17  C   UNK A   0       7.952  -2.439  22.216  0.00  0.00    +0.009 A 
ATOM     18  C   UNK A   0       8.365   0.155  25.739  0.00  0.00    +0.061 C 
ENDROOT
BRANCH   5  19
ATOM     19  C   UNK A   0       8.198   2.600  21.939  0.00  0.00    +0.221 C 
ATOM     20  N   ALA A   1       8.150   3.867  22.491  0.00  0.00    -0.310 N 
ATOM     21  H   ALA A   1       9.024   4.258  22.815  0.00  0.00    +0.149 HD
ATOM     22  O   UNK A   0       7.207   2.089  21.423  0.00  0.00    -0.275 OA
BRANCH  20  23
ATOM     23  CA  ALA A   1       7.094   4.861  22.221  0.00  0.00    +0.095 C 
ATOM     24  CB  ALA A   1       5.946   4.760  23.222  0.00  0.00    +0.030 C 
BRANCH  23  25
ATOM     25  C   ALA A   1       7.592   6.310  22.091  0.00  0.00    +0.177 C 
BRANCH  25  26
ATOM     26  O   ALA A   1       6.857   6.992  21.078  0.00  0.00    -0.393 OA
ATOM     27  H   ALA A   1       7.338   7.831  20.948  0.00  0.00    +0.209 HD
ENDBRANCH  25  26
ENDBRANCH  23  25
ENDBRANCH  20  23
ENDBRANCH   5  19
TORSDOF 4
ENDMDL
MODEL 2
REMARK VINA RESULT:      -6.7      2.626      4.771
REMARK  Name = 
REMARK  6 active torsions:
REMARK  status: ('A' for Active; 'I' for Inactive)
REMARK    1  A    between atoms: C_15  and  C_20
REMARK    2  A    between atoms: N_18  and  C_19
REMARK    3  A    between atoms: N_22  and  CA_23
REMARK    4  A    between atoms: CA_23  and  CB_25
REMARK    5  A    between atoms: CA_23  and  C_26
REMARK    6  A    between atoms: C_26  and  O_27
REMARK                            x       y       z     vdW  Elec       q    Type
REMARK                         _______ _______ _______ _____ _____    ______ ____
ROOT
ATOM      1  C   UNK A   0       5.711  -1.637  24.915  0.00  0.00    +0.091 C 
ATOM      2  N   UNK A   0       4.814  -0.620  25.516  0.00  0.00    -0.297 NA
ATOM      3  C   UNK A   0       4.234  -1.028  26.800  0.00  0.00    +0.105 C 
ATOM      4  C   UNK A   0       5.563   0.663  25.598  0.00  0.00    +0.101 C 
ATOM      5  C   UNK A   0       7.128   0.569  25.678  0.00  0.00    +0.112 C 
ATOM      6  C   UNK A   0       7.597  -0.761  26.246  0.00  0.00    -0.007 C 
ATOM      7  C   UNK A   0       6.968  -1.875  25.811  0.00  0.00    -0.025 C 
ATOM      8  C   UNK A   0       7.635  -3.195  25.774  0.00  0.00    -0.011 A 
ATOM      9  C   UNK A   0       7.244  -3.944  24.655  0.00  0.00    +0.010 A 
ATOM     10  C   UNK A   0       8.019  -4.977  24.160  0.00  0.00    +0.047 A 
ATOM     11  C   UNK A   0       9.122  -5.458  24.863  0.00  0.00    +0.026 A 
ATOM     12  C   UNK A   0       9.410  -4.830  26.089  0.00  0.00    +0.003 A 
ATOM     13  N   UNK A   0       7.485  -5.274  22.922  0.00  0.00    -0.360 N 
ATOM     14  H   UNK A   0       7.907  -5.902  22.252  0.00  0.00    +0.165 HD
ATOM     15  C   UNK A   0       6.335  -4.547  22.702  0.00  0.00    +0.087 A 
ATOM     16  C   UNK A   0       6.107  -3.800  23.828  0.00  0.00    -0.020 A 
ATOM     17  C   UNK A   0       8.704  -3.693  26.525  0.00  0.00    +0.009 A 
ATOM     18  C   UNK A   0       5.026  -2.867  24.266  0.00  0.00    +0.061 C 
ENDROOT
BRANCH   5  19
ATOM     19  C   UNK A   0       7.775   0.724  24.253  0.00  0.00    +0.221 C 
ATOM     20  N   ALA A   1       9.134   0.473  24.192  0.00  0.00    -0.310 N 
ATOM     21  H   ALA A   1       9.572   0.122  25.031  0.00  0.00    +0.149 HD
ATOM     22  O   UNK A   0       7.138   1.051  23.254  0.00  0.00    -0.275 OA
BRANCH  20  23
ATOM     23  CA  ALA A   1       9.883   0.208  22.949  0.00  0.00    +0.095 C 
ATOM     24  CB  ALA A   1       9.400  -1.060  22.250  0.00  0.00    +0.030 C 
BRANCH  23  25
ATOM     25  C   ALA A   1       9.945   1.393  21.970  0.00  0.00    +0.177 C 
BRANCH  25  26
ATOM     26  O   ALA A   1       8.941   1.255  20.969  0.00  0.00    -0.393 OA
ATOM     27  H   ALA A   1       8.220   0.766  21.409  0.00  0.00    +0.209 HD
ENDBRANCH  25  26
ENDBRANCH  23  25
ENDBRANCH  20  23
ENDBRANCH   5  19
TORSDOF 4
ENDMDL
MODEL 3
REMARK VINA RESULT:      -6.5      2.884      6.801
REMARK  Name = 
REMARK  6 active torsions:
REMARK  status: ('A' for Active; 'I' for Inactive)
REMARK    1  A    between atoms: C_15  and  C_20
REMARK    2  A    between atoms: N_18  and  C_19
REMARK    3  A    between atoms: N_22  and  CA_23
REMARK    4  A    between atoms: CA_23  and  CB_25
REMARK    5  A    between atoms: CA_23  and  C_26
REMARK    6  A    between atoms: C_26  and  O_27
REMARK                            x       y       z     vdW  Elec       q    Type
REMARK                         _______ _______ _______ _____ _____    ______ ____
ROOT
ATOM      1  C   UNK A   0       8.398  -0.877  24.719  0.00  0.00    +0.091 C 
ATOM      2  N   UNK A   0       8.564  -1.706  25.938  0.00  0.00    -0.297 NA
ATOM      3  C   UNK A   0       8.684  -0.923  27.173  0.00  0.00    +0.105 C 
ATOM      4  C   UNK A   0       7.449  -2.691  25.980  0.00  0.00    +0.101 C 
ATOM      5  C   UNK A   0       6.124  -2.297  25.238  0.00  0.00    +0.112 C 
ATOM      6  C   UNK A   0       5.961  -0.791  25.109  0.00  0.00    -0.007 C 
ATOM      7  C   UNK A   0       7.056  -0.078  24.762  0.00  0.00    -0.025 C 
ATOM      8  C   UNK A   0       6.965   1.210  24.040  0.00  0.00    -0.011 A 
ATOM      9  C   UNK A   0       8.005   1.360  23.112  0.00  0.00    +0.010 A 
ATOM     10  C   UNK A   0       7.906   2.224  22.037  0.00  0.00    +0.047 A 
ATOM     11  C   UNK A   0       6.856   3.136  21.933  0.00  0.00    +0.026 A 
ATOM     12  C   UNK A   0       5.903   3.119  22.968  0.00  0.00    +0.003 A 
ATOM     13  N   UNK A   0       8.957   1.895  21.205  0.00  0.00    -0.360 N 
ATOM     14  H   UNK A   0       9.086   2.263  20.272  0.00  0.00    +0.165 HD
ATOM     15  C   UNK A   0       9.768   0.950  21.797  0.00  0.00    +0.087 A 
ATOM     16  C   UNK A   0       9.250   0.694  23.040  0.00  0.00    -0.020 A 
ATOM     17  C   UNK A   0       5.931   2.150  23.988  0.00  0.00    +0.009 A 
ATOM     18  C   UNK A   0       9.666  -0.157  24.193  0.00  0.00    +0.061 C 
ENDROOT
BRANCH   5  19
ATOM     19  C   UNK A   0       6.092  -2.897  23.784  0.00  0.00    +0.221 C 
ATOM     20  N   ALA A   1       6.328  -4.257  23.701  0.00  0.00    -0.310 N 
ATOM     21  H   ALA A   1       6.404  -4.762  24.572  0.00  0.00    +0.149 HD
ATOM     22  O   UNK A   0       5.881  -2.220  22.779  0.00  0.00    -0.275 OA
BRANCH  20  23
ATOM     23  CA  ALA A   1       6.008  -5.094  22.530  0.00  0.00    +0.095 C 
ATOM     24  CB  ALA A   1       7.194  -5.955  22.101  0.00  0.00    +0.030 C 
BRANCH  23  25
ATOM     25  C   ALA A   1       4.731  -5.939  22.673  0.00  0.00    +0.177 C 
BRANCH  25  26
ATOM     26  O   ALA A   1       4.993  -7.091  23.471  0.00  0.00    -0.393 OA
ATOM     27  H   ALA A   1       4.111  -7.462  23.663  0.00  0.00    +0.209 HD
ENDBRANCH  25  26
ENDBRANCH  23  25
ENDBRANCH  20  23
ENDBRANCH   5  19
TORSDOF 4
ENDMDL
MODEL 4
REMARK VINA RESULT:      -6.5      2.689      4.326
REMARK  Name = 
REMARK  6 active torsions:
REMARK  status: ('A' for Active; 'I' for Inactive)
REMARK    1  A    between atoms: C_15  and  C_20
REMARK    2  A    between atoms: N_18  and  C_19
REMARK    3  A    between atoms: N_22  and  CA_23
REMARK    4  A    between atoms: CA_23  and  CB_25
REMARK    5  A    between atoms: CA_23  and  C_26
REMARK    6  A    between atoms: C_26  and  O_27
REMARK                            x       y       z     vdW  Elec       q    Type
REMARK                         _______ _______ _______ _____ _____    ______ ____
ROOT
ATOM      1  C   UNK A   0       7.650  -3.445  25.353  0.00  0.00    +0.091 C 
ATOM      2  N   UNK A   0       9.109  -3.694  25.256  0.00  0.00    -0.297 NA
ATOM      3  C   UNK A   0       9.465  -5.117  25.237  0.00  0.00    +0.105 C 
ATOM      4  C   UNK A   0       9.626  -2.948  24.077  0.00  0.00    +0.101 C 
ATOM      5  C   UNK A   0       8.607  -2.649  22.923  0.00  0.00    +0.112 C 
ATOM      6  C   UNK A   0       7.454  -3.641  22.900  0.00  0.00    -0.007 C 
ATOM      7  C   UNK A   0       6.905  -3.978  24.088  0.00  0.00    -0.025 C 
ATOM      8  C   UNK A   0       5.495  -4.407  24.214  0.00  0.00    -0.011 A 
ATOM      9  C   UNK A   0       4.911  -3.935  25.397  0.00  0.00    +0.010 A 
ATOM     10  C   UNK A   0       3.541  -3.814  25.539  0.00  0.00    +0.047 A 
ATOM     11  C   UNK A   0       2.664  -4.343  24.593  0.00  0.00    +0.026 A 
ATOM     12  C   UNK A   0       3.247  -4.991  23.487  0.00  0.00    +0.003 A 
ATOM     13  N   UNK A   0       3.356  -3.063  26.682  0.00  0.00    -0.360 N 
ATOM     14  H   UNK A   0       2.466  -2.694  26.987  0.00  0.00    +0.165 HD
ATOM     15  C   UNK A   0       4.560  -2.831  27.311  0.00  0.00    +0.087 A 
ATOM     16  C   UNK A   0       5.528  -3.474  26.582  0.00  0.00    -0.020 A 
ATOM     17  C   UNK A   0       4.638  -4.994  23.277  0.00  0.00    +0.009 A 
ATOM     18  C   UNK A   0       6.999  -3.675  26.741  0.00  0.00    +0.061 C 
ENDROOT
BRANCH   5  19
ATOM     19  C   UNK A   0       7.984  -1.212  23.078  0.00  0.00    +0.221 C 
ATOM     20  N   ALA A   1       8.874  -0.221  23.448  0.00  0.00    -0.310 N 
ATOM     21  H   ALA A   1       9.850  -0.475  23.491  0.00  0.00    +0.149 HD
ATOM     22  O   UNK A   0       6.793  -0.970  22.897  0.00  0.00    -0.275 OA
BRANCH  20  23
ATOM     23  CA  ALA A   1       8.620   1.227  23.315  0.00  0.00    +0.095 C 
ATOM     24  CB  ALA A   1       9.484   2.048  24.269  0.00  0.00    +0.030 C 
BRANCH  23  25
ATOM     25  C   ALA A   1       8.712   1.766  21.878  0.00  0.00    +0.177 C 
BRANCH  25  26
ATOM     26  O   ALA A   1      10.047   2.176  21.593  0.00  0.00    -0.393 OA
ATOM     27  H   ALA A   1      10.189   1.920  20.661  0.00  0.00    +0.209 HD
ENDBRANCH  25  26
ENDBRANCH  23  25
ENDBRANCH  20  23
ENDBRANCH   5  19
TORSDOF 4
ENDMDL
MODEL 5
REMARK VINA RESULT:      -6.2      3.336      4.790
REMARK  Name = 
REMARK  6 active torsions:
REMARK  status: ('A' for Active; 'I' for Inactive)
REMARK    1  A    between atoms: C_15  and  C_20
REMARK    2  A    between atoms: N_18  and  C_19
REMARK    3  A    between atoms: N_22  and  CA_23
REMARK    4  A    between atoms: CA_23  and  CB_25
REMARK    5  A    between atoms: CA_23  and  C_26
REMARK    6  A    between atoms: C_26  and  O_27
REMARK                            x       y       z     vdW  Elec       q    Type
REMARK                         _______ _______ _______ _____ _____    ______ ____
ROOT
ATOM      1  C   UNK A   0       8.707  -2.145  24.234  0.00  0.00    +0.091 C 
ATOM      2  N   UNK A   0       9.648  -1.157  23.651  0.00  0.00    -0.297 NA
ATOM      3  C   UNK A   0      10.107  -1.504  22.302  0.00  0.00    +0.105 C 
ATOM      4  C   UNK A   0       9.008   0.185  23.721  0.00  0.00    +0.101 C 
ATOM      5  C   UNK A   0       7.440   0.224  23.745  0.00  0.00    +0.112 C 
ATOM      6  C   UNK A   0       6.822  -1.012  23.111  0.00  0.00    -0.007 C 
ATOM      7  C   UNK A   0       7.379  -2.206  23.414  0.00  0.00    -0.025 C 
ATOM      8  C   UNK A   0       6.605  -3.466  23.397  0.00  0.00    -0.011 A 
ATOM      9  C   UNK A   0       7.000  -4.334  24.425  0.00  0.00    +0.010 A 
ATOM     10  C   UNK A   0       6.173  -5.338  24.892  0.00  0.00    +0.047 A 
ATOM     11  C   UNK A   0       4.989  -5.669  24.235  0.00  0.00    +0.026 A 
ATOM     12  C   UNK A   0       4.678  -4.920  23.084  0.00  0.00    +0.003 A 
ATOM     13  N   UNK A   0       6.758  -5.778  26.063  0.00  0.00    -0.360 N 
ATOM     14  H   UNK A   0       6.326  -6.423  26.711  0.00  0.00    +0.165 HD
ATOM     15  C   UNK A   0       7.978  -5.167  26.256  0.00  0.00    +0.087 A 
ATOM     16  C   UNK A   0       8.197  -4.350  25.177  0.00  0.00    -0.020 A 
ATOM     17  C   UNK A   0       5.450  -3.812  22.687  0.00  0.00    +0.009 A 
ATOM     18  C   UNK A   0       9.323  -3.475  24.737  0.00  0.00    +0.061 C 
ENDROOT
BRANCH   5  19
ATOM     19  C   UNK A   0       6.901   0.313  25.220  0.00  0.00    +0.221 C 
ATOM     20  N   ALA A   1       5.546   0.080  25.368  0.00  0.00    -0.310 N 
ATOM     21  H   ALA A   1       5.041  -0.219  24.547  0.00  0.00    +0.149 HD
ATOM     22  O   UNK A   0       7.615   0.576  26.185  0.00  0.00    -0.275 OA
BRANCH  20  23
ATOM     23  CA  ALA A   1       4.884  -0.239  26.647  0.00  0.00    +0.095 C 
ATOM     24  CB  ALA A   1       3.780   0.760  26.984  0.00  0.00    +0.030 C 
BRANCH  23  25
ATOM     25  C   ALA A   1       4.379  -1.687  26.767  0.00  0.00    +0.177 C 
BRANCH  25  26
ATOM     26  O   ALA A   1       4.006  -2.183  25.484  0.00  0.00    -0.393 OA
ATOM     27  H   ALA A   1       3.774  -1.387  24.970  0.00  0.00    +0.209 HD
ENDBRANCH  25  26
ENDBRANCH  23  25
ENDBRANCH  20  23
ENDBRANCH   5  19
TORSDOF 4
ENDMDL
MODEL 6
REMARK VINA RESULT:      -6.1      3.286      5.743
REMARK  Name = 
REMARK  6 active torsions:
REMARK  status: ('A' for Active; 'I' for Inactive)
REMARK    1  A    between atoms: C_15  and  C_20
REMARK    2  A    between atoms: N_18  and  C_19
REMARK    3  A    between atoms: N_22  and  CA_23
REMARK    4  A    between atoms: CA_23  and  CB_25
REMARK    5  A    between atoms: CA_23  and  C_26
REMARK    6  A    between atoms: C_26  and  O_27
REMARK                            x       y       z     vdW  Elec       q    Type
REMARK                         _______ _______ _______ _____ _____    ______ ____
ROOT
ATOM      1  C   UNK A   0       7.244  -4.560  23.094  0.00  0.00    +0.091 C 
ATOM      2  N   UNK A   0       6.951  -4.615  21.641  0.00  0.00    -0.297 NA
ATOM      3  C   UNK A   0       6.134  -5.768  21.247  0.00  0.00    +0.105 C 
ATOM      4  C   UNK A   0       6.350  -3.313  21.243  0.00  0.00    +0.101 C 
ATOM      5  C   UNK A   0       5.605  -2.502  22.361  0.00  0.00    +0.112 C 
ATOM      6  C   UNK A   0       5.101  -3.397  23.482  0.00  0.00    -0.007 C 
ATOM      7  C   UNK A   0       5.935  -4.365  23.924  0.00  0.00    -0.025 C 
ATOM      8  C   UNK A   0       5.877  -4.888  25.306  0.00  0.00    -0.011 A 
ATOM      9  C   UNK A   0       7.154  -5.180  25.806  0.00  0.00    +0.010 A 
ATOM     10  C   UNK A   0       7.410  -5.250  27.162  0.00  0.00    +0.047 A 
ATOM     11  C   UNK A   0       6.376  -5.235  28.098  0.00  0.00    +0.026 A 
ATOM     12  C   UNK A   0       5.068  -5.132  27.588  0.00  0.00    +0.003 A 
ATOM     13  N   UNK A   0       8.786  -5.259  27.275  0.00  0.00    -0.360 N 
ATOM     14  H   UNK A   0       9.289  -5.179  28.149  0.00  0.00    +0.165 HD
ATOM     15  C   UNK A   0       9.375  -5.328  26.031  0.00  0.00    +0.087 A 
ATOM     16  C   UNK A   0       8.364  -5.400  25.108  0.00  0.00    -0.020 A 
ATOM     17  C   UNK A   0       4.818  -4.925  26.219  0.00  0.00    +0.009 A 
ATOM     18  C   UNK A   0       8.309  -5.554  23.624  0.00  0.00    +0.061 C 
ENDROOT
BRANCH   5  19
ATOM     19  C   UNK A   0       6.557  -1.431  23.009  0.00  0.00    +0.221 C 
ATOM     20  N   ALA A   1       7.743  -1.210  22.335  0.00  0.00    -0.310 N 
ATOM     21  H   ALA A   1       7.857  -1.674  21.445  0.00  0.00    +0.149 HD
ATOM     22  O   UNK A   0       6.286  -0.827  24.046  0.00  0.00    -0.275 OA
BRANCH  20  23
ATOM     23  CA  ALA A   1       8.616  -0.037  22.533  0.00  0.00    +0.095 C 
ATOM     24  CB  ALA A   1      10.078  -0.436  22.709  0.00  0.00    +0.030 C 
BRANCH  23  25
ATOM     25  C   ALA A   1       8.464   1.064  21.470  0.00  0.00    +0.177 C 
BRANCH  25  26
ATOM     26  O   ALA A   1       9.644   1.862  21.419  0.00  0.00    -0.393 OA
ATOM     27  H   ALA A   1       9.636   2.368  22.253  0.00  0.00    +0.209 HD
ENDBRANCH  25  26
ENDBRANCH  23  25
ENDBRANCH  20  23
ENDBRANCH   5  19
TORSDOF 4
ENDMDL
MODEL 7
REMARK VINA RESULT:      -6.1      3.644      4.719
REMARK  Name = 
REMARK  6 active torsions:
REMARK  status: ('A' for Active; 'I' for Inactive)
REMARK    1  A    between atoms: C_15  and  C_20
REMARK    2  A    between atoms: N_18  and  C_19
REMARK    3  A    between atoms: N_22  and  CA_23
REMARK    4  A    between atoms: CA_23  and  CB_25
REMARK    5  A    between atoms: CA_23  and  C_26
REMARK    6  A    between atoms: C_26  and  O_27
REMARK                            x       y       z     vdW  Elec       q    Type
REMARK                         _______ _______ _______ _____ _____    ______ ____
ROOT
ATOM      1  C   UNK A   0       8.218  -2.694  25.068  0.00  0.00    +0.091 C 
ATOM      2  N   UNK A   0       9.231  -1.743  24.548  0.00  0.00    -0.297 NA
ATOM      3  C   UNK A   0      10.039  -2.283  23.449  0.00  0.00    +0.105 C 
ATOM      4  C   UNK A   0       8.534  -0.478  24.191  0.00  0.00    +0.101 C 
ATOM      5  C   UNK A   0       7.013  -0.584  23.823  0.00  0.00    +0.112 C 
ATOM      6  C   UNK A   0       6.637  -1.967  23.316  0.00  0.00    -0.007 C 
ATOM      7  C   UNK A   0       7.151  -3.028  23.977  0.00  0.00    -0.025 C 
ATOM      8  C   UNK A   0       6.467  -4.339  24.022  0.00  0.00    -0.011 A 
ATOM      9  C   UNK A   0       6.623  -4.965  25.267  0.00  0.00    +0.010 A 
ATOM     10  C   UNK A   0       5.750  -5.942  25.708  0.00  0.00    +0.047 A 
ATOM     11  C   UNK A   0       4.793  -6.497  24.860  0.00  0.00    +0.026 A 
ATOM     12  C   UNK A   0       4.756  -6.002  23.543  0.00  0.00    +0.003 A 
ATOM     13  N   UNK A   0       6.032  -6.106  27.050  0.00  0.00    -0.360 N 
ATOM     14  H   UNK A   0       5.478  -6.661  27.687  0.00  0.00    +0.165 HD
ATOM     15  C   UNK A   0       7.132  -5.357  27.410  0.00  0.00    +0.087 A 
ATOM     16  C   UNK A   0       7.584  -4.731  26.277  0.00  0.00    -0.020 A 
ATOM     17  C   UNK A   0       5.552  -4.916  23.135  0.00  0.00    +0.009 A 
ATOM     18  C   UNK A   0       8.744  -3.847  25.960  0.00  0.00    +0.061 C 
ENDROOT
BRANCH   5  19
ATOM     19  C   UNK A   0       6.107  -0.282  25.073  0.00  0.00    +0.221 C 
ATOM     20  N   ALA A   1       6.695   0.497  26.053  0.00  0.00    -0.310 N 
ATOM     21  H   ALA A   1       7.605   0.883  25.846  0.00  0.00    +0.149 HD
ATOM     22  O   UNK A   0       4.960  -0.706  25.193  0.00  0.00    -0.275 OA
BRANCH  20  23
ATOM     23  CA  ALA A   1       5.958   1.196  27.123  0.00  0.00    +0.095 C 
ATOM     24  CB  ALA A   1       5.857   0.354  28.392  0.00  0.00    +0.030 C 
BRANCH  23  25
ATOM     25  C   ALA A   1       6.469   2.613  27.435  0.00  0.00    +0.177 C 
BRANCH  25  26
ATOM     26  O   ALA A   1       7.488   2.558  28.430  0.00  0.00    -0.393 OA
ATOM     27  H   ALA A   1       8.032   3.353  28.270  0.00  0.00    +0.209 HD
ENDBRANCH  25  26
ENDBRANCH  23  25
ENDBRANCH  20  23
ENDBRANCH   5  19
TORSDOF 4
ENDMDL
MODEL 8
REMARK VINA RESULT:      -6.1      2.700      5.556
REMARK  Name = 
REMARK  6 active torsions:
REMARK  status: ('A' for Active; 'I' for Inactive)
REMARK    1  A    between atoms: C_15  and  C_20
REMARK    2  A    between atoms: N_18  and  C_19
REMARK    3  A    between atoms: N_22  and  CA_23
REMARK    4  A    between atoms: CA_23  and  CB_25
REMARK    5  A    between atoms: CA_23  and  C_26
REMARK    6  A    between atoms: C_26  and  O_27
REMARK                            x       y       z     vdW  Elec       q    Type
REMARK                         _______ _______ _______ _____ _____    ______ ____
ROOT
ATOM      1  C   UNK A   0       8.221   0.814  22.941  0.00  0.00    +0.091 C 
ATOM      2  N   UNK A   0       8.698  -0.576  22.739  0.00  0.00    -0.297 NA
ATOM      3  C   UNK A   0       9.851  -0.679  21.838  0.00  0.00    +0.105 C 
ATOM      4  C   UNK A   0       8.951  -1.175  24.078  0.00  0.00    +0.101 C 
ATOM      5  C   UNK A   0       9.289  -0.185  25.247  0.00  0.00    +0.112 C 
ATOM      6  C   UNK A   0       9.880   1.122  24.743  0.00  0.00    -0.007 C 
ATOM      7  C   UNK A   0       9.306   1.682  23.655  0.00  0.00    -0.025 C 
ATOM      8  C   UNK A   0       9.335   3.140  23.407  0.00  0.00    -0.011 A 
ATOM      9  C   UNK A   0       8.140   3.594  22.831  0.00  0.00    +0.010 A 
ATOM     10  C   UNK A   0       7.746   4.916  22.910  0.00  0.00    +0.047 A 
ATOM     11  C   UNK A   0       8.607   5.903  23.389  0.00  0.00    +0.026 A 
ATOM     12  C   UNK A   0       9.886   5.478  23.796  0.00  0.00    +0.003 A 
ATOM     13  N   UNK A   0       6.427   4.930  22.505  0.00  0.00    -0.360 N 
ATOM     14  H   UNK A   0       5.816   5.732  22.573  0.00  0.00    +0.165 HD
ATOM     15  C   UNK A   0       6.042   3.684  22.059  0.00  0.00    +0.087 A 
ATOM     16  C   UNK A   0       7.140   2.867  22.145  0.00  0.00    -0.020 A 
ATOM     17  C   UNK A   0      10.237   4.116  23.842  0.00  0.00    +0.009 A 
ATOM     18  C   UNK A   0       7.423   1.449  21.773  0.00  0.00    +0.061 C 
ENDROOT
BRANCH   5  19
ATOM     19  C   UNK A   0       7.999   0.173  26.073  0.00  0.00    +0.221 C 
ATOM     20  N   ALA A   1       7.983   1.443  26.622  0.00  0.00    -0.310 N 
ATOM     21  H   ALA A   1       8.742   2.059  26.370  0.00  0.00    +0.149 HD
ATOM     22  O   UNK A   0       7.065  -0.608  26.239  0.00  0.00    -0.275 OA
BRANCH  20  23
ATOM     23  CA  ALA A   1       6.775   2.126  27.121  0.00  0.00    +0.095 C 
ATOM     24  CB  ALA A   1       6.671   2.064  28.643  0.00  0.00    +0.030 C 
BRANCH  23  25
ATOM     25  C   ALA A   1       6.591   3.564  26.609  0.00  0.00    +0.177 C 
BRANCH  25  26
ATOM     26  O   ALA A   1       7.857   4.210  26.498  0.00  0.00    -0.393 OA
ATOM     27  H   ALA A   1       7.892   4.816  27.262  0.00  0.00    +0.209 HD
ENDBRANCH  25  26
ENDBRANCH  23  25
ENDBRANCH  20  23
ENDBRANCH   5  19
TORSDOF 4
ENDMDL
MODEL 9
REMARK VINA RESULT:      -6.1      2.454      4.453
REMARK  Name = 
REMARK  6 active torsions:
REMARK  status: ('A' for Active; 'I' for Inactive)
REMARK    1  A    between atoms: C_15  and  C_20
REMARK    2  A    between atoms: N_18  and  C_19
REMARK    3  A    between atoms: N_22  and  CA_23
REMARK    4  A    between atoms: CA_23  and  CB_25
REMARK    5  A    between atoms: CA_23  and  C_26
REMARK    6  A    between atoms: C_26  and  O_27
REMARK                            x       y       z     vdW  Elec       q    Type
REMARK                         _______ _______ _______ _____ _____    ______ ____
ROOT
ATOM      1  C   UNK A   0       7.949   0.663  24.056  0.00  0.00    +0.091 C 
ATOM      2  N   UNK A   0       8.474  -0.598  23.478  0.00  0.00    -0.297 NA
ATOM      3  C   UNK A   0       7.484  -1.346  22.697  0.00  0.00    +0.105 C 
ATOM      4  C   UNK A   0       9.702  -0.273  22.702  0.00  0.00    +0.101 C 
ATOM      5  C   UNK A   0       9.819   1.186  22.136  0.00  0.00    +0.112 C 
ATOM      6  C   UNK A   0       8.461   1.843  21.948  0.00  0.00    -0.007 C 
ATOM      7  C   UNK A   0       7.550   1.672  22.933  0.00  0.00    -0.025 C 
ATOM      8  C   UNK A   0       6.484   2.660  23.203  0.00  0.00    -0.011 A 
ATOM      9  C   UNK A   0       6.223   2.783  24.575  0.00  0.00    +0.010 A 
ATOM     10  C   UNK A   0       5.622   3.908  25.108  0.00  0.00    +0.047 A 
ATOM     11  C   UNK A   0       5.062   4.888  24.290  0.00  0.00    +0.026 A 
ATOM     12  C   UNK A   0       5.155   4.677  22.901  0.00  0.00    +0.003 A 
ATOM     13  N   UNK A   0       5.793   3.802  26.473  0.00  0.00    -0.360 N 
ATOM     14  H   UNK A   0       5.574   4.534  27.136  0.00  0.00    +0.165 HD
ATOM     15  C   UNK A   0       6.363   2.591  26.799  0.00  0.00    +0.087 A 
ATOM     16  C   UNK A   0       6.527   1.893  25.631  0.00  0.00    -0.020 A 
ATOM     17  C   UNK A   0       5.884   3.602  22.360  0.00  0.00    +0.009 A 
ATOM     18  C   UNK A   0       7.017   0.525  25.287  0.00  0.00    +0.061 C 
ENDROOT
BRANCH   5  19
ATOM     19  C   UNK A   0      10.652   2.102  23.107  0.00  0.00    +0.221 C 
ATOM     20  N   ALA A   1      10.826   3.407  22.682  0.00  0.00    -0.310 N 
ATOM     21  H   ALA A   1      10.332   3.686  21.847  0.00  0.00    +0.149 HD
ATOM     22  O   UNK A   0      11.128   1.704  24.168  0.00  0.00    -0.275 OA
BRANCH  20  23
ATOM     23  CA  ALA A   1      11.247   4.522  23.551  0.00  0.00    +0.095 C 
ATOM     24  CB  ALA A   1      12.660   4.998  23.224  0.00  0.00    +0.030 C 
BRANCH  23  25
ATOM     25  C   ALA A   1      10.262   5.702  23.606  0.00  0.00    +0.177 C 
BRANCH  25  26
ATOM     26  O   ALA A   1       8.969   5.280  23.181  0.00  0.00    -0.393 OA
ATOM     27  H   ALA A   1       8.455   6.106  23.100  0.00  0.00    +0.209 HD
ENDBRANCH  25  26
ENDBRANCH  23  25
ENDBRANCH  20  23
ENDBRANCH   5  19
TORSDOF 4
ENDMDL
