MODEL 1
REMARK VINA RESULT:      -7.2      0.000      0.000
REMARK  Name = 
REMARK  11 active torsions:
REMARK  status: ('A' for Active; 'I' for Inactive)
REMARK    1  A    between atoms: C_1  and  C_2
REMARK    2  A    between atoms: C_2  and  C_3
REMARK    3  A    between atoms: C_2  and  C_4
REMARK    4  A    between atoms: C_7  and  C_8
REMARK    5  A    between atoms: C_8  and  O_9
REMARK    6  A    between atoms: O_9  and  C_10
REMARK    7  A    between atoms: C_14  and  C_15
REMARK    8  A    between atoms: C_15  and  C_16
REMARK    9  A    between atoms: N_18  and  C_19
REMARK   10  A    between atoms: C_19  and  C_20
REMARK   11  A    between atoms: C_20  and  N_21
REMARK                            x       y       z     vdW  Elec       q    Type
REMARK                         _______ _______ _______ _____ _____    ______ ____
ROOT
ATOM      1  C   UNL     1       8.774  -3.128  23.509  0.00  0.00    +0.139 A 
ATOM      2  C   UNL     1       7.915  -2.753  22.473  0.00  0.00    +0.047 A 
ATOM      3  C   UNL     1       6.904  -3.617  22.044  0.00  0.00    +0.008 A 
ATOM      4  C   UNL     1       6.736  -4.873  22.638  0.00  0.00    -0.037 A 
ATOM      5  C   UNL     1       7.593  -5.247  23.682  0.00  0.00    +0.027 A 
ATOM      6  C   UNL     1       8.610  -4.385  24.106  0.00  0.00    +0.083 A 
ATOM      7 CL   UNL     1       9.649  -4.917  25.383  0.00  0.00    -0.080 Cl
ENDROOT
BRANCH   1   8
ATOM      8  O   UNL     1       9.811  -2.347  23.949  0.00  0.00    -0.486 OA
BRANCH   8   9
ATOM      9  C   UNL     1      10.497  -1.593  22.949  0.00  0.00    +0.264 C 
BRANCH   9  13
ATOM     10  C   UNL     1       9.343   2.570  23.305  0.00  0.00    -0.045 A 
ATOM     11  C   UNL     1       9.766   1.850  24.430  0.00  0.00    +0.004 A 
ATOM     12  C   UNL     1      10.163   0.517  24.316  0.00  0.00    +0.007 A 
ATOM     13  C   UNL     1      10.162  -0.125  23.073  0.00  0.00    -0.010 A 
ATOM     14  C   UNL     1       9.752   0.595  21.944  0.00  0.00    +0.007 A 
ATOM     15  C   UNL     1       9.350   1.929  22.058  0.00  0.00    +0.004 A 
BRANCH  10  17
ATOM     16  C   UNL     1       7.569   4.227  22.637  0.00  0.00    +0.012 C 
ATOM     17  C   UNL     1       8.868   4.006  23.417  0.00  0.00    +0.013 C 
ATOM     18  C   UNL     1       8.706   4.426  24.879  0.00  0.00    +0.012 C 
ENDBRANCH  10  17
ENDBRANCH   9  13
ENDBRANCH   8   9
ENDBRANCH   1   8
BRANCH   4  19
ATOM     19  C   UNL     1       5.689  -5.830  22.118  0.00  0.00    +0.131 C 
BRANCH  19  20
ATOM     20  C   UNL     1       4.418  -5.889  22.952  0.00  0.00    +0.217 C 
ATOM     21  N   UNL     1       4.397  -6.931  23.859  0.00  0.00    -0.314 N 
ATOM     22  H   UNL     1       5.126  -7.633  23.855  0.00  0.00    +0.149 HD
ATOM     23  O   UNL     1       3.506  -5.074  22.862  0.00  0.00    -0.275 OA
BRANCH  21  24
ATOM     24  C   UNL     1       3.294  -7.102  24.790  0.00  0.00    +0.119 C 
BRANCH  24  25
ATOM     25  C   UNL     1       2.282  -8.160  24.327  0.00  0.00    +0.096 C 
BRANCH  25  26
ATOM     26  N   UNL     1       2.274  -9.331  25.211  0.00  0.00    -0.329 NA
ATOM     27  H   UNL     1       2.413 -10.167  24.645  0.00  0.00    +0.118 HD
ATOM     28  H   UNL     1       3.079  -9.277  25.832  0.00  0.00    +0.118 HD
ENDBRANCH  25  26
ENDBRANCH  24  25
ENDBRANCH  21  24
ENDBRANCH  19  20
ENDBRANCH   4  19
TORSDOF 9
ENDMDL
MODEL 2
REMARK VINA RESULT:      -7.0      1.433      1.698
REMARK  Name = 
REMARK  11 active torsions:
REMARK  status: ('A' for Active; 'I' for Inactive)
REMARK    1  A    between atoms: C_1  and  C_2
REMARK    2  A    between atoms: C_2  and  C_3
REMARK    3  A    between atoms: C_2  and  C_4
REMARK    4  A    between atoms: C_7  and  C_8
REMARK    5  A    between atoms: C_8  and  O_9
REMARK    6  A    between atoms: O_9  and  C_10
REMARK    7  A    between atoms: C_14  and  C_15
REMARK    8  A    between atoms: C_15  and  C_16
REMARK    9  A    between atoms: N_18  and  C_19
REMARK   10  A    between atoms: C_19  and  C_20
REMARK   11  A    between atoms: C_20  and  N_21
REMARK                            x       y       z     vdW  Elec       q    Type
REMARK                         _______ _______ _______ _____ _____    ______ ____
ROOT
ATOM      1  C   UNL     1       8.707  -3.176  23.549  0.00  0.00    +0.139 A 
ATOM      2  C   UNL     1       7.713  -2.770  22.655  0.00  0.00    +0.047 A 
ATOM      3  C   UNL     1       6.558  -3.537  22.487  0.00  0.00    +0.008 A 
ATOM      4  C   UNL     1       6.375  -4.726  23.204  0.00  0.00    -0.037 A 
ATOM      5  C   UNL     1       7.370  -5.130  24.105  0.00  0.00    +0.027 A 
ATOM      6  C   UNL     1       8.530  -4.366  24.268  0.00  0.00    +0.083 A 
ATOM      7 CL   UNL     1       9.729  -4.933  25.380  0.00  0.00    -0.080 Cl
ENDROOT
BRANCH   1   8
ATOM      8  O   UNL     1       9.882  -2.494  23.731  0.00  0.00    -0.486 OA
BRANCH   8   9
ATOM      9  C   UNL     1      10.346  -1.734  22.615  0.00  0.00    +0.264 C 
BRANCH   9  13
ATOM     10  C   UNL     1       9.713   2.482  23.402  0.00  0.00    -0.045 A 
ATOM     11  C   UNL     1      10.135   1.622  24.426  0.00  0.00    +0.004 A 
ATOM     12  C   UNL     1      10.364   0.270  24.172  0.00  0.00    +0.007 A 
ATOM     13  C   UNL     1      10.194  -0.255  22.885  0.00  0.00    -0.010 A 
ATOM     14  C   UNL     1       9.784   0.603  21.857  0.00  0.00    +0.007 A 
ATOM     15  C   UNL     1       9.550   1.958  22.112  0.00  0.00    +0.004 A 
BRANCH  10  17
ATOM     16  C   UNL     1       8.600   4.125  24.952  0.00  0.00    +0.012 C 
ATOM     17  C   UNL     1       9.418   3.946  23.670  0.00  0.00    +0.013 C 
ATOM     18  C   UNL     1      10.703   4.773  23.722  0.00  0.00    +0.012 C 
ENDBRANCH  10  17
ENDBRANCH   9  13
ENDBRANCH   8   9
ENDBRANCH   1   8
BRANCH   4  19
ATOM     19  C   UNL     1       5.158  -5.587  22.959  0.00  0.00    +0.131 C 
BRANCH  19  20
ATOM     20  C   UNL     1       4.581  -6.233  24.209  0.00  0.00    +0.217 C 
ATOM     21  N   UNL     1       4.095  -5.325  25.130  0.00  0.00    -0.314 N 
ATOM     22  H   UNL     1       4.236  -4.332  24.999  0.00  0.00    +0.149 HD
ATOM     23  O   UNL     1       4.515  -7.446  24.380  0.00  0.00    -0.275 OA
BRANCH  21  24
ATOM     24  C   UNL     1       3.443  -5.763  26.354  0.00  0.00    +0.119 C 
BRANCH  24  25
ATOM     25  C   UNL     1       4.419  -5.907  27.530  0.00  0.00    +0.096 C 
BRANCH  25  26
ATOM     26  N   UNL     1       5.066  -7.224  27.543  0.00  0.00    -0.329 NA
ATOM     27  H   UNL     1       5.820  -7.225  26.857  0.00  0.00    +0.118 HD
ATOM     28  H   UNL     1       5.511  -7.361  28.449  0.00  0.00    +0.118 HD
ENDBRANCH  25  26
ENDBRANCH  24  25
ENDBRANCH  21  24
ENDBRANCH  19  20
ENDBRANCH   4  19
TORSDOF 9
ENDMDL
MODEL 3
REMARK VINA RESULT:      -6.9      4.764      9.619
REMARK  Name = 
REMARK  11 active torsions:
REMARK  status: ('A' for Active; 'I' for Inactive)
REMARK    1  A    between atoms: C_1  and  C_2
REMARK    2  A    between atoms: C_2  and  C_3
REMARK    3  A    between atoms: C_2  and  C_4
REMARK    4  A    between atoms: C_7  and  C_8
REMARK    5  A    between atoms: C_8  and  O_9
REMARK    6  A    between atoms: O_9  and  C_10
REMARK    7  A    between atoms: C_14  and  C_15
REMARK    8  A    between atoms: C_15  and  C_16
REMARK    9  A    between atoms: N_18  and  C_19
REMARK   10  A    between atoms: C_19  and  C_20
REMARK   11  A    between atoms: C_20  and  N_21
REMARK                            x       y       z     vdW  Elec       q    Type
REMARK                         _______ _______ _______ _____ _____    ______ ____
ROOT
ATOM      1  C   UNL     1       8.797  -2.224  23.171  0.00  0.00    +0.139 A 
ATOM      2  C   UNL     1      10.096  -1.786  22.902  0.00  0.00    +0.047 A 
ATOM      3  C   UNL     1      10.334  -0.456  22.547  0.00  0.00    +0.008 A 
ATOM      4  C   UNL     1       9.280   0.460  22.449  0.00  0.00    -0.037 A 
ATOM      5  C   UNL     1       7.977   0.021  22.724  0.00  0.00    +0.027 A 
ATOM      6  C   UNL     1       7.738  -1.312  23.073  0.00  0.00    +0.083 A 
ATOM      7 CL   UNL     1       6.104  -1.794  23.377  0.00  0.00    -0.080 Cl
ENDROOT
BRANCH   1   8
ATOM      8  O   UNL     1       8.489  -3.523  23.483  0.00  0.00    -0.486 OA
BRANCH   8   9
ATOM      9  C   UNL     1       8.891  -3.969  24.779  0.00  0.00    +0.264 C 
BRANCH   9  13
ATOM     10  C   UNL     1       5.626  -6.048  26.729  0.00  0.00    -0.045 A 
ATOM     11  C   UNL     1       5.575  -5.775  25.356  0.00  0.00    +0.004 A 
ATOM     12  C   UNL     1       6.635  -5.129  24.719  0.00  0.00    +0.007 A 
ATOM     13  C   UNL     1       7.778  -4.753  25.434  0.00  0.00    -0.010 A 
ATOM     14  C   UNL     1       7.837  -5.035  26.805  0.00  0.00    +0.007 A 
ATOM     15  C   UNL     1       6.774  -5.680  27.445  0.00  0.00    +0.004 A 
BRANCH  10  17
ATOM     16  C   UNL     1       4.532  -6.472  28.958  0.00  0.00    +0.012 C 
ATOM     17  C   UNL     1       4.465  -6.712  27.447  0.00  0.00    +0.013 C 
ATOM     18  C   UNL     1       3.122  -6.249  26.879  0.00  0.00    +0.012 C 
ENDBRANCH  10  17
ENDBRANCH   9  13
ENDBRANCH   8   9
ENDBRANCH   1   8
BRANCH   4  19
ATOM     19  C   UNL     1       9.538   1.877  21.991  0.00  0.00    +0.131 C 
BRANCH  19  20
ATOM     20  C   UNL     1      10.053   2.806  23.079  0.00  0.00    +0.217 C 
ATOM     21  N   UNL     1      11.127   3.582  22.684  0.00  0.00    -0.314 N 
ATOM     22  H   UNL     1      11.571   3.430  21.787  0.00  0.00    +0.149 HD
ATOM     23  O   UNL     1       9.550   2.895  24.194  0.00  0.00    -0.275 OA
BRANCH  21  24
ATOM     24  C   UNL     1      11.706   4.580  23.568  0.00  0.00    +0.119 C 
BRANCH  24  25
ATOM     25  C   UNL     1      12.714   5.493  22.856  0.00  0.00    +0.096 C 
BRANCH  25  26
ATOM     26  N   UNL     1      14.099   5.075  23.104  0.00  0.00    -0.329 NA
ATOM     27  H   UNL     1      14.400   5.460  23.999  0.00  0.00    +0.118 HD
ATOM     28  H   UNL     1      14.120   4.063  23.213  0.00  0.00    +0.118 HD
ENDBRANCH  25  26
ENDBRANCH  24  25
ENDBRANCH  21  24
ENDBRANCH  19  20
ENDBRANCH   4  19
TORSDOF 9
ENDMDL
MODEL 4
REMARK VINA RESULT:      -6.9      1.682      1.870
REMARK  Name = 
REMARK  11 active torsions:
REMARK  status: ('A' for Active; 'I' for Inactive)
REMARK    1  A    between atoms: C_1  and  C_2
REMARK    2  A    between atoms: C_2  and  C_3
REMARK    3  A    between atoms: C_2  and  C_4
REMARK    4  A    between atoms: C_7  and  C_8
REMARK    5  A    between atoms: C_8  and  O_9
REMARK    6  A    between atoms: O_9  and  C_10
REMARK    7  A    between atoms: C_14  and  C_15
REMARK    8  A    between atoms: C_15  and  C_16
REMARK    9  A    between atoms: N_18  and  C_19
REMARK   10  A    between atoms: C_19  and  C_20
REMARK   11  A    between atoms: C_20  and  N_21
REMARK                            x       y       z     vdW  Elec       q    Type
REMARK                         _______ _______ _______ _____ _____    ______ ____
ROOT
ATOM      1  C   UNL     1       8.228  -3.502  23.815  0.00  0.00    +0.139 A 
ATOM      2  C   UNL     1       7.901  -4.201  22.650  0.00  0.00    +0.047 A 
ATOM      3  C   UNL     1       6.851  -5.122  22.649  0.00  0.00    +0.008 A 
ATOM      4  C   UNL     1       6.111  -5.366  23.812  0.00  0.00    -0.037 A 
ATOM      5  C   UNL     1       6.435  -4.661  24.979  0.00  0.00    +0.027 A 
ATOM      6  C   UNL     1       7.491  -3.744  24.982  0.00  0.00    +0.083 A 
ATOM      7 CL   UNL     1       7.853  -2.924  26.462  0.00  0.00    -0.080 Cl
ENDROOT
BRANCH   1   8
ATOM      8  O   UNL     1       9.271  -2.616  23.895  0.00  0.00    -0.486 OA
BRANCH   8   9
ATOM      9  C   UNL     1       9.707  -2.046  22.661  0.00  0.00    +0.264 C 
BRANCH   9  13
ATOM     10  C   UNL     1      10.152   2.240  23.129  0.00  0.00    -0.045 A 
ATOM     11  C   UNL     1      10.397   1.378  24.206  0.00  0.00    +0.004 A 
ATOM     12  C   UNL     1      10.280  -0.004  24.053  0.00  0.00    +0.007 A 
ATOM     13  C   UNL     1       9.931  -0.560  22.817  0.00  0.00    -0.010 A 
ATOM     14  C   UNL     1       9.697   0.298  21.735  0.00  0.00    +0.007 A 
ATOM     15  C   UNL     1       9.810   1.683  21.888  0.00  0.00    +0.004 A 
BRANCH  10  17
ATOM     16  C   UNL     1       9.351   4.235  24.440  0.00  0.00    +0.012 C 
ATOM     17  C   UNL     1      10.233   3.747  23.287  0.00  0.00    +0.013 C 
ATOM     18  C   UNL     1      11.679   4.211  23.470  0.00  0.00    +0.012 C 
ENDBRANCH  10  17
ENDBRANCH   9  13
ENDBRANCH   8   9
ENDBRANCH   1   8
BRANCH   4  19
ATOM     19  C   UNL     1       5.027  -6.419  23.820  0.00  0.00    +0.131 C 
BRANCH  19  20
ATOM     20  C   UNL     1       3.704  -5.966  23.221  0.00  0.00    +0.217 C 
ATOM     21  N   UNL     1       2.799  -6.994  23.033  0.00  0.00    -0.314 N 
ATOM     22  H   UNL     1       3.073  -7.956  23.183  0.00  0.00    +0.149 HD
ATOM     23  O   UNL     1       3.439  -4.798  22.958  0.00  0.00    -0.275 OA
BRANCH  21  24
ATOM     24  C   UNL     1       1.457  -6.739  22.537  0.00  0.00    +0.119 C 
BRANCH  24  25
ATOM     25  C   UNL     1       0.734  -8.018  22.091  0.00  0.00    +0.096 C 
BRANCH  25  26
ATOM     26  N   UNL     1       1.415  -8.664  20.963  0.00  0.00    -0.329 NA
ATOM     27  H   UNL     1       1.944  -9.461  21.314  0.00  0.00    +0.118 HD
ATOM     28  H   UNL     1       0.713  -9.049  20.334  0.00  0.00    +0.118 HD
ENDBRANCH  25  26
ENDBRANCH  24  25
ENDBRANCH  21  24
ENDBRANCH  19  20
ENDBRANCH   4  19
TORSDOF 9
ENDMDL
MODEL 5
REMARK VINA RESULT:      -6.8      4.926      9.523
REMARK  Name = 
REMARK  11 active torsions:
REMARK  status: ('A' for Active; 'I' for Inactive)
REMARK    1  A    between atoms: C_1  and  C_2
REMARK    2  A    between atoms: C_2  and  C_3
REMARK    3  A    between atoms: C_2  and  C_4
REMARK    4  A    between atoms: C_7  and  C_8
REMARK    5  A    between atoms: C_8  and  O_9
REMARK    6  A    between atoms: O_9  and  C_10
REMARK    7  A    between atoms: C_14  and  C_15
REMARK    8  A    between atoms: C_15  and  C_16
REMARK    9  A    between atoms: N_18  and  C_19
REMARK   10  A    between atoms: C_19  and  C_20
REMARK   11  A    between atoms: C_20  and  N_21
REMARK                            x       y       z     vdW  Elec       q    Type
REMARK                         _______ _______ _______ _____ _____    ______ ____
ROOT
ATOM      1  C   UNL     1       9.565  -0.126  22.930  0.00  0.00    +0.139 A 
ATOM      2  C   UNL     1       9.425   0.691  21.806  0.00  0.00    +0.047 A 
ATOM      3  C   UNL     1       9.137   2.051  21.951  0.00  0.00    +0.008 A 
ATOM      4  C   UNL     1       8.979   2.618  23.222  0.00  0.00    -0.037 A 
ATOM      5  C   UNL     1       9.127   1.799  24.350  0.00  0.00    +0.027 A 
ATOM      6  C   UNL     1       9.408   0.436  24.204  0.00  0.00    +0.083 A 
ATOM      7 CL   UNL     1       9.554  -0.523  25.636  0.00  0.00    -0.080 Cl
ENDROOT
BRANCH   1   8
ATOM      8  O   UNL     1       9.806  -1.474  22.857  0.00  0.00    -0.486 OA
BRANCH   8   9
ATOM      9  C   UNL     1       8.753  -2.270  22.312  0.00  0.00    +0.264 C 
BRANCH   9  13
ATOM     10  C   UNL     1       6.347  -4.210  25.351  0.00  0.00    -0.045 A 
ATOM     11  C   UNL     1       7.599  -4.730  24.997  0.00  0.00    +0.004 A 
ATOM     12  C   UNL     1       8.388  -4.094  24.038  0.00  0.00    +0.007 A 
ATOM     13  C   UNL     1       7.954  -2.916  23.420  0.00  0.00    -0.010 A 
ATOM     14  C   UNL     1       6.708  -2.388  23.780  0.00  0.00    +0.007 A 
ATOM     15  C   UNL     1       5.914  -3.025  24.738  0.00  0.00    +0.004 A 
BRANCH  10  17
ATOM     16  C   UNL     1       5.247  -6.383  25.994  0.00  0.00    +0.012 C 
ATOM     17  C   UNL     1       5.456  -4.911  26.360  0.00  0.00    +0.013 C 
ATOM     18  C   UNL     1       6.009  -4.774  27.780  0.00  0.00    +0.012 C 
ENDBRANCH  10  17
ENDBRANCH   9  13
ENDBRANCH   8   9
ENDBRANCH   1   8
BRANCH   4  19
ATOM     19  C   UNL     1       8.594   4.072  23.367  0.00  0.00    +0.131 C 
BRANCH  19  20
ATOM     20  C   UNL     1       9.687   4.959  23.942  0.00  0.00    +0.217 C 
ATOM     21  N   UNL     1      10.826   5.014  23.161  0.00  0.00    -0.314 N 
ATOM     22  H   UNL     1      10.927   4.414  22.352  0.00  0.00    +0.149 HD
ATOM     23  O   UNL     1       9.569   5.599  24.981  0.00  0.00    -0.275 OA
BRANCH  21  24
ATOM     24  C   UNL     1      11.948   5.868  23.516  0.00  0.00    +0.119 C 
BRANCH  24  25
ATOM     25  C   UNL     1      13.132   5.729  22.549  0.00  0.00    +0.096 C 
BRANCH  25  26
ATOM     26  N   UNL     1      14.223   4.940  23.134  0.00  0.00    -0.329 NA
ATOM     27  H   UNL     1      14.335   5.212  24.110  0.00  0.00    +0.118 HD
ATOM     28  H   UNL     1      13.947   3.960  23.146  0.00  0.00    +0.118 HD
ENDBRANCH  25  26
ENDBRANCH  24  25
ENDBRANCH  21  24
ENDBRANCH  19  20
ENDBRANCH   4  19
TORSDOF 9
ENDMDL
MODEL 6
REMARK VINA RESULT:      -6.8      1.797      2.272
REMARK  Name = 
REMARK  11 active torsions:
REMARK  status: ('A' for Active; 'I' for Inactive)
REMARK    1  A    between atoms: C_1  and  C_2
REMARK    2  A    between atoms: C_2  and  C_3
REMARK    3  A    between atoms: C_2  and  C_4
REMARK    4  A    between atoms: C_7  and  C_8
REMARK    5  A    between atoms: C_8  and  O_9
REMARK    6  A    between atoms: O_9  and  C_10
REMARK    7  A    between atoms: C_14  and  C_15
REMARK    8  A    between atoms: C_15  and  C_16
REMARK    9  A    between atoms: N_18  and  C_19
REMARK   10  A    between atoms: C_19  and  C_20
REMARK   11  A    between atoms: C_20  and  N_21
REMARK                            x       y       z     vdW  Elec       q    Type
REMARK                         _______ _______ _______ _____ _____    ______ ____
ROOT
ATOM      1  C   UNL     1       9.010  -2.861  23.783  0.00  0.00    +0.139 A 
ATOM      2  C   UNL     1       8.748  -4.093  24.387  0.00  0.00    +0.047 A 
ATOM      3  C   UNL     1       7.868  -5.000  23.790  0.00  0.00    +0.008 A 
ATOM      4  C   UNL     1       7.229  -4.691  22.583  0.00  0.00    -0.037 A 
ATOM      5  C   UNL     1       7.497  -3.457  21.974  0.00  0.00    +0.027 A 
ATOM      6  C   UNL     1       8.372  -2.546  22.575  0.00  0.00    +0.083 A 
ATOM      7 CL   UNL     1       8.641  -1.031  21.783  0.00  0.00    -0.080 Cl
ENDROOT
BRANCH   1   8
ATOM      8  O   UNL     1       9.828  -1.910  24.335  0.00  0.00    -0.486 OA
BRANCH   8   9
ATOM      9  C   UNL     1       9.248  -1.097  25.355  0.00  0.00    +0.264 C 
BRANCH   9  13
ATOM     10  C   UNL     1       9.636   3.060  24.190  0.00  0.00    -0.045 A 
ATOM     11  C   UNL     1       8.498   2.617  24.877  0.00  0.00    +0.004 A 
ATOM     12  C   UNL     1       8.380   1.286  25.277  0.00  0.00    +0.007 A 
ATOM     13  C   UNL     1       9.402   0.367  25.014  0.00  0.00    -0.010 A 
ATOM     14  C   UNL     1      10.546   0.808  24.337  0.00  0.00    +0.007 A 
ATOM     15  C   UNL     1      10.664   2.142  23.933  0.00  0.00    +0.004 A 
BRANCH  10  17
ATOM     16  C   UNL     1       8.996   5.457  24.620  0.00  0.00    +0.012 C 
ATOM     17  C   UNL     1       9.762   4.494  23.710  0.00  0.00    +0.013 C 
ATOM     18  C   UNL     1      11.228   4.911  23.583  0.00  0.00    +0.012 C 
ENDBRANCH  10  17
ENDBRANCH   9  13
ENDBRANCH   8   9
ENDBRANCH   1   8
BRANCH   4  19
ATOM     19  C   UNL     1       6.222  -5.646  21.985  0.00  0.00    +0.131 C 
BRANCH  19  20
ATOM     20  C   UNL     1       4.907  -5.731  22.744  0.00  0.00    +0.217 C 
ATOM     21  N   UNL     1       4.824  -6.821  23.590  0.00  0.00    -0.314 N 
ATOM     22  H   UNL     1       5.543  -7.533  23.586  0.00  0.00    +0.149 HD
ATOM     23  O   UNL     1       4.011  -4.900  22.650  0.00  0.00    -0.275 OA
BRANCH  21  24
ATOM     24  C   UNL     1       3.669  -7.027  24.448  0.00  0.00    +0.119 C 
BRANCH  24  25
ATOM     25  C   UNL     1       4.043  -7.149  25.932  0.00  0.00    +0.096 C 
BRANCH  25  26
ATOM     26  N   UNL     1       5.380  -6.606  26.203  0.00  0.00    -0.329 NA
ATOM     27  H   UNL     1       5.390  -6.220  27.146  0.00  0.00    +0.118 HD
ATOM     28  H   UNL     1       6.050  -7.373  26.206  0.00  0.00    +0.118 HD
ENDBRANCH  25  26
ENDBRANCH  24  25
ENDBRANCH  21  24
ENDBRANCH  19  20
ENDBRANCH   4  19
TORSDOF 9
ENDMDL
MODEL 7
REMARK VINA RESULT:      -6.7      2.491      3.369
REMARK  Name = 
REMARK  11 active torsions:
REMARK  status: ('A' for Active; 'I' for Inactive)
REMARK    1  A    between atoms: C_1  and  C_2
REMARK    2  A    between atoms: C_2  and  C_3
REMARK    3  A    between atoms: C_2  and  C_4
REMARK    4  A    between atoms: C_7  and  C_8
REMARK    5  A    between atoms: C_8  and  O_9
REMARK    6  A    between atoms: O_9  and  C_10
REMARK    7  A    between atoms: C_14  and  C_15
REMARK    8  A    between atoms: C_15  and  C_16
REMARK    9  A    between atoms: N_18  and  C_19
REMARK   10  A    between atoms: C_19  and  C_20
REMARK   11  A    between atoms: C_20  and  N_21
REMARK                            x       y       z     vdW  Elec       q    Type
REMARK                         _______ _______ _______ _____ _____    ______ ____
ROOT
ATOM      1  C   UNL     1       9.978  -1.393  23.437  0.00  0.00    +0.139 A 
ATOM      2  C   UNL     1       9.881  -2.454  24.341  0.00  0.00    +0.047 A 
ATOM      3  C   UNL     1       8.896  -3.431  24.181  0.00  0.00    +0.008 A 
ATOM      4  C   UNL     1       7.986  -3.366  23.119  0.00  0.00    -0.037 A 
ATOM      5  C   UNL     1       8.087  -2.305  22.208  0.00  0.00    +0.027 A 
ATOM      6  C   UNL     1       9.069  -1.322  22.372  0.00  0.00    +0.083 A 
ATOM      7 CL   UNL     1       9.124  -0.027  21.226  0.00  0.00    -0.080 Cl
ENDROOT
BRANCH   1   8
ATOM      8  O   UNL     1      10.893  -0.380  23.559  0.00  0.00    -0.486 OA
BRANCH   8   9
ATOM      9  C   UNL     1      10.761   0.449  24.714  0.00  0.00    +0.264 C 
BRANCH   9  13
ATOM     10  C   UNL     1       8.790   4.219  23.878  0.00  0.00    -0.045 A 
ATOM     11  C   UNL     1      10.081   3.968  23.393  0.00  0.00    +0.004 A 
ATOM     12  C   UNL     1      10.709   2.746  23.637  0.00  0.00    +0.007 A 
ATOM     13  C   UNL     1      10.058   1.739  24.360  0.00  0.00    -0.010 A 
ATOM     14  C   UNL     1       8.764   1.982  24.836  0.00  0.00    +0.007 A 
ATOM     15  C   UNL     1       8.135   3.207  24.595  0.00  0.00    +0.004 A 
BRANCH  10  17
ATOM     16  C   UNL     1       9.098   6.717  23.798  0.00  0.00    +0.012 C 
ATOM     17  C   UNL     1       8.109   5.556  23.658  0.00  0.00    +0.013 C 
ATOM     18  C   UNL     1       7.399   5.603  22.304  0.00  0.00    +0.012 C 
ENDBRANCH  10  17
ENDBRANCH   9  13
ENDBRANCH   8   9
ENDBRANCH   1   8
BRANCH   4  19
ATOM     19  C   UNL     1       6.878  -4.385  22.998  0.00  0.00    +0.131 C 
BRANCH  19  20
ATOM     20  C   UNL     1       5.986  -4.497  24.225  0.00  0.00    +0.217 C 
ATOM     21  N   UNL     1       6.319  -5.547  25.059  0.00  0.00    -0.314 N 
ATOM     22  H   UNL     1       7.019  -6.224  24.783  0.00  0.00    +0.149 HD
ATOM     23  O   UNL     1       5.078  -3.714  24.481  0.00  0.00    -0.275 OA
BRANCH  21  24
ATOM     24  C   UNL     1       5.622  -5.766  26.316  0.00  0.00    +0.119 C 
BRANCH  24  25
ATOM     25  C   UNL     1       6.504  -5.490  27.542  0.00  0.00    +0.096 C 
BRANCH  25  26
ATOM     26  N   UNL     1       7.925  -5.717  27.253  0.00  0.00    -0.329 NA
ATOM     27  H   UNL     1       8.301  -6.357  27.952  0.00  0.00    +0.118 HD
ATOM     28  H   UNL     1       8.004  -6.200  26.360  0.00  0.00    +0.118 HD
ENDBRANCH  25  26
ENDBRANCH  24  25
ENDBRANCH  21  24
ENDBRANCH  19  20
ENDBRANCH   4  19
TORSDOF 9
ENDMDL
MODEL 8
REMARK VINA RESULT:      -6.7      2.649      3.320
REMARK  Name = 
REMARK  11 active torsions:
REMARK  status: ('A' for Active; 'I' for Inactive)
REMARK    1  A    between atoms: C_1  and  C_2
REMARK    2  A    between atoms: C_2  and  C_3
REMARK    3  A    between atoms: C_2  and  C_4
REMARK    4  A    between atoms: C_7  and  C_8
REMARK    5  A    between atoms: C_8  and  O_9
REMARK    6  A    between atoms: O_9  and  C_10
REMARK    7  A    between atoms: C_14  and  C_15
REMARK    8  A    between atoms: C_15  and  C_16
REMARK    9  A    between atoms: N_18  and  C_19
REMARK   10  A    between atoms: C_19  and  C_20
REMARK   11  A    between atoms: C_20  and  N_21
REMARK                            x       y       z     vdW  Elec       q    Type
REMARK                         _______ _______ _______ _____ _____    ______ ____
ROOT
ATOM      1  C   UNL     1       8.595  -2.473  22.830  0.00  0.00    +0.139 A 
ATOM      2  C   UNL     1       9.639  -2.669  23.738  0.00  0.00    +0.047 A 
ATOM      3  C   UNL     1       9.538  -3.645  24.732  0.00  0.00    +0.008 A 
ATOM      4  C   UNL     1       8.391  -4.440  24.842  0.00  0.00    -0.037 A 
ATOM      5  C   UNL     1       7.346  -4.248  23.928  0.00  0.00    +0.027 A 
ATOM      6  C   UNL     1       7.445  -3.265  22.936  0.00  0.00    +0.083 A 
ATOM      7 CL   UNL     1       6.110  -3.064  21.854  0.00  0.00    -0.080 Cl
ENDROOT
BRANCH   1   8
ATOM      8  O   UNL     1       8.613  -1.506  21.858  0.00  0.00    -0.486 OA
BRANCH   8   9
ATOM      9  C   UNL     1       9.816  -0.745  21.752  0.00  0.00    +0.264 C 
BRANCH   9  13
ATOM     10  C   UNL     1       9.475   3.206  23.502  0.00  0.00    -0.045 A 
ATOM     11  C   UNL     1       8.680   2.842  22.406  0.00  0.00    +0.004 A 
ATOM     12  C   UNL     1       8.768   1.563  21.856  0.00  0.00    +0.007 A 
ATOM     13  C   UNL     1       9.640   0.611  22.395  0.00  0.00    -0.010 A 
ATOM     14  C   UNL     1      10.427   0.967  23.497  0.00  0.00    +0.007 A 
ATOM     15  C   UNL     1      10.343   2.249  24.048  0.00  0.00    +0.004 A 
BRANCH  10  17
ATOM     16  C   UNL     1      10.684   5.402  23.740  0.00  0.00    +0.012 C 
ATOM     17  C   UNL     1       9.424   4.605  24.087  0.00  0.00    +0.013 C 
ATOM     18  C   UNL     1       8.165   5.350  23.638  0.00  0.00    +0.012 C 
ENDBRANCH  10  17
ENDBRANCH   9  13
ENDBRANCH   8   9
ENDBRANCH   1   8
BRANCH   4  19
ATOM     19  C   UNL     1       8.259  -5.440  25.967  0.00  0.00    +0.131 C 
BRANCH  19  20
ATOM     20  C   UNL     1       7.018  -5.262  26.827  0.00  0.00    +0.217 C 
ATOM     21  N   UNL     1       6.067  -6.247  26.641  0.00  0.00    -0.314 N 
ATOM     22  H   UNL     1       6.175  -6.936  25.907  0.00  0.00    +0.149 HD
ATOM     23  O   UNL     1       6.876  -4.355  27.640  0.00  0.00    -0.275 OA
BRANCH  21  24
ATOM     24  C   UNL     1       4.845  -6.280  27.428  0.00  0.00    +0.119 C 
BRANCH  24  25
ATOM     25  C   UNL     1       4.975  -7.142  28.692  0.00  0.00    +0.096 C 
BRANCH  25  26
ATOM     26  N   UNL     1       6.346  -7.140  29.215  0.00  0.00    -0.329 NA
ATOM     27  H   UNL     1       6.952  -7.607  28.541  0.00  0.00    +0.118 HD
ATOM     28  H   UNL     1       6.675  -6.178  29.267  0.00  0.00    +0.118 HD
ENDBRANCH  25  26
ENDBRANCH  24  25
ENDBRANCH  21  24
ENDBRANCH  19  20
ENDBRANCH   4  19
TORSDOF 9
ENDMDL
MODEL 9
REMARK VINA RESULT:      -6.6      4.483      9.162
REMARK  Name = 
REMARK  11 active torsions:
REMARK  status: ('A' for Active; 'I' for Inactive)
REMARK    1  A    between atoms: C_1  and  C_2
REMARK    2  A    between atoms: C_2  and  C_3
REMARK    3  A    between atoms: C_2  and  C_4
REMARK    4  A    between atoms: C_7  and  C_8
REMARK    5  A    between atoms: C_8  and  O_9
REMARK    6  A    between atoms: O_9  and  C_10
REMARK    7  A    between atoms: C_14  and  C_15
REMARK    8  A    between atoms: C_15  and  C_16
REMARK    9  A    between atoms: N_18  and  C_19
REMARK   10  A    between atoms: C_19  and  C_20
REMARK   11  A    between atoms: C_20  and  N_21
REMARK                            x       y       z     vdW  Elec       q    Type
REMARK                         _______ _______ _______ _____ _____    ______ ____
ROOT
ATOM      1  C   UNL     1       9.580  -0.571  22.916  0.00  0.00    +0.139 A 
ATOM      2  C   UNL     1       9.816   0.305  21.854  0.00  0.00    +0.047 A 
ATOM      3  C   UNL     1      10.120   1.647  22.098  0.00  0.00    +0.008 A 
ATOM      4  C   UNL     1      10.189   2.140  23.406  0.00  0.00    -0.037 A 
ATOM      5  C   UNL     1       9.958   1.259  24.472  0.00  0.00    +0.027 A 
ATOM      6  C   UNL     1       9.647  -0.083  24.228  0.00  0.00    +0.083 A 
ATOM      7 CL   UNL     1       9.351  -1.110  25.587  0.00  0.00    -0.080 Cl
ENDROOT
BRANCH   1   8
ATOM      8  O   UNL     1       9.237  -1.887  22.746  0.00  0.00    -0.486 OA
BRANCH   8   9
ATOM      9  C   UNL     1       8.021  -2.132  22.039  0.00  0.00    +0.264 C 
BRANCH   9  13
ATOM     10  C   UNL     1       5.575  -4.849  24.369  0.00  0.00    -0.045 A 
ATOM     11  C   UNL     1       4.981  -3.931  23.492  0.00  0.00    +0.004 A 
ATOM     12  C   UNL     1       5.765  -3.072  22.721  0.00  0.00    +0.007 A 
ATOM     13  C   UNL     1       7.162  -3.119  22.795  0.00  0.00    -0.010 A 
ATOM     14  C   UNL     1       7.759  -4.043  23.661  0.00  0.00    +0.007 A 
ATOM     15  C   UNL     1       6.975  -4.902  24.437  0.00  0.00    +0.004 A 
BRANCH  10  17
ATOM     16  C   UNL     1       4.265  -6.997  24.476  0.00  0.00    +0.012 C 
ATOM     17  C   UNL     1       4.738  -5.761  25.246  0.00  0.00    +0.013 C 
ATOM     18  C   UNL     1       5.495  -6.162  26.513  0.00  0.00    +0.012 C 
ENDBRANCH  10  17
ENDBRANCH   9  13
ENDBRANCH   8   9
ENDBRANCH   1   8
BRANCH   4  19
ATOM     19  C   UNL     1      10.444   3.608  23.657  0.00  0.00    +0.131 C 
BRANCH  19  20
ATOM     20  C   UNL     1       9.188   4.465  23.715  0.00  0.00    +0.217 C 
ATOM     21  N   UNL     1       9.322   5.688  23.087  0.00  0.00    -0.314 N 
ATOM     22  H   UNL     1      10.221   5.994  22.738  0.00  0.00    +0.149 HD
ATOM     23  O   UNL     1       8.139   4.102  24.236  0.00  0.00    -0.275 OA
BRANCH  21  24
ATOM     24  C   UNL     1       8.203   6.611  22.981  0.00  0.00    +0.119 C 
BRANCH  24  25
ATOM     25  C   UNL     1       7.289   6.303  21.787  0.00  0.00    +0.096 C 
BRANCH  25  26
ATOM     26  N   UNL     1       6.084   5.573  22.198  0.00  0.00    -0.329 NA
ATOM     27  H   UNL     1       6.259   5.138  23.103  0.00  0.00    +0.118 HD
ATOM     28  H   UNL     1       5.331   6.242  22.349  0.00  0.00    +0.118 HD
ENDBRANCH  25  26
ENDBRANCH  24  25
ENDBRANCH  21  24
ENDBRANCH  19  20
ENDBRANCH   4  19
TORSDOF 9
ENDMDL
