MODEL 1
REMARK VINA RESULT:      -7.6      0.000      0.000
REMARK  Name = 
REMARK  8 active torsions:
REMARK  status: ('A' for Active; 'I' for Inactive)
REMARK    1  A    between atoms: O_1  and  C_2
REMARK    2  A    between atoms: C_5  and  C_8
REMARK    3  A    between atoms: C_13  and  O_14
REMARK    4  A    between atoms: C_19  and  C_21
REMARK    5  A    between atoms: C_24  and  O_25
REMARK    6  A    between atoms: O_25  and  C_26
REMARK    7  A    between atoms: C_26  and  C_27
REMARK    8  A    between atoms: C_27  and  N_28
REMARK                            x       y       z     vdW  Elec       q    Type
REMARK                         _______ _______ _______ _____ _____    ______ ____
ROOT
ATOM      1  C   UNL     1       8.004  -2.080  24.756  0.00  0.00    +0.126 C 
ATOM      2  C   UNL     1       8.073  -2.448  23.250  0.00  0.00    +0.221 C 
ATOM      3  O   UNL     1       7.959  -1.311  22.377  0.00  0.00    -0.482 OA
ATOM      4  C   UNL     1       8.782  -0.244  22.614  0.00  0.00    +0.135 A 
ATOM      5  C   UNL     1       9.470   0.017  23.806  0.00  0.00    +0.054 A 
ATOM      6  C   UNL     1      10.186   1.216  23.943  0.00  0.00    +0.063 A 
ATOM      7  C   UNL     1      10.230   2.126  22.892  0.00  0.00    +0.118 A 
ATOM      8  C   UNL     1       9.592   1.853  21.691  0.00  0.00    +0.049 A 
ATOM      9  C   UNL     1       8.862   0.671  21.557  0.00  0.00    +0.050 A 
ATOM     10  S   UNL     1       9.486  -1.096  25.191  0.00  0.00    -0.109 S 
ENDROOT
BRANCH   1  14
ATOM     11  C   UNL     1       7.437  -5.343  27.547  0.00  0.00    +0.117 A 
ATOM     12  C   UNL     1       8.611  -5.289  26.805  0.00  0.00    +0.046 A 
ATOM     13  C   UNL     1       8.834  -4.221  25.933  0.00  0.00    +0.008 A 
ATOM     14  C   UNL     1       7.862  -3.219  25.761  0.00  0.00    -0.030 A 
ATOM     15  C   UNL     1       6.708  -3.274  26.561  0.00  0.00    +0.008 A 
ATOM     16  C   UNL     1       6.494  -4.329  27.450  0.00  0.00    +0.046 A 
BRANCH  11  17
ATOM     17  O   UNL     1       7.246  -6.416  28.363  0.00  0.00    -0.507 OA
ATOM     18  H   UNL     1       6.899  -7.149  27.828  0.00  0.00    +0.292 HD
ENDBRANCH  11  17
ENDBRANCH   1  14
BRANCH   2  19
ATOM     19  C   UNL     1       6.939  -3.387  22.838  0.00  0.00    -0.006 A 
ATOM     20  C   UNL     1       5.585  -3.088  23.074  0.00  0.00    +0.011 A 
ATOM     21  C   UNL     1       4.588  -4.047  22.827  0.00  0.00    +0.046 A 
ATOM     22  C   UNL     1       4.922  -5.306  22.330  0.00  0.00    +0.121 A 
ATOM     23  C   UNL     1       6.260  -5.568  22.019  0.00  0.00    +0.046 A 
ATOM     24  C   UNL     1       7.252  -4.621  22.261  0.00  0.00    +0.011 A 
BRANCH  22  25
ATOM     25  O   UNL     1       3.892  -6.215  22.192  0.00  0.00    -0.491 OA
BRANCH  25  26
ATOM     26  C   UNL     1       2.792  -5.972  23.081  0.00  0.00    +0.244 C 
BRANCH  26  27
ATOM     27  C   UNL     1       1.977  -7.234  23.400  0.00  0.00    +0.125 C 
BRANCH  27  28
ATOM     28  N   UNL     1       2.657  -8.089  24.399  0.00  0.00    -0.299 NA
ATOM     29  C   UNL     1       1.764  -9.113  24.962  0.00  0.00    +0.084 C 
ATOM     30  C   UNL     1       0.740  -8.563  25.957  0.00  0.00    +0.015 C 
ATOM     31  C   UNL     1       1.407  -7.741  27.058  0.00  0.00    +0.002 C 
ATOM     32  C   UNL     1       2.358  -6.704  26.474  0.00  0.00    +0.015 C 
ATOM     33  C   UNL     1       3.327  -7.355  25.487  0.00  0.00    +0.084 C 
ENDBRANCH  27  28
ENDBRANCH  26  27
ENDBRANCH  25  26
ENDBRANCH  22  25
ENDBRANCH   2  19
BRANCH   7  34
ATOM     34  O   UNL     1      10.889   3.314  23.007  0.00  0.00    -0.507 OA
ATOM     35  H   UNL     1      10.255   4.039  22.880  0.00  0.00    +0.292 HD
ENDBRANCH   7  34
TORSDOF 8
ENDMDL
MODEL 2
REMARK VINA RESULT:      -7.4      1.727      3.912
REMARK  Name = 
REMARK  8 active torsions:
REMARK  status: ('A' for Active; 'I' for Inactive)
REMARK    1  A    between atoms: O_1  and  C_2
REMARK    2  A    between atoms: C_5  and  C_8
REMARK    3  A    between atoms: C_13  and  O_14
REMARK    4  A    between atoms: C_19  and  C_21
REMARK    5  A    between atoms: C_24  and  O_25
REMARK    6  A    between atoms: O_25  and  C_26
REMARK    7  A    between atoms: C_26  and  C_27
REMARK    8  A    between atoms: C_27  and  N_28
REMARK                            x       y       z     vdW  Elec       q    Type
REMARK                         _______ _______ _______ _____ _____    ______ ____
ROOT
ATOM      1  C   UNL     1       8.003  -1.960  23.406  0.00  0.00    +0.126 C 
ATOM      2  C   UNL     1       7.032  -1.095  24.254  0.00  0.00    +0.221 C 
ATOM      3  O   UNL     1       7.683  -0.017  24.948  0.00  0.00    -0.482 OA
ATOM      4  C   UNL     1       8.497   0.808  24.219  0.00  0.00    +0.135 A 
ATOM      5  C   UNL     1       9.044   0.522  22.962  0.00  0.00    +0.054 A 
ATOM      6  C   UNL     1       9.959   1.419  22.387  0.00  0.00    +0.063 A 
ATOM      7  C   UNL     1      10.297   2.593  23.052  0.00  0.00    +0.118 A 
ATOM      8  C   UNL     1       9.721   2.906  24.274  0.00  0.00    +0.049 A 
ATOM      9  C   UNL     1       8.827   2.008  24.860  0.00  0.00    +0.050 A 
ATOM     10  S   UNL     1       8.654  -0.941  22.032  0.00  0.00    -0.109 S 
ENDROOT
BRANCH   1  14
ATOM     11  C   UNL     1       6.517  -5.613  21.615  0.00  0.00    +0.117 A 
ATOM     12  C   UNL     1       7.483  -5.697  22.610  0.00  0.00    +0.046 A 
ATOM     13  C   UNL     1       7.943  -4.535  23.233  0.00  0.00    +0.008 A 
ATOM     14  C   UNL     1       7.472  -3.270  22.833  0.00  0.00    -0.030 A 
ATOM     15  C   UNL     1       6.459  -3.221  21.860  0.00  0.00    +0.008 A 
ATOM     16  C   UNL     1       5.982  -4.384  21.253  0.00  0.00    +0.046 A 
BRANCH  11  17
ATOM     17  O   UNL     1       6.117  -6.767  21.014  0.00  0.00    -0.507 OA
ATOM     18  H   UNL     1       5.359  -6.567  20.440  0.00  0.00    +0.292 HD
ENDBRANCH  11  17
ENDBRANCH   1  14
BRANCH   2  19
ATOM     19  C   UNL     1       6.339  -1.914  25.343  0.00  0.00    -0.006 A 
ATOM     20  C   UNL     1       7.046  -2.732  26.241  0.00  0.00    +0.011 A 
ATOM     21  C   UNL     1       6.361  -3.590  27.118  0.00  0.00    +0.046 A 
ATOM     22  C   UNL     1       4.967  -3.633  27.124  0.00  0.00    +0.121 A 
ATOM     23  C   UNL     1       4.269  -2.757  26.287  0.00  0.00    +0.046 A 
ATOM     24  C   UNL     1       4.943  -1.905  25.416  0.00  0.00    +0.011 A 
BRANCH  22  25
ATOM     25  O   UNL     1       4.376  -4.560  27.959  0.00  0.00    -0.491 OA
BRANCH  25  26
ATOM     26  C   UNL     1       4.591  -5.919  27.548  0.00  0.00    +0.244 C 
BRANCH  26  27
ATOM     27  C   UNL     1       3.385  -6.534  26.823  0.00  0.00    +0.125 C 
BRANCH  27  28
ATOM     28  N   UNL     1       3.793  -7.269  25.605  0.00  0.00    -0.299 NA
ATOM     29  C   UNL     1       4.605  -6.445  24.698  0.00  0.00    +0.084 C 
ATOM     30  C   UNL     1       3.802  -5.391  23.933  0.00  0.00    +0.015 C 
ATOM     31  C   UNL     1       2.609  -6.006  23.206  0.00  0.00    +0.002 C 
ATOM     32  C   UNL     1       1.788  -6.887  24.140  0.00  0.00    +0.015 C 
ATOM     33  C   UNL     1       2.686  -7.893  24.860  0.00  0.00    +0.084 C 
ENDBRANCH  27  28
ENDBRANCH  26  27
ENDBRANCH  25  26
ENDBRANCH  22  25
ENDBRANCH   2  19
BRANCH   7  34
ATOM     34  O   UNL     1      11.206   3.467  22.534  0.00  0.00    -0.507 OA
ATOM     35  H   UNL     1      11.043   4.349  22.910  0.00  0.00    +0.292 HD
ENDBRANCH   7  34
TORSDOF 8
ENDMDL
MODEL 3
REMARK VINA RESULT:      -7.1      4.150      9.682
REMARK  Name = 
REMARK  8 active torsions:
REMARK  status: ('A' for Active; 'I' for Inactive)
REMARK    1  A    between atoms: O_1  and  C_2
REMARK    2  A    between atoms: C_5  and  C_8
REMARK    3  A    between atoms: C_13  and  O_14
REMARK    4  A    between atoms: C_19  and  C_21
REMARK    5  A    between atoms: C_24  and  O_25
REMARK    6  A    between atoms: O_25  and  C_26
REMARK    7  A    between atoms: C_26  and  C_27
REMARK    8  A    between atoms: C_27  and  N_28
REMARK                            x       y       z     vdW  Elec       q    Type
REMARK                         _______ _______ _______ _____ _____    ______ ____
ROOT
ATOM      1  C   UNL     1       7.780  -0.827  23.293  0.00  0.00    +0.126 C 
ATOM      2  C   UNL     1       7.173  -1.146  24.685  0.00  0.00    +0.221 C 
ATOM      3  O   UNL     1       6.052  -2.044  24.628  0.00  0.00    -0.482 OA
ATOM      4  C   UNL     1       6.208  -3.212  23.931  0.00  0.00    +0.135 A 
ATOM      5  C   UNL     1       7.202  -3.475  22.980  0.00  0.00    +0.054 A 
ATOM      6  C   UNL     1       7.166  -4.679  22.258  0.00  0.00    +0.063 A 
ATOM      7  C   UNL     1       6.164  -5.611  22.506  0.00  0.00    +0.118 A 
ATOM      8  C   UNL     1       5.205  -5.378  23.481  0.00  0.00    +0.049 A 
ATOM      9  C   UNL     1       5.224  -4.175  24.186  0.00  0.00    +0.050 A 
ATOM     10  S   UNL     1       8.530  -2.353  22.613  0.00  0.00    -0.109 S 
ENDROOT
BRANCH   1  14
ATOM     11  C   UNL     1      10.555   2.486  23.005  0.00  0.00    +0.117 A 
ATOM     12  C   UNL     1      10.633   1.638  24.103  0.00  0.00    +0.046 A 
ATOM     13  C   UNL     1       9.778   0.537  24.193  0.00  0.00    +0.008 A 
ATOM     14  C   UNL     1       8.804   0.300  23.205  0.00  0.00    -0.030 A 
ATOM     15  C   UNL     1       8.784   1.146  22.083  0.00  0.00    +0.008 A 
ATOM     16  C   UNL     1       9.653   2.234  21.981  0.00  0.00    +0.046 A 
BRANCH  11  17
ATOM     17  O   UNL     1      11.386   3.564  22.971  0.00  0.00    -0.507 OA
ATOM     18  H   UNL     1      12.278   3.256  22.742  0.00  0.00    +0.292 HD
ENDBRANCH  11  17
ENDBRANCH   1  14
BRANCH   2  19
ATOM     19  C   UNL     1       6.647   0.110  25.380  0.00  0.00    -0.006 A 
ATOM     20  C   UNL     1       5.724   0.981  24.776  0.00  0.00    +0.011 A 
ATOM     21  C   UNL     1       5.391   2.204  25.382  0.00  0.00    +0.046 A 
ATOM     22  C   UNL     1       5.960   2.569  26.601  0.00  0.00    +0.121 A 
ATOM     23  C   UNL     1       6.813   1.662  27.238  0.00  0.00    +0.046 A 
ATOM     24  C   UNL     1       7.145   0.448  26.642  0.00  0.00    +0.011 A 
BRANCH  22  25
ATOM     25  O   UNL     1       5.641   3.821  27.088  0.00  0.00    -0.491 OA
BRANCH  25  26
ATOM     26  C   UNL     1       6.774   4.543  27.594  0.00  0.00    +0.244 C 
BRANCH  26  27
ATOM     27  C   UNL     1       7.298   5.611  26.623  0.00  0.00    +0.125 C 
BRANCH  27  28
ATOM     28  N   UNL     1       8.570   5.197  25.986  0.00  0.00    -0.299 NA
ATOM     29  C   UNL     1       9.410   6.345  25.614  0.00  0.00    +0.084 C 
ATOM     30  C   UNL     1       8.908   7.108  24.386  0.00  0.00    +0.015 C 
ATOM     31  C   UNL     1       8.679   6.178  23.197  0.00  0.00    +0.002 C 
ATOM     32  C   UNL     1       7.837   4.971  23.594  0.00  0.00    +0.015 C 
ATOM     33  C   UNL     1       8.417   4.292  24.835  0.00  0.00    +0.084 C 
ENDBRANCH  27  28
ENDBRANCH  26  27
ENDBRANCH  25  26
ENDBRANCH  22  25
ENDBRANCH   2  19
BRANCH   7  34
ATOM     34  O   UNL     1       6.084  -6.774  21.799  0.00  0.00    -0.507 OA
ATOM     35  H   UNL     1       6.952  -7.211  21.815  0.00  0.00    +0.292 HD
ENDBRANCH   7  34
TORSDOF 8
ENDMDL
MODEL 4
REMARK VINA RESULT:      -6.9      4.167      9.575
REMARK  Name = 
REMARK  8 active torsions:
REMARK  status: ('A' for Active; 'I' for Inactive)
REMARK    1  A    between atoms: O_1  and  C_2
REMARK    2  A    between atoms: C_5  and  C_8
REMARK    3  A    between atoms: C_13  and  O_14
REMARK    4  A    between atoms: C_19  and  C_21
REMARK    5  A    between atoms: C_24  and  O_25
REMARK    6  A    between atoms: O_25  and  C_26
REMARK    7  A    between atoms: C_26  and  C_27
REMARK    8  A    between atoms: C_27  and  N_28
REMARK                            x       y       z     vdW  Elec       q    Type
REMARK                         _______ _______ _______ _____ _____    ______ ____
ROOT
ATOM      1  C   UNL     1       6.828  -1.222  24.990  0.00  0.00    +0.126 C 
ATOM      2  C   UNL     1       7.468  -1.163  23.578  0.00  0.00    +0.221 C 
ATOM      3  O   UNL     1       7.979  -2.429  23.127  0.00  0.00    -0.482 OA
ATOM      4  C   UNL     1       7.143  -3.511  23.193  0.00  0.00    +0.135 A 
ATOM      5  C   UNL     1       5.980  -3.606  23.967  0.00  0.00    +0.054 A 
ATOM      6  C   UNL     1       5.285  -4.824  24.025  0.00  0.00    +0.063 A 
ATOM      7  C   UNL     1       5.739  -5.920  23.298  0.00  0.00    +0.118 A 
ATOM      8  C   UNL     1       6.863  -5.820  22.492  0.00  0.00    +0.049 A 
ATOM      9  C   UNL     1       7.568  -4.617  22.447  0.00  0.00    +0.050 A 
ATOM     10  S   UNL     1       5.316  -2.253  24.909  0.00  0.00    -0.109 S 
ENDROOT
BRANCH   1  14
ATOM     11  C   UNL     1       5.674   2.488  26.904  0.00  0.00    +0.117 A 
ATOM     12  C   UNL     1       6.646   1.697  27.503  0.00  0.00    +0.046 A 
ATOM     13  C   UNL     1       7.066   0.519  26.880  0.00  0.00    +0.008 A 
ATOM     14  C   UNL     1       6.482   0.098  25.671  0.00  0.00    -0.030 A 
ATOM     15  C   UNL     1       5.538   0.944  25.065  0.00  0.00    +0.008 A 
ATOM     16  C   UNL     1       5.134   2.133  25.675  0.00  0.00    +0.046 A 
BRANCH  11  17
ATOM     17  O   UNL     1       5.272   3.612  27.558  0.00  0.00    -0.507 OA
ATOM     18  H   UNL     1       5.161   4.323  26.906  0.00  0.00    +0.292 HD
ENDBRANCH  11  17
ENDBRANCH   1  14
BRANCH   2  19
ATOM     19  C   UNL     1       8.661  -0.208  23.531  0.00  0.00    -0.006 A 
ATOM     20  C   UNL     1       9.697  -0.242  24.481  0.00  0.00    +0.011 A 
ATOM     21  C   UNL     1      10.688   0.754  24.496  0.00  0.00    +0.046 A 
ATOM     22  C   UNL     1      10.669   1.786  23.558  0.00  0.00    +0.121 A 
ATOM     23  C   UNL     1       9.686   1.768  22.564  0.00  0.00    +0.046 A 
ATOM     24  C   UNL     1       8.701   0.782  22.546  0.00  0.00    +0.011 A 
BRANCH  22  25
ATOM     25  O   UNL     1      11.632   2.766  23.692  0.00  0.00    -0.491 OA
BRANCH  25  26
ATOM     26  C   UNL     1      11.318   3.976  22.985  0.00  0.00    +0.244 C 
BRANCH  26  27
ATOM     27  C   UNL     1      11.083   5.178  23.911  0.00  0.00    +0.125 C 
BRANCH  27  28
ATOM     28  N   UNL     1       9.765   5.808  23.668  0.00  0.00    -0.299 NA
ATOM     29  C   UNL     1       9.474   6.887  24.624  0.00  0.00    +0.084 C 
ATOM     30  C   UNL     1       9.109   6.391  26.025  0.00  0.00    +0.015 C 
ATOM     31  C   UNL     1       7.980   5.365  25.985  0.00  0.00    +0.002 C 
ATOM     32  C   UNL     1       8.267   4.266  24.968  0.00  0.00    +0.015 C 
ATOM     33  C   UNL     1       8.632   4.869  23.611  0.00  0.00    +0.084 C 
ENDBRANCH  27  28
ENDBRANCH  26  27
ENDBRANCH  25  26
ENDBRANCH  22  25
ENDBRANCH   2  19
BRANCH   7  34
ATOM     34  O   UNL     1       5.105  -7.126  23.360  0.00  0.00    -0.507 OA
ATOM     35  H   UNL     1       5.292  -7.536  24.221  0.00  0.00    +0.292 HD
ENDBRANCH   7  34
TORSDOF 8
ENDMDL
MODEL 5
REMARK VINA RESULT:      -6.9      4.669      8.488
REMARK  Name = 
REMARK  8 active torsions:
REMARK  status: ('A' for Active; 'I' for Inactive)
REMARK    1  A    between atoms: O_1  and  C_2
REMARK    2  A    between atoms: C_5  and  C_8
REMARK    3  A    between atoms: C_13  and  O_14
REMARK    4  A    between atoms: C_19  and  C_21
REMARK    5  A    between atoms: C_24  and  O_25
REMARK    6  A    between atoms: O_25  and  C_26
REMARK    7  A    between atoms: C_26  and  C_27
REMARK    8  A    between atoms: C_27  and  N_28
REMARK                            x       y       z     vdW  Elec       q    Type
REMARK                         _______ _______ _______ _____ _____    ______ ____
ROOT
ATOM      1  C   UNL     1       7.633   5.114  23.931  0.00  0.00    +0.126 C 
ATOM      2  C   UNL     1       7.522   3.963  22.895  0.00  0.00    +0.221 C 
ATOM      3  O   UNL     1       6.212   3.373  22.833  0.00  0.00    -0.482 OA
ATOM      4  C   UNL     1       5.144   4.215  22.680  0.00  0.00    +0.135 A 
ATOM      5  C   UNL     1       5.140   5.593  22.930  0.00  0.00    +0.054 A 
ATOM      6  C   UNL     1       3.935   6.308  22.842  0.00  0.00    +0.063 A 
ATOM      7  C   UNL     1       2.760   5.654  22.486  0.00  0.00    +0.118 A 
ATOM      8  C   UNL     1       2.766   4.299  22.191  0.00  0.00    +0.049 A 
ATOM      9  C   UNL     1       3.957   3.580  22.296  0.00  0.00    +0.050 A 
ATOM     10  S   UNL     1       6.595   6.514  23.369  0.00  0.00    -0.109 S 
ENDROOT
BRANCH   1  14
ATOM     11  C   UNL     1      11.575   6.532  25.032  0.00  0.00    +0.117 A 
ATOM     12  C   UNL     1      11.399   5.927  23.793  0.00  0.00    +0.046 A 
ATOM     13  C   UNL     1      10.128   5.503  23.400  0.00  0.00    +0.008 A 
ATOM     14  C   UNL     1       9.025   5.641  24.263  0.00  0.00    -0.030 A 
ATOM     15  C   UNL     1       9.224   6.302  25.487  0.00  0.00    +0.008 A 
ATOM     16  C   UNL     1      10.490   6.746  25.872  0.00  0.00    +0.046 A 
BRANCH  11  17
ATOM     17  O   UNL     1      12.834   6.903  25.389  0.00  0.00    -0.507 OA
ATOM     18  H   UNL     1      13.177   7.513  24.714  0.00  0.00    +0.292 HD
ENDBRANCH  11  17
ENDBRANCH   1  14
BRANCH   2  19
ATOM     19  C   UNL     1       8.468   2.807  23.223  0.00  0.00    -0.006 A 
ATOM     20  C   UNL     1       9.263   2.179  22.248  0.00  0.00    +0.011 A 
ATOM     21  C   UNL     1       9.994   1.021  22.559  0.00  0.00    +0.046 A 
ATOM     22  C   UNL     1       9.956   0.482  23.845  0.00  0.00    +0.121 A 
ATOM     23  C   UNL     1       9.231   1.158  24.831  0.00  0.00    +0.046 A 
ATOM     24  C   UNL     1       8.504   2.307  24.528  0.00  0.00    +0.011 A 
BRANCH  22  25
ATOM     25  O   UNL     1      10.638  -0.702  24.045  0.00  0.00    -0.491 OA
BRANCH  25  26
ATOM     26  C   UNL     1      10.015  -1.834  23.421  0.00  0.00    +0.244 C 
BRANCH  26  27
ATOM     27  C   UNL     1       9.034  -2.573  24.342  0.00  0.00    +0.125 C 
BRANCH  27  28
ATOM     28  N   UNL     1       9.148  -4.043  24.200  0.00  0.00    -0.299 NA
ATOM     29  C   UNL     1       7.895  -4.661  23.744  0.00  0.00    +0.084 C 
ATOM     30  C   UNL     1       6.811  -4.733  24.822  0.00  0.00    +0.015 C 
ATOM     31  C   UNL     1       7.326  -5.396  26.098  0.00  0.00    +0.002 C 
ATOM     32  C   UNL     1       8.643  -4.776  26.549  0.00  0.00    +0.015 C 
ATOM     33  C   UNL     1       9.647  -4.742  25.397  0.00  0.00    +0.084 C 
ENDBRANCH  27  28
ENDBRANCH  26  27
ENDBRANCH  25  26
ENDBRANCH  22  25
ENDBRANCH   2  19
BRANCH   7  34
ATOM     34  O   UNL     1       1.569   6.315  22.425  0.00  0.00    -0.507 OA
ATOM     35  H   UNL     1       1.409   6.588  21.506  0.00  0.00    +0.292 HD
ENDBRANCH   7  34
TORSDOF 8
ENDMDL
MODEL 6
REMARK VINA RESULT:      -6.8      3.679      8.990
REMARK  Name = 
REMARK  8 active torsions:
REMARK  status: ('A' for Active; 'I' for Inactive)
REMARK    1  A    between atoms: O_1  and  C_2
REMARK    2  A    between atoms: C_5  and  C_8
REMARK    3  A    between atoms: C_13  and  O_14
REMARK    4  A    between atoms: C_19  and  C_21
REMARK    5  A    between atoms: C_24  and  O_25
REMARK    6  A    between atoms: O_25  and  C_26
REMARK    7  A    between atoms: C_26  and  C_27
REMARK    8  A    between atoms: C_27  and  N_28
REMARK                            x       y       z     vdW  Elec       q    Type
REMARK                         _______ _______ _______ _____ _____    ______ ____
ROOT
ATOM      1  C   UNL     1       6.346  -3.522  24.351  0.00  0.00    +0.126 C 
ATOM      2  C   UNL     1       6.105  -3.247  25.859  0.00  0.00    +0.221 C 
ATOM      3  O   UNL     1       4.812  -3.678  26.319  0.00  0.00    -0.482 OA
ATOM      4  C   UNL     1       4.430  -4.960  26.032  0.00  0.00    +0.135 A 
ATOM      5  C   UNL     1       4.992  -5.786  25.050  0.00  0.00    +0.054 A 
ATOM      6  C   UNL     1       4.417  -7.040  24.789  0.00  0.00    +0.063 A 
ATOM      7  C   UNL     1       3.312  -7.465  25.520  0.00  0.00    +0.118 A 
ATOM      8  C   UNL     1       2.781  -6.674  26.527  0.00  0.00    +0.049 A 
ATOM      9  C   UNL     1       3.336  -5.419  26.776  0.00  0.00    +0.050 A 
ATOM     10  S   UNL     1       6.414  -5.333  24.085  0.00  0.00    -0.109 S 
ENDROOT
BRANCH   1  14
ATOM     11  C   UNL     1       9.909  -1.875  22.519  0.00  0.00    +0.117 A 
ATOM     12  C   UNL     1       8.679  -1.668  21.904  0.00  0.00    +0.046 A 
ATOM     13  C   UNL     1       7.513  -2.151  22.502  0.00  0.00    +0.008 A 
ATOM     14  C   UNL     1       7.571  -2.888  23.699  0.00  0.00    -0.030 A 
ATOM     15  C   UNL     1       8.822  -3.038  24.322  0.00  0.00    +0.008 A 
ATOM     16  C   UNL     1       9.986  -2.535  23.738  0.00  0.00    +0.046 A 
BRANCH  11  17
ATOM     17  O   UNL     1      11.023  -1.414  21.888  0.00  0.00    -0.507 OA
ATOM     18  H   UNL     1      10.954  -0.448  21.812  0.00  0.00    +0.292 HD
ENDBRANCH  11  17
ENDBRANCH   1  14
BRANCH   2  19
ATOM     19  C   UNL     1       6.172  -1.756  26.186  0.00  0.00    -0.006 A 
ATOM     20  C   UNL     1       7.223  -1.189  26.927  0.00  0.00    +0.011 A 
ATOM     21  C   UNL     1       7.165   0.152  27.342  0.00  0.00    +0.046 A 
ATOM     22  C   UNL     1       6.069   0.949  27.013  0.00  0.00    +0.121 A 
ATOM     23  C   UNL     1       5.066   0.404  26.204  0.00  0.00    +0.046 A 
ATOM     24  C   UNL     1       5.120  -0.925  25.791  0.00  0.00    +0.011 A 
BRANCH  22  25
ATOM     25  O   UNL     1       6.053   2.230  27.527  0.00  0.00    -0.491 OA
BRANCH  25  26
ATOM     26  C   UNL     1       6.079   3.251  26.518  0.00  0.00    +0.244 C 
BRANCH  26  27
ATOM     27  C   UNL     1       7.493   3.568  26.010  0.00  0.00    +0.125 C 
BRANCH  27  28
ATOM     28  N   UNL     1       7.523   3.740  24.539  0.00  0.00    -0.299 NA
ATOM     29  C   UNL     1       6.955   2.585  23.829  0.00  0.00    +0.084 C 
ATOM     30  C   UNL     1       7.865   1.354  23.821  0.00  0.00    +0.015 C 
ATOM     31  C   UNL     1       9.264   1.688  23.309  0.00  0.00    +0.002 C 
ATOM     32  C   UNL     1       9.836   2.906  24.023  0.00  0.00    +0.015 C 
ATOM     33  C   UNL     1       8.846   4.070  23.983  0.00  0.00    +0.084 C 
ENDBRANCH  27  28
ENDBRANCH  26  27
ENDBRANCH  25  26
ENDBRANCH  22  25
ENDBRANCH   2  19
BRANCH   7  34
ATOM     34  O   UNL     1       2.712  -8.664  25.267  0.00  0.00    -0.507 OA
ATOM     35  H   UNL     1       3.011  -9.310  25.929  0.00  0.00    +0.292 HD
ENDBRANCH   7  34
TORSDOF 8
ENDMDL
MODEL 7
REMARK VINA RESULT:      -6.7      2.626      4.256
REMARK  Name = 
REMARK  8 active torsions:
REMARK  status: ('A' for Active; 'I' for Inactive)
REMARK    1  A    between atoms: O_1  and  C_2
REMARK    2  A    between atoms: C_5  and  C_8
REMARK    3  A    between atoms: C_13  and  O_14
REMARK    4  A    between atoms: C_19  and  C_21
REMARK    5  A    between atoms: C_24  and  O_25
REMARK    6  A    between atoms: O_25  and  C_26
REMARK    7  A    between atoms: C_26  and  C_27
REMARK    8  A    between atoms: C_27  and  N_28
REMARK                            x       y       z     vdW  Elec       q    Type
REMARK                         _______ _______ _______ _____ _____    ______ ____
ROOT
ATOM      1  C   UNL     1       8.015  -1.643  23.519  0.00  0.00    +0.126 C 
ATOM      2  C   UNL     1       6.874  -0.709  24.006  0.00  0.00    +0.221 C 
ATOM      3  O   UNL     1       7.348   0.468  24.682  0.00  0.00    -0.482 OA
ATOM      4  C   UNL     1       8.304   1.220  24.054  0.00  0.00    +0.135 A 
ATOM      5  C   UNL     1       9.124   0.796  23.001  0.00  0.00    +0.054 A 
ATOM      6  C   UNL     1      10.143   1.642  22.535  0.00  0.00    +0.063 A 
ATOM      7  C   UNL     1      10.317   2.901  23.100  0.00  0.00    +0.118 A 
ATOM      8  C   UNL     1       9.477   3.346  24.110  0.00  0.00    +0.049 A 
ATOM      9  C   UNL     1       8.476   2.502  24.591  0.00  0.00    +0.050 A 
ATOM     10  S   UNL     1       8.960  -0.785  22.206  0.00  0.00    -0.109 S 
ENDROOT
BRANCH   1  14
ATOM     11  C   UNL     1       6.874  -5.626  22.256  0.00  0.00    +0.117 A 
ATOM     12  C   UNL     1       6.465  -4.536  21.496  0.00  0.00    +0.046 A 
ATOM     13  C   UNL     1       6.860  -3.247  21.860  0.00  0.00    +0.008 A 
ATOM     14  C   UNL     1       7.632  -3.031  23.016  0.00  0.00    -0.030 A 
ATOM     15  C   UNL     1       8.072  -4.156  23.735  0.00  0.00    +0.008 A 
ATOM     16  C   UNL     1       7.697  -5.447  23.360  0.00  0.00    +0.046 A 
BRANCH  11  17
ATOM     17  O   UNL     1       6.443  -6.862  21.884  0.00  0.00    -0.507 OA
ATOM     18  H   UNL     1       5.483  -6.822  21.743  0.00  0.00    +0.292 HD
ENDBRANCH  11  17
ENDBRANCH   1  14
BRANCH   2  19
ATOM     19  C   UNL     1       5.954  -1.406  25.007  0.00  0.00    -0.006 A 
ATOM     20  C   UNL     1       4.913  -2.263  24.611  0.00  0.00    +0.011 A 
ATOM     21  C   UNL     1       3.992  -2.754  25.552  0.00  0.00    +0.046 A 
ATOM     22  C   UNL     1       4.104  -2.411  26.899  0.00  0.00    +0.121 A 
ATOM     23  C   UNL     1       5.190  -1.626  27.300  0.00  0.00    +0.046 A 
ATOM     24  C   UNL     1       6.105  -1.137  26.371  0.00  0.00    +0.011 A 
BRANCH  22  25
ATOM     25  O   UNL     1       3.113  -2.869  27.744  0.00  0.00    -0.491 OA
BRANCH  25  26
ATOM     26  C   UNL     1       2.829  -4.267  27.584  0.00  0.00    +0.244 C 
BRANCH  26  27
ATOM     27  C   UNL     1       3.595  -5.160  28.572  0.00  0.00    +0.125 C 
BRANCH  27  28
ATOM     28  N   UNL     1       4.194  -6.335  27.899  0.00  0.00    -0.299 NA
ATOM     29  C   UNL     1       5.100  -7.085  28.781  0.00  0.00    +0.084 C 
ATOM     30  C   UNL     1       6.443  -6.393  29.022  0.00  0.00    +0.015 C 
ATOM     31  C   UNL     1       7.129  -6.017  27.711  0.00  0.00    +0.002 C 
ATOM     32  C   UNL     1       6.177  -5.269  26.785  0.00  0.00    +0.015 C 
ATOM     33  C   UNL     1       4.867  -6.039  26.623  0.00  0.00    +0.084 C 
ENDBRANCH  27  28
ENDBRANCH  26  27
ENDBRANCH  25  26
ENDBRANCH  22  25
ENDBRANCH   2  19
BRANCH   7  34
ATOM     34  O   UNL     1      11.318   3.731  22.691  0.00  0.00    -0.507 OA
ATOM     35  H   UNL     1      12.131   3.211  22.578  0.00  0.00    +0.292 HD
ENDBRANCH   7  34
TORSDOF 8
ENDMDL
MODEL 8
REMARK VINA RESULT:      -6.7      2.351      3.502
REMARK  Name = 
REMARK  8 active torsions:
REMARK  status: ('A' for Active; 'I' for Inactive)
REMARK    1  A    between atoms: O_1  and  C_2
REMARK    2  A    between atoms: C_5  and  C_8
REMARK    3  A    between atoms: C_13  and  O_14
REMARK    4  A    between atoms: C_19  and  C_21
REMARK    5  A    between atoms: C_24  and  O_25
REMARK    6  A    between atoms: O_25  and  C_26
REMARK    7  A    between atoms: C_26  and  C_27
REMARK    8  A    between atoms: C_27  and  N_28
REMARK                            x       y       z     vdW  Elec       q    Type
REMARK                         _______ _______ _______ _____ _____    ______ ____
ROOT
ATOM      1  C   UNL     1       8.784  -0.688  25.115  0.00  0.00    +0.126 C 
ATOM      2  C   UNL     1       7.446  -0.193  24.503  0.00  0.00    +0.221 C 
ATOM      3  O   UNL     1       7.250   1.226  24.628  0.00  0.00    -0.482 OA
ATOM      4  C   UNL     1       8.262   2.046  24.210  0.00  0.00    +0.135 A 
ATOM      5  C   UNL     1       9.595   1.669  24.004  0.00  0.00    +0.054 A 
ATOM      6  C   UNL     1      10.550   2.648  23.687  0.00  0.00    +0.063 A 
ATOM      7  C   UNL     1      10.166   3.979  23.556  0.00  0.00    +0.118 A 
ATOM      8  C   UNL     1       8.839   4.353  23.711  0.00  0.00    +0.049 A 
ATOM      9  C   UNL     1       7.891   3.386  24.045  0.00  0.00    +0.050 A 
ATOM     10  S   UNL     1      10.170  -0.008  24.129  0.00  0.00    -0.109 S 
ENDROOT
BRANCH   1  14
ATOM     11  C   UNL     1       9.187  -4.973  25.602  0.00  0.00    +0.117 A 
ATOM     12  C   UNL     1       9.586  -4.392  24.404  0.00  0.00    +0.046 A 
ATOM     13  C   UNL     1       9.507  -3.007  24.243  0.00  0.00    +0.008 A 
ATOM     14  C   UNL     1       8.985  -2.193  25.265  0.00  0.00    -0.030 A 
ATOM     15  C   UNL     1       8.637  -2.803  26.482  0.00  0.00    +0.008 A 
ATOM     16  C   UNL     1       8.737  -4.185  26.653  0.00  0.00    +0.046 A 
BRANCH  11  17
ATOM     17  O   UNL     1       9.252  -6.328  25.708  0.00  0.00    -0.507 OA
ATOM     18  H   UNL     1      10.187  -6.585  25.777  0.00  0.00    +0.292 HD
ENDBRANCH  11  17
ENDBRANCH   1  14
BRANCH   2  19
ATOM     19  C   UNL     1       6.236  -0.829  25.187  0.00  0.00    -0.006 A 
ATOM     20  C   UNL     1       5.815  -0.462  26.477  0.00  0.00    +0.011 A 
ATOM     21  C   UNL     1       4.800  -1.182  27.130  0.00  0.00    +0.046 A 
ATOM     22  C   UNL     1       4.183  -2.264  26.505  0.00  0.00    +0.121 A 
ATOM     23  C   UNL     1       4.547  -2.572  25.190  0.00  0.00    +0.046 A 
ATOM     24  C   UNL     1       5.552  -1.861  24.538  0.00  0.00    +0.011 A 
BRANCH  22  25
ATOM     25  O   UNL     1       3.253  -2.965  27.246  0.00  0.00    -0.491 OA
BRANCH  25  26
ATOM     26  C   UNL     1       3.657  -4.310  27.544  0.00  0.00    +0.244 C 
BRANCH  26  27
ATOM     27  C   UNL     1       2.900  -5.367  26.727  0.00  0.00    +0.125 C 
BRANCH  27  28
ATOM     28  N   UNL     1       3.709  -6.592  26.531  0.00  0.00    -0.299 NA
ATOM     29  C   UNL     1       5.148  -6.306  26.443  0.00  0.00    +0.084 C 
ATOM     30  C   UNL     1       5.574  -5.672  25.117  0.00  0.00    +0.015 C 
ATOM     31  C   UNL     1       5.097  -6.491  23.920  0.00  0.00    +0.002 C 
ATOM     32  C   UNL     1       3.612  -6.816  24.030  0.00  0.00    +0.015 C 
ATOM     33  C   UNL     1       3.294  -7.431  25.393  0.00  0.00    +0.084 C 
ENDBRANCH  27  28
ENDBRANCH  26  27
ENDBRANCH  25  26
ENDBRANCH  22  25
ENDBRANCH   2  19
BRANCH   7  34
ATOM     34  O   UNL     1      11.076   4.957  23.281  0.00  0.00    -0.507 OA
ATOM     35  H   UNL     1      11.724   4.613  22.644  0.00  0.00    +0.292 HD
ENDBRANCH   7  34
TORSDOF 8
ENDMDL
MODEL 9
REMARK VINA RESULT:      -6.6      4.117      7.708
REMARK  Name = 
REMARK  8 active torsions:
REMARK  status: ('A' for Active; 'I' for Inactive)
REMARK    1  A    between atoms: O_1  and  C_2
REMARK    2  A    between atoms: C_5  and  C_8
REMARK    3  A    between atoms: C_13  and  O_14
REMARK    4  A    between atoms: C_19  and  C_21
REMARK    5  A    between atoms: C_24  and  O_25
REMARK    6  A    between atoms: O_25  and  C_26
REMARK    7  A    between atoms: C_26  and  C_27
REMARK    8  A    between atoms: C_27  and  N_28
REMARK                            x       y       z     vdW  Elec       q    Type
REMARK                         _______ _______ _______ _____ _____    ______ ____
ROOT
ATOM      1  C   UNL     1       8.084   4.289  23.435  0.00  0.00    +0.126 C 
ATOM      2  C   UNL     1       7.575   3.193  22.460  0.00  0.00    +0.221 C 
ATOM      3  O   UNL     1       6.187   2.864  22.645  0.00  0.00    -0.482 OA
ATOM      4  C   UNL     1       5.287   3.894  22.669  0.00  0.00    +0.135 A 
ATOM      5  C   UNL     1       5.588   5.245  22.886  0.00  0.00    +0.054 A 
ATOM      6  C   UNL     1       4.544   6.176  23.000  0.00  0.00    +0.063 A 
ATOM      7  C   UNL     1       3.223   5.761  22.874  0.00  0.00    +0.118 A 
ATOM      8  C   UNL     1       2.919   4.433  22.611  0.00  0.00    +0.049 A 
ATOM      9  C   UNL     1       3.952   3.501  22.516  0.00  0.00    +0.050 A 
ATOM     10  S   UNL     1       7.246   5.868  23.039  0.00  0.00    -0.109 S 
ENDROOT
BRANCH   1  14
ATOM     11  C   UNL     1      12.373   4.895  23.480  0.00  0.00    +0.117 A 
ATOM     12  C   UNL     1      11.537   5.998  23.606  0.00  0.00    +0.046 A 
ATOM     13  C   UNL     1      10.152   5.820  23.640  0.00  0.00    +0.008 A 
ATOM     14  C   UNL     1       9.588   4.538  23.502  0.00  0.00    -0.030 A 
ATOM     15  C   UNL     1      10.460   3.439  23.426  0.00  0.00    +0.008 A 
ATOM     16  C   UNL     1      11.845   3.613  23.415  0.00  0.00    +0.046 A 
BRANCH  11  17
ATOM     17  O   UNL     1      13.715   5.114  23.421  0.00  0.00    -0.507 OA
ATOM     18  H   UNL     1      13.936   5.423  22.527  0.00  0.00    +0.292 HD
ENDBRANCH  11  17
ENDBRANCH   1  14
BRANCH   2  19
ATOM     19  C   UNL     1       8.329   1.876  22.637  0.00  0.00    -0.006 A 
ATOM     20  C   UNL     1       9.026   1.254  21.587  0.00  0.00    +0.011 A 
ATOM     21  C   UNL     1       9.568  -0.032  21.750  0.00  0.00    +0.046 A 
ATOM     22  C   UNL     1       9.436  -0.709  22.961  0.00  0.00    +0.121 A 
ATOM     23  C   UNL     1       8.814  -0.052  24.029  0.00  0.00    +0.046 A 
ATOM     24  C   UNL     1       8.276   1.223  23.872  0.00  0.00    +0.011 A 
BRANCH  22  25
ATOM     25  O   UNL     1       9.926  -1.998  23.012  0.00  0.00    -0.491 OA
BRANCH  25  26
ATOM     26  C   UNL     1       9.023  -2.930  23.627  0.00  0.00    +0.244 C 
BRANCH  26  27
ATOM     27  C   UNL     1       7.850  -3.328  22.720  0.00  0.00    +0.125 C 
BRANCH  27  28
ATOM     28  N   UNL     1       6.544  -3.107  23.382  0.00  0.00    -0.299 NA
ATOM     29  C   UNL     1       6.518  -3.624  24.758  0.00  0.00    +0.084 C 
ATOM     30  C   UNL     1       6.436  -5.150  24.845  0.00  0.00    +0.015 C 
ATOM     31  C   UNL     1       5.273  -5.701  24.023  0.00  0.00    +0.002 C 
ATOM     32  C   UNL     1       5.282  -5.136  22.607  0.00  0.00    +0.015 C 
ATOM     33  C   UNL     1       5.379  -3.611  22.635  0.00  0.00    +0.084 C 
ENDBRANCH  27  28
ENDBRANCH  26  27
ENDBRANCH  25  26
ENDBRANCH  22  25
ENDBRANCH   2  19
BRANCH   7  34
ATOM     34  O   UNL     1       2.186   6.636  23.013  0.00  0.00    -0.507 OA
ATOM     35  H   UNL     1       2.497   7.416  23.503  0.00  0.00    +0.292 HD
ENDBRANCH   7  34
TORSDOF 8
ENDMDL
