MODEL 1
REMARK VINA RESULT:      -4.4      0.000      0.000
REMARK  Name = 
REMARK  5 active torsions:
REMARK  status: ('A' for Active; 'I' for Inactive)
REMARK    1  A    between atoms: N_1  and  C_2
REMARK    2  A    between atoms: C_5  and  O_7
REMARK    3  A    between atoms: C_8  and  C_10
REMARK    4  A    between atoms: C_10  and  O_11
REMARK    5  A    between atoms: C_13  and  O_15
REMARK                            x       y       z     vdW  Elec       q    Type
REMARK                         _______ _______ _______ _____ _____    ______ ____
ROOT
ATOM      1  C   UNL     1       9.907   0.882  21.833  0.00  0.00    +0.110 C 
ATOM      2  C   UNL     1       9.304  -0.515  21.508  0.00  0.00    +0.264 C 
ATOM      3  O   UNL     1       8.285  -0.911  22.428  0.00  0.00    -0.342 OA
ATOM      4  C   UNL     1       8.661  -0.921  23.816  0.00  0.00    +0.175 C 
ATOM      5  C   UNL     1       9.169   0.464  24.243  0.00  0.00    +0.147 C 
ATOM      6  C   UNL     1      10.279   0.974  23.322  0.00  0.00    +0.057 C 
ENDROOT
BRANCH   1   7
ATOM      7  N   UNL     1       9.010   1.985  21.433  0.00  0.00    -0.323 NA
ATOM      8  H   UNL     1       8.118   1.602  21.126  0.00  0.00    +0.119 HD
ATOM      9  H   UNL     1       8.784   2.546  22.256  0.00  0.00    +0.119 HD
ENDBRANCH   1   7
BRANCH   2  10
ATOM     10  O   UNL     1      10.329  -1.489  21.465  0.00  0.00    -0.366 OA
ATOM     11  H   UNL     1      10.621  -1.582  22.390  0.00  0.00    +0.213 HD
ENDBRANCH   2  10
BRANCH   5  12
ATOM     12  O   UNL     1       8.082   1.402  24.223  0.00  0.00    -0.389 OA
ATOM     13  H   UNL     1       7.871   1.586  23.290  0.00  0.00    +0.210 HD
ENDBRANCH   5  12
BRANCH   4  14
ATOM     14  C   UNL     1       9.625  -2.060  24.196  0.00  0.00    +0.190 C 
BRANCH  14  15
ATOM     15  O   UNL     1       9.215  -3.302  23.624  0.00  0.00    -0.392 OA
ATOM     16  H   UNL     1       8.673  -3.770  24.283  0.00  0.00    +0.210 HD
ENDBRANCH  14  15
ENDBRANCH   4  14
TORSDOF 5
ENDMDL
MODEL 2
REMARK VINA RESULT:      -4.4      2.408      3.390
REMARK  Name = 
REMARK  5 active torsions:
REMARK  status: ('A' for Active; 'I' for Inactive)
REMARK    1  A    between atoms: N_1  and  C_2
REMARK    2  A    between atoms: C_5  and  O_7
REMARK    3  A    between atoms: C_8  and  C_10
REMARK    4  A    between atoms: C_10  and  O_11
REMARK    5  A    between atoms: C_13  and  O_15
REMARK                            x       y       z     vdW  Elec       q    Type
REMARK                         _______ _______ _______ _____ _____    ______ ____
ROOT
ATOM      1  C   UNL     1       9.163  -2.229  23.069  0.00  0.00    +0.110 C 
ATOM      2  C   UNL     1      10.191  -1.378  22.268  0.00  0.00    +0.264 C 
ATOM      3  O   UNL     1      10.694  -0.266  23.009  0.00  0.00    -0.342 OA
ATOM      4  C   UNL     1       9.705   0.640  23.530  0.00  0.00    +0.175 C 
ATOM      5  C   UNL     1       8.710  -0.113  24.427  0.00  0.00    +0.147 C 
ATOM      6  C   UNL     1       8.103  -1.323  23.715  0.00  0.00    +0.057 C 
ENDROOT
BRANCH   1   7
ATOM      7  N   UNL     1       9.816  -3.094  24.074  0.00  0.00    -0.323 NA
ATOM      8  H   UNL     1       9.161  -3.289  24.829  0.00  0.00    +0.119 HD
ATOM      9  H   UNL     1      10.010  -4.004  23.653  0.00  0.00    +0.119 HD
ENDBRANCH   1   7
BRANCH   2  10
ATOM     10  O   UNL     1       9.614  -0.937  21.053  0.00  0.00    -0.366 OA
ATOM     11  H   UNL     1       8.846  -0.402  21.325  0.00  0.00    +0.213 HD
ENDBRANCH   2  10
BRANCH   5  12
ATOM     12  O   UNL     1       9.379  -0.561  25.616  0.00  0.00    -0.389 OA
ATOM     13  H   UNL     1       8.765  -1.149  26.093  0.00  0.00    +0.210 HD
ENDBRANCH   5  12
BRANCH   4  14
ATOM     14  C   UNL     1       9.016   1.502  22.457  0.00  0.00    +0.190 C 
BRANCH  14  15
ATOM     15  O   UNL     1       9.967   2.069  21.555  0.00  0.00    -0.392 OA
ATOM     16  H   UNL     1      10.804   2.184  22.037  0.00  0.00    +0.210 HD
ENDBRANCH  14  15
ENDBRANCH   4  14
TORSDOF 5
ENDMDL
MODEL 3
REMARK VINA RESULT:      -4.3      4.731      6.193
REMARK  Name = 
REMARK  5 active torsions:
REMARK  status: ('A' for Active; 'I' for Inactive)
REMARK    1  A    between atoms: N_1  and  C_2
REMARK    2  A    between atoms: C_5  and  O_7
REMARK    3  A    between atoms: C_8  and  C_10
REMARK    4  A    between atoms: C_10  and  O_11
REMARK    5  A    between atoms: C_13  and  O_15
REMARK                            x       y       z     vdW  Elec       q    Type
REMARK                         _______ _______ _______ _____ _____    ______ ____
ROOT
ATOM      1  C   UNL     1       7.451  -4.644  26.909  0.00  0.00    +0.110 C 
ATOM      2  C   UNL     1       6.499  -4.736  25.682  0.00  0.00    +0.264 C 
ATOM      3  O   UNL     1       7.112  -5.343  24.544  0.00  0.00    -0.342 OA
ATOM      4  C   UNL     1       8.335  -4.737  24.091  0.00  0.00    +0.175 C 
ATOM      5  C   UNL     1       9.371  -4.710  25.225  0.00  0.00    +0.147 C 
ATOM      6  C   UNL     1       8.811  -4.063  26.493  0.00  0.00    +0.057 C 
ENDROOT
BRANCH   1   7
ATOM      7  N   UNL     1       7.609  -5.945  27.592  0.00  0.00    -0.323 NA
ATOM      8  H   UNL     1       8.599  -6.132  27.739  0.00  0.00    +0.119 HD
ATOM      9  H   UNL     1       7.213  -5.879  28.531  0.00  0.00    +0.119 HD
ENDBRANCH   1   7
BRANCH   2  10
ATOM     10  O   UNL     1       6.013  -3.449  25.348  0.00  0.00    -0.366 OA
ATOM     11  H   UNL     1       6.653  -3.104  24.700  0.00  0.00    +0.213 HD
ENDBRANCH   2  10
BRANCH   5  12
ATOM     12  O   UNL     1       9.783  -6.051  25.532  0.00  0.00    -0.389 OA
ATOM     13  H   UNL     1       9.125  -6.427  26.144  0.00  0.00    +0.210 HD
ENDBRANCH   5  12
BRANCH   4  14
ATOM     14  C   UNL     1       8.144  -3.367  23.416  0.00  0.00    +0.190 C 
BRANCH  14  15
ATOM     15  O   UNL     1       7.078  -3.398  22.466  0.00  0.00    -0.392 OA
ATOM     16  H   UNL     1       6.366  -3.947  22.835  0.00  0.00    +0.210 HD
ENDBRANCH  14  15
ENDBRANCH   4  14
TORSDOF 5
ENDMDL
MODEL 4
REMARK VINA RESULT:      -4.3      1.974      2.488
REMARK  Name = 
REMARK  5 active torsions:
REMARK  status: ('A' for Active; 'I' for Inactive)
REMARK    1  A    between atoms: N_1  and  C_2
REMARK    2  A    between atoms: C_5  and  O_7
REMARK    3  A    between atoms: C_8  and  C_10
REMARK    4  A    between atoms: C_10  and  O_11
REMARK    5  A    between atoms: C_13  and  O_15
REMARK                            x       y       z     vdW  Elec       q    Type
REMARK                         _______ _______ _______ _____ _____    ______ ____
ROOT
ATOM      1  C   UNL     1       9.686   2.730  23.606  0.00  0.00    +0.110 C 
ATOM      2  C   UNL     1       8.817   2.034  22.519  0.00  0.00    +0.264 C 
ATOM      3  O   UNL     1       8.341   0.749  22.923  0.00  0.00    -0.342 OA
ATOM      4  C   UNL     1       9.347  -0.193  23.332  0.00  0.00    +0.175 C 
ATOM      5  C   UNL     1      10.183   0.384  24.485  0.00  0.00    +0.147 C 
ATOM      6  C   UNL     1      10.752   1.762  24.144  0.00  0.00    +0.057 C 
ENDROOT
BRANCH   1   7
ATOM      7  N   UNL     1       8.868   3.292  24.700  0.00  0.00    -0.323 NA
ATOM      8  H   UNL     1       9.470   3.524  25.489  0.00  0.00    +0.119 HD
ATOM      9  H   UNL     1       8.477   4.186  24.399  0.00  0.00    +0.119 HD
ENDBRANCH   1   7
BRANCH   2  10
ATOM     10  O   UNL     1       9.545   1.928  21.310  0.00  0.00    -0.366 OA
ATOM     11  H   UNL     1      10.141   2.699  21.313  0.00  0.00    +0.213 HD
ENDBRANCH   2  10
BRANCH   5  12
ATOM     12  O   UNL     1       9.366   0.497  25.661  0.00  0.00    -0.389 OA
ATOM     13  H   UNL     1       9.860   0.098  26.400  0.00  0.00    +0.210 HD
ENDBRANCH   5  12
BRANCH   4  14
ATOM     14  C   UNL     1      10.208  -0.734  22.176  0.00  0.00    +0.190 C 
BRANCH  14  15
ATOM     15  O   UNL     1       9.403  -1.104  21.057  0.00  0.00    -0.392 OA
ATOM     16  H   UNL     1       9.960  -1.060  20.261  0.00  0.00    +0.210 HD
ENDBRANCH  14  15
ENDBRANCH   4  14
TORSDOF 5
ENDMDL
MODEL 5
REMARK VINA RESULT:      -4.3      4.063      5.512
REMARK  Name = 
REMARK  5 active torsions:
REMARK  status: ('A' for Active; 'I' for Inactive)
REMARK    1  A    between atoms: N_1  and  C_2
REMARK    2  A    between atoms: C_5  and  O_7
REMARK    3  A    between atoms: C_8  and  C_10
REMARK    4  A    between atoms: C_10  and  O_11
REMARK    5  A    between atoms: C_13  and  O_15
REMARK                            x       y       z     vdW  Elec       q    Type
REMARK                         _______ _______ _______ _____ _____    ______ ____
ROOT
ATOM      1  C   UNL     1       8.570  -3.208  24.137  0.00  0.00    +0.110 C 
ATOM      2  C   UNL     1       8.257  -2.667  25.562  0.00  0.00    +0.264 C 
ATOM      3  O   UNL     1       8.929  -3.389  26.594  0.00  0.00    -0.342 OA
ATOM      4  C   UNL     1       8.700  -4.809  26.617  0.00  0.00    +0.175 C 
ATOM      5  C   UNL     1       9.092  -5.437  25.271  0.00  0.00    +0.147 C 
ATOM      6  C   UNL     1       8.410  -4.736  24.095  0.00  0.00    +0.057 C 
ENDROOT
BRANCH   1   7
ATOM      7  N   UNL     1       9.907  -2.794  23.663  0.00  0.00    -0.323 NA
ATOM      8  H   UNL     1       9.805  -2.068  22.956  0.00  0.00    +0.119 HD
ATOM      9  H   UNL     1      10.407  -2.344  24.430  0.00  0.00    +0.119 HD
ENDBRANCH   1   7
BRANCH   2  10
ATOM     10  O   UNL     1       6.860  -2.675  25.788  0.00  0.00    -0.366 OA
ATOM     11  H   UNL     1       6.483  -2.213  25.018  0.00  0.00    +0.213 HD
ENDBRANCH   2  10
BRANCH   5  12
ATOM     12  O   UNL     1      10.516  -5.354  25.098  0.00  0.00    -0.389 OA
ATOM     13  H   UNL     1      10.917  -5.328  25.985  0.00  0.00    +0.210 HD
ENDBRANCH   5  12
BRANCH   4  14
ATOM     14  C   UNL     1       7.288  -5.210  27.081  0.00  0.00    +0.190 C 
BRANCH  14  15
ATOM     15  O   UNL     1       7.338  -6.215  28.094  0.00  0.00    -0.392 OA
ATOM     16  H   UNL     1       8.078  -6.810  27.887  0.00  0.00    +0.210 HD
ENDBRANCH  14  15
ENDBRANCH   4  14
TORSDOF 5
ENDMDL
MODEL 6
REMARK VINA RESULT:      -4.3      2.072      3.486
REMARK  Name = 
REMARK  5 active torsions:
REMARK  status: ('A' for Active; 'I' for Inactive)
REMARK    1  A    between atoms: N_1  and  C_2
REMARK    2  A    between atoms: C_5  and  O_7
REMARK    3  A    between atoms: C_8  and  C_10
REMARK    4  A    between atoms: C_10  and  O_11
REMARK    5  A    between atoms: C_13  and  O_15
REMARK                            x       y       z     vdW  Elec       q    Type
REMARK                         _______ _______ _______ _____ _____    ______ ____
ROOT
ATOM      1  C   UNL     1       9.206  -0.207  21.679  0.00  0.00    +0.110 C 
ATOM      2  C   UNL     1      10.004   1.111  21.894  0.00  0.00    +0.264 C 
ATOM      3  O   UNL     1      10.524   1.240  23.218  0.00  0.00    -0.342 OA
ATOM      4  C   UNL     1       9.561   1.146  24.282  0.00  0.00    +0.175 C 
ATOM      5  C   UNL     1       8.801  -0.187  24.201  0.00  0.00    +0.147 C 
ATOM      6  C   UNL     1       8.193  -0.414  22.816  0.00  0.00    +0.057 C 
ENDROOT
BRANCH   1   7
ATOM      7  N   UNL     1      10.092  -1.380  21.528  0.00  0.00    -0.323 NA
ATOM      8  H   UNL     1      10.962  -1.092  21.082  0.00  0.00    +0.119 HD
ATOM      9  H   UNL     1      10.369  -1.709  22.454  0.00  0.00    +0.119 HD
ENDBRANCH   1   7
BRANCH   2  10
ATOM     10  O   UNL     1       9.195   2.227  21.575  0.00  0.00    -0.366 OA
ATOM     11  H   UNL     1       8.579   1.898  20.895  0.00  0.00    +0.213 HD
ENDBRANCH   2  10
BRANCH   5  12
ATOM     12  O   UNL     1       9.698  -1.270  24.497  0.00  0.00    -0.389 OA
ATOM     13  H   UNL     1      10.576  -0.884  24.668  0.00  0.00    +0.210 HD
ENDBRANCH   5  12
BRANCH   4  14
ATOM     14  C   UNL     1       8.627   2.365  24.392  0.00  0.00    +0.190 C 
BRANCH  14  15
ATOM     15  O   UNL     1       9.353   3.589  24.274  0.00  0.00    -0.392 OA
ATOM     16  H   UNL     1       9.870   3.552  23.451  0.00  0.00    +0.210 HD
ENDBRANCH  14  15
ENDBRANCH   4  14
TORSDOF 5
ENDMDL
MODEL 7
REMARK VINA RESULT:      -4.3      1.734      3.010
REMARK  Name = 
REMARK  5 active torsions:
REMARK  status: ('A' for Active; 'I' for Inactive)
REMARK    1  A    between atoms: N_1  and  C_2
REMARK    2  A    between atoms: C_5  and  O_7
REMARK    3  A    between atoms: C_8  and  C_10
REMARK    4  A    between atoms: C_10  and  O_11
REMARK    5  A    between atoms: C_13  and  O_15
REMARK                            x       y       z     vdW  Elec       q    Type
REMARK                         _______ _______ _______ _____ _____    ______ ____
ROOT
ATOM      1  C   UNL     1       9.249   1.962  22.660  0.00  0.00    +0.110 C 
ATOM      2  C   UNL     1       9.998   1.852  24.019  0.00  0.00    +0.264 C 
ATOM      3  O   UNL     1      10.646   0.592  24.199  0.00  0.00    -0.342 OA
ATOM      4  C   UNL     1       9.805  -0.569  24.081  0.00  0.00    +0.175 C 
ATOM      5  C   UNL     1       9.110  -0.588  22.711  0.00  0.00    +0.147 C 
ATOM      6  C   UNL     1       8.372   0.722  22.427  0.00  0.00    +0.057 C 
ENDROOT
BRANCH   1   7
ATOM      7  N   UNL     1      10.172   2.188  21.529  0.00  0.00    -0.323 NA
ATOM      8  H   UNL     1      11.133   2.157  21.865  0.00  0.00    +0.119 HD
ATOM      9  H   UNL     1      10.097   1.407  20.876  0.00  0.00    +0.119 HD
ENDBRANCH   1   7
BRANCH   2  10
ATOM     10  O   UNL     1       9.105   2.101  25.088  0.00  0.00    -0.366 OA
ATOM     11  H   UNL     1       9.404   1.509  25.802  0.00  0.00    +0.213 HD
ENDBRANCH   2  10
BRANCH   5  12
ATOM     12  O   UNL     1      10.085  -0.804  21.679  0.00  0.00    -0.389 OA
ATOM     13  H   UNL     1      10.612   0.011  21.599  0.00  0.00    +0.210 HD
ENDBRANCH   5  12
BRANCH   4  14
ATOM     14  C   UNL     1       8.829  -0.759  25.255  0.00  0.00    +0.190 C 
BRANCH  14  15
ATOM     15  O   UNL     1       9.424  -0.375  26.495  0.00  0.00    -0.392 OA
ATOM     16  H   UNL     1      10.150  -0.995  26.681  0.00  0.00    +0.210 HD
ENDBRANCH  14  15
ENDBRANCH   4  14
TORSDOF 5
ENDMDL
MODEL 8
REMARK VINA RESULT:      -4.2      1.928      2.663
REMARK  Name = 
REMARK  5 active torsions:
REMARK  status: ('A' for Active; 'I' for Inactive)
REMARK    1  A    between atoms: N_1  and  C_2
REMARK    2  A    between atoms: C_5  and  O_7
REMARK    3  A    between atoms: C_8  and  C_10
REMARK    4  A    between atoms: C_10  and  O_11
REMARK    5  A    between atoms: C_13  and  O_15
REMARK                            x       y       z     vdW  Elec       q    Type
REMARK                         _______ _______ _______ _____ _____    ______ ____
ROOT
ATOM      1  C   UNL     1       9.883   2.358  24.008  0.00  0.00    +0.110 C 
ATOM      2  C   UNL     1      10.737   1.092  24.306  0.00  0.00    +0.264 C 
ATOM      3  O   UNL     1      10.734   0.150  23.233  0.00  0.00    -0.342 OA
ATOM      4  C   UNL     1       9.440  -0.302  22.798  0.00  0.00    +0.175 C 
ATOM      5  C   UNL     1       8.569   0.892  22.380  0.00  0.00    +0.147 C 
ATOM      6  C   UNL     1       8.498   1.958  23.474  0.00  0.00    +0.057 C 
ENDROOT
BRANCH   1   7
ATOM      7  N   UNL     1      10.566   3.289  23.087  0.00  0.00    -0.323 NA
ATOM      8  H   UNL     1      11.435   2.868  22.763  0.00  0.00    +0.119 HD
ATOM      9  H   UNL     1      10.000   3.400  22.244  0.00  0.00    +0.119 HD
ENDBRANCH   1   7
BRANCH   2  10
ATOM     10  O   UNL     1      10.291   0.475  25.500  0.00  0.00    -0.366 OA
ATOM     11  H   UNL     1      10.630   1.046  26.213  0.00  0.00    +0.213 HD
ENDBRANCH   2  10
BRANCH   5  12
ATOM     12  O   UNL     1       9.107   1.486  21.188  0.00  0.00    -0.389 OA
ATOM     13  H   UNL     1       9.103   0.803  20.493  0.00  0.00    +0.210 HD
ENDBRANCH   5  12
BRANCH   4  14
ATOM     14  C   UNL     1       8.736  -1.242  23.794  0.00  0.00    +0.190 C 
BRANCH  14  15
ATOM     15  O   UNL     1       9.633  -2.232  24.298  0.00  0.00    -0.392 OA
ATOM     16  H   UNL     1       9.241  -3.105  24.126  0.00  0.00    +0.210 HD
ENDBRANCH  14  15
ENDBRANCH   4  14
TORSDOF 5
ENDMDL
MODEL 9
REMARK VINA RESULT:      -4.1      2.364      3.680
REMARK  Name = 
REMARK  5 active torsions:
REMARK  status: ('A' for Active; 'I' for Inactive)
REMARK    1  A    between atoms: N_1  and  C_2
REMARK    2  A    between atoms: C_5  and  O_7
REMARK    3  A    between atoms: C_8  and  C_10
REMARK    4  A    between atoms: C_10  and  O_11
REMARK    5  A    between atoms: C_13  and  O_15
REMARK                            x       y       z     vdW  Elec       q    Type
REMARK                         _______ _______ _______ _____ _____    ______ ____
ROOT
ATOM      1  C   UNL     1       9.961  -0.025  25.269  0.00  0.00    +0.110 C 
ATOM      2  C   UNL     1       9.680   1.367  24.633  0.00  0.00    +0.264 C 
ATOM      3  O   UNL     1       8.503   1.385  23.825  0.00  0.00    -0.342 OA
ATOM      4  C   UNL     1       8.455   0.414  22.764  0.00  0.00    +0.175 C 
ATOM      5  C   UNL     1       8.617  -1.005  23.330  0.00  0.00    +0.147 C 
ATOM      6  C   UNL     1       9.864  -1.131  24.206  0.00  0.00    +0.057 C 
ENDROOT
BRANCH   1   7
ATOM      7  N   UNL     1       9.075  -0.304  26.418  0.00  0.00    -0.323 NA
ATOM      8  H   UNL     1       9.612  -0.247  27.281  0.00  0.00    +0.119 HD
ATOM      9  H   UNL     1       8.381   0.441  26.491  0.00  0.00    +0.119 HD
ENDBRANCH   1   7
BRANCH   2  10
ATOM     10  O   UNL     1      10.799   1.791  23.877  0.00  0.00    -0.366 OA
ATOM     11  H   UNL     1      11.497   1.948  24.538  0.00  0.00    +0.213 HD
ENDBRANCH   2  10
BRANCH   5  12
ATOM     12  O   UNL     1       7.463  -1.345  24.115  0.00  0.00    -0.389 OA
ATOM     13  H   UNL     1       6.677  -1.200  23.557  0.00  0.00    +0.210 HD
ENDBRANCH   5  12
BRANCH   4  14
ATOM     14  C   UNL     1       9.415   0.711  21.598  0.00  0.00    +0.190 C 
BRANCH  14  15
ATOM     15  O   UNL     1       9.468   2.109  21.310  0.00  0.00    -0.392 OA
ATOM     16  H   UNL     1       9.041   2.252  20.448  0.00  0.00    +0.210 HD
ENDBRANCH  14  15
ENDBRANCH   4  14
TORSDOF 5
ENDMDL
