MODEL 1
REMARK VINA RESULT:      -5.9      0.000      0.000
REMARK  Name = 
REMARK  5 active torsions:
REMARK  status: ('A' for Active; 'I' for Inactive)
REMARK    1  A    between atoms: O_1  and  C_2
REMARK    2  A    between atoms: C_2  and  C_4
REMARK    3  A    between atoms: N_6  and  C_7
REMARK    4  A    between atoms: C_8  and  C_9
REMARK    5  A    between atoms: C_9  and  O_10
REMARK                            x       y       z     vdW  Elec       q    Type
REMARK                         _______ _______ _______ _____ _____    ______ ____
ROOT
ATOM      1  C   UNL     1       7.201  -3.343  23.932  0.00  0.00    +0.087 A 
ATOM      2  S   UNL     1       6.846  -3.202  25.590  0.00  0.00    -0.077 S 
ATOM      3  C   UNL     1       5.840  -4.563  25.591  0.00  0.00    +0.005 A 
ATOM      4  C   UNL     1       5.197  -4.989  26.874  0.00  0.00    +0.111 C 
ATOM      5  S   UNL     1       4.689  -6.733  26.832  0.00  0.00    -0.155 S 
ATOM      6  C   UNL     1       3.928  -6.727  25.176  0.00  0.00    +0.074 C 
ATOM      7  C   UNL     1       4.937  -6.388  24.076  0.00  0.00    +0.047 C 
ATOM      8  C   UNL     1       5.724  -5.121  24.331  0.00  0.00    -0.020 A 
ATOM      9  C   UNL     1       6.504  -4.390  23.339  0.00  0.00    +0.091 A 
ENDROOT
BRANCH   1  11
ATOM     10  C   UNL     1       9.441  -2.433  23.465  0.00  0.00    +0.326 C 
ATOM     11  N   UNL     1       8.057  -2.412  23.354  0.00  0.00    -0.270 N 
ATOM     12  H   UNL     1       7.667  -1.665  22.779  0.00  0.00    +0.156 HD
ATOM     13  O   UNL     1      10.190  -3.229  24.017  0.00  0.00    -0.263 OA
BRANCH  10  14
ATOM     14  C   UNL     1      10.135  -1.307  22.696  0.00  0.00    +0.393 C 
ATOM     15  O   UNL     1      10.578  -0.321  23.249  0.00  0.00    -0.240 OA
BRANCH  14  16
ATOM     16  O   UNL     1      10.124  -1.557  21.371  0.00  0.00    -0.474 OA
ATOM     17  H   UNL     1       9.247  -1.949  21.131  0.00  0.00    +0.296 HD
ENDBRANCH  14  16
ENDBRANCH  10  14
ENDBRANCH   1  11
BRANCH   9  18
ATOM     18  C   UNL     1       6.557  -4.737  21.915  0.00  0.00    +0.339 C 
ATOM     19  O   UNL     1       7.265  -5.622  21.460  0.00  0.00    -0.245 OA
BRANCH  18  20
ATOM     20  O   UNL     1       5.760  -3.982  21.114  0.00  0.00    -0.477 OA
ATOM     21  H   UNL     1       5.589  -4.409  20.255  0.00  0.00    +0.295 HD
ENDBRANCH  18  20
ENDBRANCH   9  18
TORSDOF 5
ENDMDL
MODEL 2
REMARK VINA RESULT:      -5.9      3.503      6.274
REMARK  Name = 
REMARK  5 active torsions:
REMARK  status: ('A' for Active; 'I' for Inactive)
REMARK    1  A    between atoms: O_1  and  C_2
REMARK    2  A    between atoms: C_2  and  C_4
REMARK    3  A    between atoms: N_6  and  C_7
REMARK    4  A    between atoms: C_8  and  C_9
REMARK    5  A    between atoms: C_9  and  O_10
REMARK                            x       y       z     vdW  Elec       q    Type
REMARK                         _______ _______ _______ _____ _____    ______ ____
ROOT
ATOM      1  C   UNL     1       6.846  -4.271  25.311  0.00  0.00    +0.087 A 
ATOM      2  S   UNL     1       5.848  -3.054  24.665  0.00  0.00    -0.077 S 
ATOM      3  C   UNL     1       7.159  -2.113  24.155  0.00  0.00    +0.005 A 
ATOM      4  C   UNL     1       6.893  -0.824  23.441  0.00  0.00    +0.111 C 
ATOM      5  S   UNL     1       8.323  -0.284  22.460  0.00  0.00    -0.155 S 
ATOM      6  C   UNL     1       9.611  -0.596  23.711  0.00  0.00    +0.074 C 
ATOM      7  C   UNL     1       9.697  -2.075  24.098  0.00  0.00    +0.047 C 
ATOM      8  C   UNL     1       8.371  -2.683  24.501  0.00  0.00    -0.020 A 
ATOM      9  C   UNL     1       8.194  -3.946  25.209  0.00  0.00    +0.091 A 
ENDROOT
BRANCH   1  11
ATOM     10  C   UNL     1       6.106  -5.568  27.270  0.00  0.00    +0.326 C 
ATOM     11  N   UNL     1       6.247  -5.379  25.901  0.00  0.00    -0.270 N 
ATOM     12  H   UNL     1       5.851  -6.107  25.307  0.00  0.00    +0.156 HD
ATOM     13  O   UNL     1       6.409  -4.851  28.215  0.00  0.00    -0.263 OA
BRANCH  10  14
ATOM     14  C   UNL     1       5.375  -6.860  27.637  0.00  0.00    +0.393 C 
ATOM     15  O   UNL     1       5.665  -7.514  28.619  0.00  0.00    -0.240 OA
BRANCH  14  16
ATOM     16  O   UNL     1       4.442  -7.160  26.711  0.00  0.00    -0.474 OA
ATOM     17  H   UNL     1       4.069  -6.316  26.354  0.00  0.00    +0.296 HD
ENDBRANCH  14  16
ENDBRANCH  10  14
ENDBRANCH   1  11
BRANCH   9  18
ATOM     18  C   UNL     1       9.299  -4.766  25.718  0.00  0.00    +0.339 C 
ATOM     19  O   UNL     1      10.124  -5.310  25.001  0.00  0.00    -0.245 OA
BRANCH  18  20
ATOM     20  O   UNL     1       9.338  -4.894  27.070  0.00  0.00    -0.477 OA
ATOM     21  H   UNL     1       8.518  -5.281  27.428  0.00  0.00    +0.295 HD
ENDBRANCH  18  20
ENDBRANCH   9  18
TORSDOF 5
ENDMDL
MODEL 3
REMARK VINA RESULT:      -5.8      2.891      6.190
REMARK  Name = 
REMARK  5 active torsions:
REMARK  status: ('A' for Active; 'I' for Inactive)
REMARK    1  A    between atoms: O_1  and  C_2
REMARK    2  A    between atoms: C_2  and  C_4
REMARK    3  A    between atoms: N_6  and  C_7
REMARK    4  A    between atoms: C_8  and  C_9
REMARK    5  A    between atoms: C_9  and  O_10
REMARK                            x       y       z     vdW  Elec       q    Type
REMARK                         _______ _______ _______ _____ _____    ______ ____
ROOT
ATOM      1  C   UNL     1       6.818  -4.035  24.451  0.00  0.00    +0.087 A 
ATOM      2  S   UNL     1       6.108  -2.703  23.665  0.00  0.00    -0.077 S 
ATOM      3  C   UNL     1       7.597  -1.957  23.371  0.00  0.00    +0.005 A 
ATOM      4  C   UNL     1       7.623  -0.654  22.634  0.00  0.00    +0.111 C 
ATOM      5  S   UNL     1       9.248  -0.327  21.890  0.00  0.00    -0.155 S 
ATOM      6  C   UNL     1      10.272  -0.792  23.324  0.00  0.00    +0.074 C 
ATOM      7  C   UNL     1      10.094  -2.263  23.710  0.00  0.00    +0.047 C 
ATOM      8  C   UNL     1       8.652  -2.681  23.898  0.00  0.00    -0.020 A 
ATOM      9  C   UNL     1       8.197  -3.897  24.562  0.00  0.00    +0.091 A 
ENDROOT
BRANCH   1  11
ATOM     10  C   UNL     1       5.291  -5.941  24.137  0.00  0.00    +0.326 C 
ATOM     11  N   UNL     1       5.989  -5.043  24.933  0.00  0.00    -0.270 N 
ATOM     12  H   UNL     1       5.892  -5.170  25.940  0.00  0.00    +0.156 HD
ATOM     13  O   UNL     1       5.264  -6.084  22.921  0.00  0.00    -0.263 OA
BRANCH  10  14
ATOM     14  C   UNL     1       4.485  -6.968  24.935  0.00  0.00    +0.393 C 
ATOM     15  O   UNL     1       4.542  -7.039  26.146  0.00  0.00    -0.240 OA
BRANCH  14  16
ATOM     16  O   UNL     1       3.781  -7.767  24.108  0.00  0.00    -0.474 OA
ATOM     17  H   UNL     1       4.380  -8.480  23.771  0.00  0.00    +0.296 HD
ENDBRANCH  14  16
ENDBRANCH  10  14
ENDBRANCH   1  11
BRANCH   9  18
ATOM     18  C   UNL     1       9.088  -4.851  25.231  0.00  0.00    +0.339 C 
ATOM     19  O   UNL     1       9.418  -4.762  26.403  0.00  0.00    -0.245 OA
BRANCH  18  20
ATOM     20  O   UNL     1       9.545  -5.856  24.438  0.00  0.00    -0.477 OA
ATOM     21  H   UNL     1      10.517  -5.925  24.451  0.00  0.00    +0.295 HD
ENDBRANCH  18  20
ENDBRANCH   9  18
TORSDOF 5
ENDMDL
MODEL 4
REMARK VINA RESULT:      -5.8      2.112      2.756
REMARK  Name = 
REMARK  5 active torsions:
REMARK  status: ('A' for Active; 'I' for Inactive)
REMARK    1  A    between atoms: O_1  and  C_2
REMARK    2  A    between atoms: C_2  and  C_4
REMARK    3  A    between atoms: N_6  and  C_7
REMARK    4  A    between atoms: C_8  and  C_9
REMARK    5  A    between atoms: C_9  and  O_10
REMARK                            x       y       z     vdW  Elec       q    Type
REMARK                         _______ _______ _______ _____ _____    ______ ____
ROOT
ATOM      1  C   UNL     1       7.309  -3.463  22.976  0.00  0.00    +0.087 A 
ATOM      2  S   UNL     1       5.745  -3.516  22.310  0.00  0.00    -0.077 S 
ATOM      3  C   UNL     1       5.177  -4.603  23.476  0.00  0.00    +0.005 A 
ATOM      4  C   UNL     1       3.747  -5.044  23.422  0.00  0.00    +0.111 C 
ATOM      5  S   UNL     1       3.172  -5.677  25.025  0.00  0.00    -0.155 S 
ATOM      6  C   UNL     1       4.621  -6.710  25.415  0.00  0.00    +0.074 C 
ATOM      7  C   UNL     1       5.904  -5.884  25.543  0.00  0.00    +0.047 C 
ATOM      8  C   UNL     1       6.171  -4.975  24.363  0.00  0.00    -0.020 A 
ATOM      9  C   UNL     1       7.442  -4.327  24.058  0.00  0.00    +0.091 A 
ENDROOT
BRANCH   1  11
ATOM     10  C   UNL     1       8.279  -1.267  22.429  0.00  0.00    +0.326 C 
ATOM     11  N   UNL     1       8.264  -2.655  22.370  0.00  0.00    -0.270 N 
ATOM     12  H   UNL     1       9.035  -3.088  21.862  0.00  0.00    +0.156 HD
ATOM     13  O   UNL     1       7.544  -0.480  23.011  0.00  0.00    -0.263 OA
BRANCH  10  14
ATOM     14  C   UNL     1       9.467  -0.636  21.700  0.00  0.00    +0.393 C 
ATOM     15  O   UNL     1       9.463   0.521  21.332  0.00  0.00    -0.240 OA
BRANCH  14  16
ATOM     16  O   UNL     1      10.443  -1.546  21.502  0.00  0.00    -0.474 OA
ATOM     17  H   UNL     1      11.072  -1.505  22.265  0.00  0.00    +0.296 HD
ENDBRANCH  14  16
ENDBRANCH  10  14
ENDBRANCH   1  11
BRANCH   9  18
ATOM     18  C   UNL     1       8.679  -4.546  24.815  0.00  0.00    +0.339 C 
ATOM     19  O   UNL     1       9.065  -3.809  25.708  0.00  0.00    -0.245 OA
BRANCH  18  20
ATOM     20  O   UNL     1       9.391  -5.640  24.437  0.00  0.00    -0.477 OA
ATOM     21  H   UNL     1       9.987  -5.955  25.141  0.00  0.00    +0.295 HD
ENDBRANCH  18  20
ENDBRANCH   9  18
TORSDOF 5
ENDMDL
MODEL 5
REMARK VINA RESULT:      -5.7      2.798      5.817
REMARK  Name = 
REMARK  5 active torsions:
REMARK  status: ('A' for Active; 'I' for Inactive)
REMARK    1  A    between atoms: O_1  and  C_2
REMARK    2  A    between atoms: C_2  and  C_4
REMARK    3  A    between atoms: N_6  and  C_7
REMARK    4  A    between atoms: C_8  and  C_9
REMARK    5  A    between atoms: C_9  and  O_10
REMARK                            x       y       z     vdW  Elec       q    Type
REMARK                         _______ _______ _______ _____ _____    ______ ____
ROOT
ATOM      1  C   UNL     1       7.494  -2.239  23.182  0.00  0.00    +0.087 A 
ATOM      2  S   UNL     1       6.305  -1.747  24.295  0.00  0.00    -0.077 S 
ATOM      3  C   UNL     1       6.981  -0.207  24.487  0.00  0.00    +0.005 A 
ATOM      4  C   UNL     1       6.311   0.770  25.402  0.00  0.00    +0.111 C 
ATOM      5  S   UNL     1       6.780   2.484  25.025  0.00  0.00    -0.155 S 
ATOM      6  C   UNL     1       8.572   2.213  24.838  0.00  0.00    +0.074 C 
ATOM      7  C   UNL     1       8.895   1.255  23.688  0.00  0.00    +0.047 C 
ATOM      8  C   UNL     1       8.138  -0.054  23.744  0.00  0.00    -0.020 A 
ATOM      9  C   UNL     1       8.464  -1.260  22.991  0.00  0.00    +0.091 A 
ENDROOT
BRANCH   1  11
ATOM     10  C   UNL     1       6.401  -3.975  21.820  0.00  0.00    +0.326 C 
ATOM     11  N   UNL     1       7.418  -3.521  22.650  0.00  0.00    -0.270 N 
ATOM     12  H   UNL     1       8.165  -4.187  22.845  0.00  0.00    +0.156 HD
ATOM     13  O   UNL     1       5.425  -3.398  21.358  0.00  0.00    -0.263 OA
BRANCH  10  14
ATOM     14  C   UNL     1       6.591  -5.419  21.352  0.00  0.00    +0.393 C 
ATOM     15  O   UNL     1       7.242  -6.225  21.985  0.00  0.00    -0.240 OA
BRANCH  14  16
ATOM     16  O   UNL     1       5.989  -5.618  20.162  0.00  0.00    -0.474 OA
ATOM     17  H   UNL     1       5.459  -4.812  19.938  0.00  0.00    +0.296 HD
ENDBRANCH  14  16
ENDBRANCH  10  14
ENDBRANCH   1  11
BRANCH   9  18
ATOM     18  C   UNL     1       9.645  -1.399  22.132  0.00  0.00    +0.339 C 
ATOM     19  O   UNL     1      10.681  -1.936  22.489  0.00  0.00    -0.245 OA
BRANCH  18  20
ATOM     20  O   UNL     1       9.511  -0.865  20.890  0.00  0.00    -0.477 OA
ATOM     21  H   UNL     1       8.578  -0.769  20.627  0.00  0.00    +0.295 HD
ENDBRANCH  18  20
ENDBRANCH   9  18
TORSDOF 5
ENDMDL
MODEL 6
REMARK VINA RESULT:      -5.7      3.091      5.933
REMARK  Name = 
REMARK  5 active torsions:
REMARK  status: ('A' for Active; 'I' for Inactive)
REMARK    1  A    between atoms: O_1  and  C_2
REMARK    2  A    between atoms: C_2  and  C_4
REMARK    3  A    between atoms: N_6  and  C_7
REMARK    4  A    between atoms: C_8  and  C_9
REMARK    5  A    between atoms: C_9  and  O_10
REMARK                            x       y       z     vdW  Elec       q    Type
REMARK                         _______ _______ _______ _____ _____    ______ ____
ROOT
ATOM      1  C   UNL     1       8.337  -1.694  24.517  0.00  0.00    +0.087 A 
ATOM      2  S   UNL     1       7.176  -0.664  25.215  0.00  0.00    -0.077 S 
ATOM      3  C   UNL     1       7.347   0.510  24.009  0.00  0.00    +0.005 A 
ATOM      4  C   UNL     1       6.502   1.744  24.073  0.00  0.00    +0.111 C 
ATOM      5  S   UNL     1       6.364   2.556  22.453  0.00  0.00    -0.155 S 
ATOM      6  C   UNL     1       8.121   2.457  21.979  0.00  0.00    +0.074 C 
ATOM      7  C   UNL     1       8.609   1.010  21.864  0.00  0.00    +0.047 C 
ATOM      8  C   UNL     1       8.313   0.162  23.081  0.00  0.00    -0.020 A 
ATOM      9  C   UNL     1       8.923  -1.127  23.390  0.00  0.00    +0.091 A 
ENDROOT
BRANCH   1  11
ATOM     10  C   UNL     1       8.320  -4.154  24.612  0.00  0.00    +0.326 C 
ATOM     11  N   UNL     1       8.615  -2.905  25.142  0.00  0.00    -0.270 N 
ATOM     12  H   UNL     1       9.093  -2.903  26.042  0.00  0.00    +0.156 HD
ATOM     13  O   UNL     1       7.822  -4.475  23.540  0.00  0.00    -0.263 OA
BRANCH  10  14
ATOM     14  C   UNL     1       8.770  -5.317  25.499  0.00  0.00    +0.393 C 
ATOM     15  O   UNL     1       8.055  -5.793  26.357  0.00  0.00    -0.240 OA
BRANCH  14  16
ATOM     16  O   UNL     1      10.041  -5.667  25.216  0.00  0.00    -0.474 OA
ATOM     17  H   UNL     1      10.190  -6.594  25.530  0.00  0.00    +0.296 HD
ENDBRANCH  14  16
ENDBRANCH  10  14
ENDBRANCH   1  11
BRANCH   9  18
ATOM     18  C   UNL     1       9.991  -1.742  22.596  0.00  0.00    +0.339 C 
ATOM     19  O   UNL     1      10.912  -2.382  23.080  0.00  0.00    -0.245 OA
BRANCH  18  20
ATOM     20  O   UNL     1       9.895  -1.538  21.256  0.00  0.00    -0.477 OA
ATOM     21  H   UNL     1       8.969  -1.477  20.957  0.00  0.00    +0.295 HD
ENDBRANCH  18  20
ENDBRANCH   9  18
TORSDOF 5
ENDMDL
MODEL 7
REMARK VINA RESULT:      -5.7      2.090      2.952
REMARK  Name = 
REMARK  5 active torsions:
REMARK  status: ('A' for Active; 'I' for Inactive)
REMARK    1  A    between atoms: O_1  and  C_2
REMARK    2  A    between atoms: C_2  and  C_4
REMARK    3  A    between atoms: N_6  and  C_7
REMARK    4  A    between atoms: C_8  and  C_9
REMARK    5  A    between atoms: C_9  and  O_10
REMARK                            x       y       z     vdW  Elec       q    Type
REMARK                         _______ _______ _______ _____ _____    ______ ____
ROOT
ATOM      1  C   UNL     1       7.441  -4.092  23.705  0.00  0.00    +0.087 A 
ATOM      2  S   UNL     1       6.256  -4.418  22.528  0.00  0.00    -0.077 S 
ATOM      3  C   UNL     1       5.315  -5.341  23.589  0.00  0.00    +0.005 A 
ATOM      4  C   UNL     1       4.030  -5.929  23.094  0.00  0.00    +0.111 C 
ATOM      5  S   UNL     1       2.900  -6.334  24.458  0.00  0.00    -0.155 S 
ATOM      6  C   UNL     1       4.116  -7.131  25.556  0.00  0.00    +0.074 C 
ATOM      7  C   UNL     1       5.226  -6.168  25.987  0.00  0.00    +0.047 C 
ATOM      8  C   UNL     1       5.901  -5.452  24.837  0.00  0.00    -0.020 A 
ATOM      9  C   UNL     1       7.171  -4.739  24.906  0.00  0.00    +0.091 A 
ENDROOT
BRANCH   1  11
ATOM     10  C   UNL     1       8.465  -1.954  23.036  0.00  0.00    +0.326 C 
ATOM     11  N   UNL     1       8.532  -3.306  23.351  0.00  0.00    -0.270 N 
ATOM     12  H   UNL     1       9.463  -3.720  23.341  0.00  0.00    +0.156 HD
ATOM     13  O   UNL     1       7.519  -1.177  23.031  0.00  0.00    -0.263 OA
BRANCH  10  14
ATOM     14  C   UNL     1       9.826  -1.331  22.720  0.00  0.00    +0.393 C 
ATOM     15  O   UNL     1      10.439  -0.667  23.530  0.00  0.00    -0.240 OA
BRANCH  14  16
ATOM     16  O   UNL     1      10.183  -1.588  21.445  0.00  0.00    -0.474 OA
ATOM     17  H   UNL     1      11.127  -1.885  21.436  0.00  0.00    +0.296 HD
ENDBRANCH  14  16
ENDBRANCH  10  14
ENDBRANCH   1  11
BRANCH   9  18
ATOM     18  C   UNL     1       8.028  -4.697  26.097  0.00  0.00    +0.339 C 
ATOM     19  O   UNL     1       8.389  -3.663  26.634  0.00  0.00    -0.245 OA
BRANCH  18  20
ATOM     20  O   UNL     1       8.413  -5.914  26.563  0.00  0.00    -0.477 OA
ATOM     21  H   UNL     1       9.295  -5.888  26.978  0.00  0.00    +0.295 HD
ENDBRANCH  18  20
ENDBRANCH   9  18
TORSDOF 5
ENDMDL
MODEL 8
REMARK VINA RESULT:      -5.6      2.559      3.884
REMARK  Name = 
REMARK  5 active torsions:
REMARK  status: ('A' for Active; 'I' for Inactive)
REMARK    1  A    between atoms: O_1  and  C_2
REMARK    2  A    between atoms: C_2  and  C_4
REMARK    3  A    between atoms: N_6  and  C_7
REMARK    4  A    between atoms: C_8  and  C_9
REMARK    5  A    between atoms: C_9  and  O_10
REMARK                            x       y       z     vdW  Elec       q    Type
REMARK                         _______ _______ _______ _____ _____    ______ ____
ROOT
ATOM      1  C   UNL     1       7.891  -0.205  23.524  0.00  0.00    +0.087 A 
ATOM      2  S   UNL     1       6.390  -0.353  24.311  0.00  0.00    -0.077 S 
ATOM      3  C   UNL     1       6.393  -2.042  24.212  0.00  0.00    +0.005 A 
ATOM      4  C   UNL     1       5.246  -2.805  24.800  0.00  0.00    +0.111 C 
ATOM      5  S   UNL     1       5.690  -4.532  25.150  0.00  0.00    -0.155 S 
ATOM      6  C   UNL     1       6.552  -4.887  23.584  0.00  0.00    +0.074 C 
ATOM      7  C   UNL     1       7.783  -3.999  23.386  0.00  0.00    +0.047 C 
ATOM      8  C   UNL     1       7.508  -2.520  23.547  0.00  0.00    -0.020 A 
ATOM      9  C   UNL     1       8.385  -1.438  23.113  0.00  0.00    +0.091 A 
ENDROOT
BRANCH   1  11
ATOM     10  C   UNL     1       9.560   1.556  23.943  0.00  0.00    +0.326 C 
ATOM     11  N   UNL     1       8.416   1.067  23.326  0.00  0.00    -0.270 N 
ATOM     12  H   UNL     1       7.963   1.696  22.664  0.00  0.00    +0.156 HD
ATOM     13  O   UNL     1      10.345   1.023  24.717  0.00  0.00    -0.263 OA
BRANCH  10  14
ATOM     14  C   UNL     1       9.928   2.977  23.512  0.00  0.00    +0.393 C 
ATOM     15  O   UNL     1       9.563   3.958  24.128  0.00  0.00    -0.240 OA
BRANCH  14  16
ATOM     16  O   UNL     1      10.643   2.958  22.369  0.00  0.00    -0.474 OA
ATOM     17  H   UNL     1      10.295   3.664  21.768  0.00  0.00    +0.296 HD
ENDBRANCH  14  16
ENDBRANCH  10  14
ENDBRANCH   1  11
BRANCH   9  18
ATOM     18  C   UNL     1       9.631  -1.640  22.366  0.00  0.00    +0.339 C 
ATOM     19  O   UNL     1      10.571  -2.299  22.782  0.00  0.00    -0.245 OA
BRANCH  18  20
ATOM     20  O   UNL     1       9.678  -1.018  21.158  0.00  0.00    -0.477 OA
ATOM     21  H   UNL     1       9.580  -0.052  21.236  0.00  0.00    +0.295 HD
ENDBRANCH  18  20
ENDBRANCH   9  18
TORSDOF 5
ENDMDL
MODEL 9
REMARK VINA RESULT:      -5.5      3.239      6.405
REMARK  Name = 
REMARK  5 active torsions:
REMARK  status: ('A' for Active; 'I' for Inactive)
REMARK    1  A    between atoms: O_1  and  C_2
REMARK    2  A    between atoms: C_2  and  C_4
REMARK    3  A    between atoms: N_6  and  C_7
REMARK    4  A    between atoms: C_8  and  C_9
REMARK    5  A    between atoms: C_9  and  O_10
REMARK                            x       y       z     vdW  Elec       q    Type
REMARK                         _______ _______ _______ _____ _____    ______ ____
ROOT
ATOM      1  C   UNL     1       7.981  -1.735  24.952  0.00  0.00    +0.087 A 
ATOM      2  S   UNL     1       7.230  -0.431  25.746  0.00  0.00    -0.077 S 
ATOM      3  C   UNL     1       8.245   0.718  25.030  0.00  0.00    +0.005 A 
ATOM      4  C   UNL     1       8.041   2.166  25.351  0.00  0.00    +0.111 C 
ATOM      5  S   UNL     1       8.760   3.250  24.083  0.00  0.00    -0.155 S 
ATOM      6  C   UNL     1      10.353   2.385  23.896  0.00  0.00    +0.074 C 
ATOM      7  C   UNL     1      10.177   0.947  23.400  0.00  0.00    +0.047 C 
ATOM      8  C   UNL     1       9.194   0.133  24.211  0.00  0.00    -0.020 A 
ATOM      9  C   UNL     1       9.062  -1.320  24.181  0.00  0.00    +0.091 A 
ENDROOT
BRANCH   1  11
ATOM     10  C   UNL     1       8.032  -3.899  26.126  0.00  0.00    +0.326 C 
ATOM     11  N   UNL     1       7.506  -3.020  25.187  0.00  0.00    -0.270 N 
ATOM     12  H   UNL     1       6.698  -3.357  24.665  0.00  0.00    +0.156 HD
ATOM     13  O   UNL     1       8.938  -3.759  26.937  0.00  0.00    -0.263 OA
BRANCH  10  14
ATOM     14  C   UNL     1       7.290  -5.235  26.197  0.00  0.00    +0.393 C 
ATOM     15  O   UNL     1       6.337  -5.487  25.487  0.00  0.00    -0.240 OA
BRANCH  14  16
ATOM     16  O   UNL     1       7.812  -6.019  27.161  0.00  0.00    -0.474 OA
ATOM     17  H   UNL     1       7.186  -6.767  27.333  0.00  0.00    +0.296 HD
ENDBRANCH  14  16
ENDBRANCH  10  14
ENDBRANCH   1  11
BRANCH   9  18
ATOM     18  C   UNL     1       9.943  -2.210  23.417  0.00  0.00    +0.339 C 
ATOM     19  O   UNL     1      10.337  -1.964  22.288  0.00  0.00    -0.245 OA
BRANCH  18  20
ATOM     20  O   UNL     1      10.286  -3.358  24.056  0.00  0.00    -0.477 OA
ATOM     21  H   UNL     1      11.087  -3.766  23.680  0.00  0.00    +0.295 HD
ENDBRANCH  18  20
ENDBRANCH   9  18
TORSDOF 5
ENDMDL
