MODEL 1
REMARK VINA RESULT:      -4.8      0.000      0.000
REMARK  Name = 
REMARK  4 active torsions:
REMARK  status: ('A' for Active; 'I' for Inactive)
REMARK    1  A    between atoms: O_1  and  C_2
REMARK    2  A    between atoms: C_2  and  C_4
REMARK    3  A    between atoms: C_2  and  C_7
REMARK    4  A    between atoms: C_4  and  O_5
REMARK                            x       y       z     vdW  Elec       q    Type
REMARK                         _______ _______ _______ _____ _____    ______ ____
ROOT
ATOM      1  C   UNL     1      10.219  -1.644  22.535  0.00  0.00    +0.253 C 
ENDROOT
BRANCH   1   2
ATOM      2  C   UNL     1      10.198  -0.162  22.841  0.00  0.00    -0.008 A 
ATOM      3  C   UNL     1      10.633   0.311  24.090  0.00  0.00    +0.007 A 
ATOM      4  C   UNL     1      10.677   1.679  24.352  0.00  0.00    +0.000 A 
ATOM      5  C   UNL     1      10.302   2.588  23.367  0.00  0.00    +0.000 A 
ATOM      6  C   UNL     1       9.867   2.135  22.124  0.00  0.00    +0.000 A 
ATOM      7  C   UNL     1       9.811   0.765  21.861  0.00  0.00    +0.007 A 
ENDBRANCH   1   2
BRANCH   1   8
ATOM      8  O   UNL     1       9.705  -1.841  21.217  0.00  0.00    -0.376 OA
ATOM      9  H   UNL     1       9.535  -0.949  20.856  0.00  0.00    +0.211 HD
ENDBRANCH   1   8
BRANCH   1  10
ATOM     10  C   UNL     1       9.478  -2.501  23.577  0.00  0.00    +0.338 C 
ATOM     11  O   UNL     1      10.045  -3.391  24.203  0.00  0.00    -0.248 OA
BRANCH  10  12
ATOM     12  O   UNL     1       8.179  -2.200  23.793  0.00  0.00    -0.479 OA
ATOM     13  H   UNL     1       7.549  -2.696  23.235  0.00  0.00    +0.295 HD
ENDBRANCH  10  12
ENDBRANCH   1  10
TORSDOF 4
ENDMDL
MODEL 2
REMARK VINA RESULT:      -4.8      0.077      1.746
REMARK  Name = 
REMARK  4 active torsions:
REMARK  status: ('A' for Active; 'I' for Inactive)
REMARK    1  A    between atoms: O_1  and  C_2
REMARK    2  A    between atoms: C_2  and  C_4
REMARK    3  A    between atoms: C_2  and  C_7
REMARK    4  A    between atoms: C_4  and  O_5
REMARK                            x       y       z     vdW  Elec       q    Type
REMARK                         _______ _______ _______ _____ _____    ______ ____
ROOT
ATOM      1  C   UNL     1      10.204  -1.667  22.570  0.00  0.00    +0.253 C 
ENDROOT
BRANCH   1   2
ATOM      2  C   UNL     1      10.239  -0.179  22.843  0.00  0.00    -0.008 A 
ATOM      3  C   UNL     1       9.818   0.733  21.860  0.00  0.00    +0.007 A 
ATOM      4  C   UNL     1       9.787   2.100  22.132  0.00  0.00    +0.000 A 
ATOM      5  C   UNL     1      10.159   2.569  23.387  0.00  0.00    +0.000 A 
ATOM      6  C   UNL     1      10.580   1.677  24.372  0.00  0.00    +0.000 A 
ATOM      7  C   UNL     1      10.624   0.309  24.101  0.00  0.00    +0.007 A 
ENDBRANCH   1   2
BRANCH   1   8
ATOM      8  O   UNL     1       9.734  -1.871  21.237  0.00  0.00    -0.376 OA
ATOM      9  H   UNL     1      10.526  -1.854  20.665  0.00  0.00    +0.211 HD
ENDBRANCH   1   8
BRANCH   1  10
ATOM     10  C   UNL     1       9.385  -2.466  23.599  0.00  0.00    +0.338 C 
ATOM     11  O   UNL     1       8.203  -2.220  23.816  0.00  0.00    -0.248 OA
BRANCH  10  12
ATOM     12  O   UNL     1      10.024  -3.477  24.228  0.00  0.00    -0.479 OA
ATOM     13  H   UNL     1      10.995  -3.378  24.271  0.00  0.00    +0.295 HD
ENDBRANCH  10  12
ENDBRANCH   1  10
TORSDOF 4
ENDMDL
MODEL 3
REMARK VINA RESULT:      -4.8      3.488      4.866
REMARK  Name = 
REMARK  4 active torsions:
REMARK  status: ('A' for Active; 'I' for Inactive)
REMARK    1  A    between atoms: O_1  and  C_2
REMARK    2  A    between atoms: C_2  and  C_4
REMARK    3  A    between atoms: C_2  and  C_7
REMARK    4  A    between atoms: C_4  and  O_5
REMARK                            x       y       z     vdW  Elec       q    Type
REMARK                         _______ _______ _______ _____ _____    ______ ____
ROOT
ATOM      1  C   UNL     1       9.449  -4.733  25.625  0.00  0.00    +0.253 C 
ENDROOT
BRANCH   1   2
ATOM      2  C   UNL     1       9.055  -3.918  24.412  0.00  0.00    -0.008 A 
ATOM      3  C   UNL     1       7.934  -4.280  23.646  0.00  0.00    +0.007 A 
ATOM      4  C   UNL     1       7.530  -3.495  22.569  0.00  0.00    +0.000 A 
ATOM      5  C   UNL     1       8.229  -2.334  22.253  0.00  0.00    +0.000 A 
ATOM      6  C   UNL     1       9.344  -1.962  23.001  0.00  0.00    +0.000 A 
ATOM      7  C   UNL     1       9.759  -2.751  24.074  0.00  0.00    +0.007 A 
ENDBRANCH   1   2
BRANCH   1   8
ATOM      8  O   UNL     1       9.898  -6.015  25.181  0.00  0.00    -0.376 OA
ATOM      9  H   UNL     1       9.692  -6.058  24.226  0.00  0.00    +0.211 HD
ENDBRANCH   1   8
BRANCH   1  10
ATOM     10  C   UNL     1       8.336  -4.847  26.682  0.00  0.00    +0.338 C 
ATOM     11  O   UNL     1       7.750  -3.859  27.111  0.00  0.00    -0.248 OA
BRANCH  10  12
ATOM     12  O   UNL     1       8.013  -6.094  27.088  0.00  0.00    -0.479 OA
ATOM     13  H   UNL     1       7.847  -6.727  26.362  0.00  0.00    +0.295 HD
ENDBRANCH  10  12
ENDBRANCH   1  10
TORSDOF 4
ENDMDL
MODEL 4
REMARK VINA RESULT:      -4.7      4.592      5.908
REMARK  Name = 
REMARK  4 active torsions:
REMARK  status: ('A' for Active; 'I' for Inactive)
REMARK    1  A    between atoms: O_1  and  C_2
REMARK    2  A    between atoms: C_2  and  C_4
REMARK    3  A    between atoms: C_2  and  C_7
REMARK    4  A    between atoms: C_4  and  O_5
REMARK                            x       y       z     vdW  Elec       q    Type
REMARK                         _______ _______ _______ _____ _____    ______ ____
ROOT
ATOM      1  C   UNL     1       8.628  -4.088  24.661  0.00  0.00    +0.253 C 
ENDROOT
BRANCH   1   2
ATOM      2  C   UNL     1       7.728  -4.436  23.495  0.00  0.00    -0.008 A 
ATOM      3  C   UNL     1       6.919  -3.450  22.904  0.00  0.00    +0.007 A 
ATOM      4  C   UNL     1       6.139  -3.751  21.790  0.00  0.00    +0.000 A 
ATOM      5  C   UNL     1       6.167  -5.031  21.245  0.00  0.00    +0.000 A 
ATOM      6  C   UNL     1       6.962  -6.020  21.821  0.00  0.00    +0.000 A 
ATOM      7  C   UNL     1       7.737  -5.726  22.944  0.00  0.00    +0.007 A 
ENDBRANCH   1   2
BRANCH   1   8
ATOM      8  O   UNL     1       9.846  -3.547  24.147  0.00  0.00    -0.376 OA
ATOM      9  H   UNL     1      10.016  -4.015  23.306  0.00  0.00    +0.211 HD
ENDBRANCH   1   8
BRANCH   1  10
ATOM     10  C   UNL     1       8.880  -5.266  25.620  0.00  0.00    +0.338 C 
ATOM     11  O   UNL     1       7.991  -5.722  26.331  0.00  0.00    -0.248 OA
BRANCH  10  12
ATOM     12  O   UNL     1      10.123  -5.796  25.612  0.00  0.00    -0.479 OA
ATOM     13  H   UNL     1      10.831  -5.174  25.870  0.00  0.00    +0.295 HD
ENDBRANCH  10  12
ENDBRANCH   1  10
TORSDOF 4
ENDMDL
MODEL 5
REMARK VINA RESULT:      -4.5      2.893      4.138
REMARK  Name = 
REMARK  4 active torsions:
REMARK  status: ('A' for Active; 'I' for Inactive)
REMARK    1  A    between atoms: O_1  and  C_2
REMARK    2  A    between atoms: C_2  and  C_4
REMARK    3  A    between atoms: C_2  and  C_7
REMARK    4  A    between atoms: C_4  and  O_5
REMARK                            x       y       z     vdW  Elec       q    Type
REMARK                         _______ _______ _______ _____ _____    ______ ____
ROOT
ATOM      1  C   UNL     1       9.229   1.586  21.518  0.00  0.00    +0.253 C 
ENDROOT
BRANCH   1   2
ATOM      2  C   UNL     1       9.483   0.343  22.344  0.00  0.00    -0.008 A 
ATOM      3  C   UNL     1       9.845   0.453  23.698  0.00  0.00    +0.007 A 
ATOM      4  C   UNL     1      10.016  -0.689  24.477  0.00  0.00    +0.000 A 
ATOM      5  C   UNL     1       9.815  -1.949  23.921  0.00  0.00    +0.000 A 
ATOM      6  C   UNL     1       9.458  -2.074  22.580  0.00  0.00    +0.000 A 
ATOM      7  C   UNL     1       9.297  -0.934  21.793  0.00  0.00    +0.007 A 
ENDBRANCH   1   2
BRANCH   1   8
ATOM      8  O   UNL     1      10.382   2.426  21.598  0.00  0.00    -0.376 OA
ATOM      9  H   UNL     1      10.273   3.101  20.899  0.00  0.00    +0.211 HD
ENDBRANCH   1   8
BRANCH   1  10
ATOM     10  C   UNL     1       7.942   2.335  21.908  0.00  0.00    +0.338 C 
ATOM     11  O   UNL     1       6.875   1.749  22.062  0.00  0.00    -0.248 OA
BRANCH  10  12
ATOM     12  O   UNL     1       8.054   3.666  22.107  0.00  0.00    -0.479 OA
ATOM     13  H   UNL     1       7.281   4.187  21.815  0.00  0.00    +0.295 HD
ENDBRANCH  10  12
ENDBRANCH   1  10
TORSDOF 4
ENDMDL
MODEL 6
REMARK VINA RESULT:      -4.5      2.763      4.207
REMARK  Name = 
REMARK  4 active torsions:
REMARK  status: ('A' for Active; 'I' for Inactive)
REMARK    1  A    between atoms: O_1  and  C_2
REMARK    2  A    between atoms: C_2  and  C_4
REMARK    3  A    between atoms: C_2  and  C_7
REMARK    4  A    between atoms: C_4  and  O_5
REMARK                            x       y       z     vdW  Elec       q    Type
REMARK                         _______ _______ _______ _____ _____    ______ ____
ROOT
ATOM      1  C   UNL     1       9.507   2.178  23.709  0.00  0.00    +0.253 C 
ENDROOT
BRANCH   1   2
ATOM      2  C   UNL     1      10.154   3.546  23.714  0.00  0.00    -0.008 A 
ATOM      3  C   UNL     1       9.429   4.673  24.138  0.00  0.00    +0.007 A 
ATOM      4  C   UNL     1      10.042   5.922  24.206  0.00  0.00    +0.000 A 
ATOM      5  C   UNL     1      11.384   6.059  23.866  0.00  0.00    +0.000 A 
ATOM      6  C   UNL     1      12.116   4.952  23.442  0.00  0.00    +0.000 A 
ATOM      7  C   UNL     1      11.504   3.700  23.362  0.00  0.00    +0.007 A 
ENDBRANCH   1   2
BRANCH   1   8
ATOM      8  O   UNL     1       9.982   1.449  24.842  0.00  0.00    -0.376 OA
ATOM      9  H   UNL     1       9.207   1.314  25.422  0.00  0.00    +0.211 HD
ENDBRANCH   1   8
BRANCH   1  10
ATOM     10  C   UNL     1       9.713   1.401  22.396  0.00  0.00    +0.338 C 
ATOM     11  O   UNL     1      10.195   0.273  22.381  0.00  0.00    -0.248 OA
BRANCH  10  12
ATOM     12  O   UNL     1       9.302   2.011  21.263  0.00  0.00    -0.479 OA
ATOM     13  H   UNL     1       9.161   1.408  20.507  0.00  0.00    +0.295 HD
ENDBRANCH  10  12
ENDBRANCH   1  10
TORSDOF 4
ENDMDL
MODEL 7
REMARK VINA RESULT:      -4.3      2.848      3.914
REMARK  Name = 
REMARK  4 active torsions:
REMARK  status: ('A' for Active; 'I' for Inactive)
REMARK    1  A    between atoms: O_1  and  C_2
REMARK    2  A    between atoms: C_2  and  C_4
REMARK    3  A    between atoms: C_2  and  C_7
REMARK    4  A    between atoms: C_4  and  O_5
REMARK                            x       y       z     vdW  Elec       q    Type
REMARK                         _______ _______ _______ _____ _____    ______ ____
ROOT
ATOM      1  C   UNL     1      10.609   2.157  22.835  0.00  0.00    +0.253 C 
ENDROOT
BRANCH   1   2
ATOM      2  C   UNL     1      10.691   3.567  23.379  0.00  0.00    -0.008 A 
ATOM      3  C   UNL     1      11.887   4.298  23.280  0.00  0.00    +0.007 A 
ATOM      4  C   UNL     1      11.946   5.619  23.720  0.00  0.00    +0.000 A 
ATOM      5  C   UNL     1      10.813   6.228  24.249  0.00  0.00    +0.000 A 
ATOM      6  C   UNL     1       9.620   5.516  24.355  0.00  0.00    +0.000 A 
ATOM      7  C   UNL     1       9.558   4.190  23.926  0.00  0.00    +0.007 A 
ENDBRANCH   1   2
BRANCH   1   8
ATOM      8  O   UNL     1       9.841   2.180  21.631  0.00  0.00    -0.376 OA
ATOM      9  H   UNL     1      10.031   1.338  21.173  0.00  0.00    +0.211 HD
ENDBRANCH   1   8
BRANCH   1  10
ATOM     10  C   UNL     1      10.063   1.135  23.848  0.00  0.00    +0.338 C 
ATOM     11  O   UNL     1      10.720   0.771  24.818  0.00  0.00    -0.248 OA
BRANCH  10  12
ATOM     12  O   UNL     1       8.807   0.685  23.634  0.00  0.00    -0.479 OA
ATOM     13  H   UNL     1       8.324   0.429  24.444  0.00  0.00    +0.295 HD
ENDBRANCH  10  12
ENDBRANCH   1  10
TORSDOF 4
ENDMDL
MODEL 8
REMARK VINA RESULT:      -4.3      2.939      4.221
REMARK  Name = 
REMARK  4 active torsions:
REMARK  status: ('A' for Active; 'I' for Inactive)
REMARK    1  A    between atoms: O_1  and  C_2
REMARK    2  A    between atoms: C_2  and  C_4
REMARK    3  A    between atoms: C_2  and  C_7
REMARK    4  A    between atoms: C_4  and  O_5
REMARK                            x       y       z     vdW  Elec       q    Type
REMARK                         _______ _______ _______ _____ _____    ______ ____
ROOT
ATOM      1  C   UNL     1       9.162   2.050  22.724  0.00  0.00    +0.253 C 
ENDROOT
BRANCH   1   2
ATOM      2  C   UNL     1       9.479   0.606  23.049  0.00  0.00    -0.008 A 
ATOM      3  C   UNL     1       9.331   0.125  24.361  0.00  0.00    +0.007 A 
ATOM      4  C   UNL     1       9.559  -1.219  24.651  0.00  0.00    +0.000 A 
ATOM      5  C   UNL     1       9.921  -2.098  23.635  0.00  0.00    +0.000 A 
ATOM      6  C   UNL     1      10.073  -1.636  22.329  0.00  0.00    +0.000 A 
ATOM      7  C   UNL     1       9.857  -0.289  22.037  0.00  0.00    +0.007 A 
ENDBRANCH   1   2
BRANCH   1   8
ATOM      8  O   UNL     1       9.422   2.269  21.337  0.00  0.00    -0.376 OA
ATOM      9  H   UNL     1       9.143   1.453  20.877  0.00  0.00    +0.211 HD
ENDBRANCH   1   8
BRANCH   1  10
ATOM     10  C   UNL     1       9.903   3.061  23.616  0.00  0.00    +0.338 C 
ATOM     11  O   UNL     1      11.094   3.313  23.457  0.00  0.00    -0.248 OA
BRANCH  10  12
ATOM     12  O   UNL     1       9.168   3.686  24.562  0.00  0.00    -0.479 OA
ATOM     13  H   UNL     1       9.046   4.644  24.415  0.00  0.00    +0.295 HD
ENDBRANCH  10  12
ENDBRANCH   1  10
TORSDOF 4
ENDMDL
MODEL 9
REMARK VINA RESULT:      -4.3      4.384      5.884
REMARK  Name = 
REMARK  4 active torsions:
REMARK  status: ('A' for Active; 'I' for Inactive)
REMARK    1  A    between atoms: O_1  and  C_2
REMARK    2  A    between atoms: C_2  and  C_4
REMARK    3  A    between atoms: C_2  and  C_7
REMARK    4  A    between atoms: C_4  and  O_5
REMARK                            x       y       z     vdW  Elec       q    Type
REMARK                         _______ _______ _______ _____ _____    ______ ____
ROOT
ATOM      1  C   UNL     1       6.232  -5.787  21.993  0.00  0.00    +0.253 C 
ENDROOT
BRANCH   1   2
ATOM      2  C   UNL     1       7.182  -4.806  22.645  0.00  0.00    -0.008 A 
ATOM      3  C   UNL     1       7.271  -3.484  22.175  0.00  0.00    +0.007 A 
ATOM      4  C   UNL     1       8.096  -2.561  22.814  0.00  0.00    +0.000 A 
ATOM      5  C   UNL     1       8.829  -2.941  23.935  0.00  0.00    +0.000 A 
ATOM      6  C   UNL     1       8.753  -4.248  24.412  0.00  0.00    +0.000 A 
ATOM      7  C   UNL     1       7.937  -5.179  23.768  0.00  0.00    +0.007 A 
ENDBRANCH   1   2
BRANCH   1   8
ATOM      8  O   UNL     1       5.986  -5.356  20.654  0.00  0.00    -0.376 OA
ATOM      9  H   UNL     1       5.872  -6.169  20.124  0.00  0.00    +0.211 HD
ENDBRANCH   1   8
BRANCH   1  10
ATOM     10  C   UNL     1       4.927  -5.999  22.779  0.00  0.00    +0.338 C 
ATOM     11  O   UNL     1       3.996  -5.203  22.713  0.00  0.00    -0.248 OA
BRANCH  10  12
ATOM     12  O   UNL     1       4.843  -7.126  23.520  0.00  0.00    -0.479 OA
ATOM     13  H   UNL     1       5.130  -7.024  24.448  0.00  0.00    +0.295 HD
ENDBRANCH  10  12
ENDBRANCH   1  10
TORSDOF 4
ENDMDL
