MODEL 1
REMARK VINA RESULT:      -7.0      0.000      0.000
REMARK  Name = 
REMARK  10 active torsions:
REMARK  status: ('A' for Active; 'I' for Inactive)
REMARK    1  A    between atoms: O_1  and  C_2
REMARK    2  A    between atoms: C_2  and  C_3
REMARK    3  A    between atoms: C_3  and  O_4
REMARK    4  A    between atoms: C_3  and  C_5
REMARK    5  A    between atoms: C_5  and  O_6
REMARK    6  A    between atoms: O_6  and  C_7
REMARK    7  A    between atoms: C_7  and  C_9
REMARK    8  A    between atoms: C_14  and  N_15
REMARK    9  A    between atoms: N_15  and  C_16
REMARK   10  A    between atoms: C_21  and  C_26
REMARK                            x       y       z     vdW  Elec       q    Type
REMARK                         _______ _______ _______ _____ _____    ______ ____
ROOT
ATOM      1  C   UNL     1       6.519  -5.303  24.548  0.00  0.00    +0.080 A 
ATOM      2  C   UNL     1       7.471  -4.643  23.686  0.00  0.00    +0.045 A 
ATOM      3  C   UNL     1       7.226  -4.659  22.283  0.00  0.00    +0.024 A 
ATOM      4  C   UNL     1       6.090  -5.255  21.730  0.00  0.00    +0.002 A 
ATOM      5  C   UNL     1       5.163  -5.855  22.552  0.00  0.00    +0.001 A 
ATOM      6  C   UNL     1       5.376  -5.887  23.936  0.00  0.00    +0.017 A 
ENDROOT
BRANCH   1   7
ATOM      7  C   UNL     1       6.502  -5.352  26.086  0.00  0.00    +0.341 C 
ATOM      8  O   UNL     1       7.493  -5.648  26.753  0.00  0.00    -0.245 OA
BRANCH   7   9
ATOM      9  O   UNL     1       5.277  -5.013  26.629  0.00  0.00    -0.458 OA
BRANCH   9  10
ATOM     10  C   UNL     1       5.129  -4.399  27.965  0.00  0.00    +0.266 C 
BRANCH  10  11
ATOM     11  C   UNL     1       5.092  -5.355  29.192  0.00  0.00    +0.177 C 
BRANCH  11  12
ATOM     12  O   UNL     1       6.443  -5.643  29.637  0.00  0.00    -0.386 OA
ATOM     13  H   UNL     1       6.437  -5.577  30.616  0.00  0.00    +0.210 HD
ENDBRANCH  11  12
BRANCH  11  14
ATOM     14  C   UNL     1       4.410  -6.702  28.926  0.00  0.00    +0.190 C 
BRANCH  14  15
ATOM     15  O   UNL     1       5.319  -7.567  28.236  0.00  0.00    -0.392 OA
ATOM     16  H   UNL     1       6.135  -7.055  28.086  0.00  0.00    +0.210 HD
ENDBRANCH  14  15
ENDBRANCH  11  14
ENDBRANCH  10  11
ENDBRANCH   9  10
ENDBRANCH   7   9
ENDBRANCH   1   7
BRANCH   2  17
ATOM     17  N   UNL     1       8.641  -3.937  24.107  0.00  0.00    -0.313 N 
ATOM     18  H   UNL     1       9.391  -4.574  24.366  0.00  0.00    +0.152 HD
BRANCH  17  19
ATOM     19  C   UNL     1       8.838  -2.584  24.576  0.00  0.00    +0.042 A 
ATOM     20  C   UNL     1       8.693  -2.273  25.929  0.00  0.00    +0.043 A 
ATOM     21  C   UNL     1       8.656  -0.937  26.306  0.00  0.00    +0.113 A 
ATOM     22  N   UNL     1       8.752   0.105  25.451  0.00  0.00    -0.254 NA
ATOM     23  C   UNL     1       8.995  -0.148  24.156  0.00  0.00    +0.084 A 
ATOM     24  C   UNL     1       9.131   0.917  23.253  0.00  0.00    +0.081 A 
ATOM     25  C   UNL     1       9.455   0.666  21.906  0.00  0.00    +0.014 A 
ATOM     26  C   UNL     1       9.734  -0.626  21.483  0.00  0.00    +0.001 A 
ATOM     27  C   UNL     1       9.578  -1.690  22.366  0.00  0.00    +0.012 A 
ATOM     28  C   UNL     1       9.129  -1.495  23.690  0.00  0.00    +0.022 A 
BRANCH  24  29
ATOM     29  C   UNL     1       8.911   2.350  23.677  0.00  0.00    +0.419 C 
ATOM     30  F   UNL     1       9.844   2.847  24.534  0.00  0.00    -0.166 F 
ATOM     31  F   UNL     1       7.694   2.563  24.254  0.00  0.00    -0.166 F 
ATOM     32  F   UNL     1       8.939   3.214  22.609  0.00  0.00    -0.166 F 
ENDBRANCH  24  29
ENDBRANCH  17  19
ENDBRANCH   2  17
TORSDOF 10
ENDMDL
MODEL 2
REMARK VINA RESULT:      -7.0      1.965      2.574
REMARK  Name = 
REMARK  10 active torsions:
REMARK  status: ('A' for Active; 'I' for Inactive)
REMARK    1  A    between atoms: O_1  and  C_2
REMARK    2  A    between atoms: C_2  and  C_3
REMARK    3  A    between atoms: C_3  and  O_4
REMARK    4  A    between atoms: C_3  and  C_5
REMARK    5  A    between atoms: C_5  and  O_6
REMARK    6  A    between atoms: O_6  and  C_7
REMARK    7  A    between atoms: C_7  and  C_9
REMARK    8  A    between atoms: C_14  and  N_15
REMARK    9  A    between atoms: N_15  and  C_16
REMARK   10  A    between atoms: C_21  and  C_26
REMARK                            x       y       z     vdW  Elec       q    Type
REMARK                         _______ _______ _______ _____ _____    ______ ____
ROOT
ATOM      1  C   UNL     1       7.868  -3.998  23.845  0.00  0.00    +0.080 A 
ATOM      2  C   UNL     1       7.211  -2.758  23.505  0.00  0.00    +0.045 A 
ATOM      3  C   UNL     1       6.331  -2.752  22.386  0.00  0.00    +0.024 A 
ATOM      4  C   UNL     1       6.063  -3.903  21.640  0.00  0.00    +0.002 A 
ATOM      5  C   UNL     1       6.661  -5.095  21.983  0.00  0.00    +0.001 A 
ATOM      6  C   UNL     1       7.555  -5.142  23.060  0.00  0.00    +0.017 A 
ENDROOT
BRANCH   1   7
ATOM      7  C   UNL     1       8.784  -4.293  25.046  0.00  0.00    +0.341 C 
ATOM      8  O   UNL     1       9.820  -4.949  24.947  0.00  0.00    -0.245 OA
BRANCH   7   9
ATOM      9  O   UNL     1       8.334  -3.731  26.225  0.00  0.00    -0.458 OA
BRANCH   9  10
ATOM     10  C   UNL     1       6.958  -3.913  26.731  0.00  0.00    +0.266 C 
BRANCH  10  11
ATOM     11  C   UNL     1       6.610  -5.284  27.380  0.00  0.00    +0.177 C 
BRANCH  11  12
ATOM     12  O   UNL     1       7.826  -6.027  27.653  0.00  0.00    -0.386 OA
ATOM     13  H   UNL     1       7.875  -6.742  26.982  0.00  0.00    +0.210 HD
ENDBRANCH  11  12
BRANCH  11  14
ATOM     14  C   UNL     1       5.718  -6.185  26.517  0.00  0.00    +0.190 C 
BRANCH  14  15
ATOM     15  O   UNL     1       5.160  -7.221  27.332  0.00  0.00    -0.392 OA
ATOM     16  H   UNL     1       4.733  -7.856  26.727  0.00  0.00    +0.210 HD
ENDBRANCH  14  15
ENDBRANCH  11  14
ENDBRANCH  10  11
ENDBRANCH   9  10
ENDBRANCH   7   9
ENDBRANCH   1   7
BRANCH   2  17
ATOM     17  N   UNL     1       7.335  -1.519  24.208  0.00  0.00    -0.313 N 
ATOM     18  H   UNL     1       6.447  -1.223  24.606  0.00  0.00    +0.152 HD
BRANCH  17  19
ATOM     19  C   UNL     1       8.326  -0.469  24.151  0.00  0.00    +0.042 A 
ATOM     20  C   UNL     1       9.595  -0.658  24.701  0.00  0.00    +0.043 A 
ATOM     21  C   UNL     1      10.433   0.441  24.838  0.00  0.00    +0.113 A 
ATOM     22  N   UNL     1      10.112   1.702  24.473  0.00  0.00    -0.254 NA
ATOM     23  C   UNL     1       8.943   1.911  23.847  0.00  0.00    +0.084 A 
ATOM     24  C   UNL     1       8.601   3.206  23.430  0.00  0.00    +0.081 A 
ATOM     25  C   UNL     1       7.411   3.425  22.710  0.00  0.00    +0.014 A 
ATOM     26  C   UNL     1       6.616   2.353  22.328  0.00  0.00    +0.001 A 
ATOM     27  C   UNL     1       6.937   1.069  22.758  0.00  0.00    +0.012 A 
ATOM     28  C   UNL     1       8.050   0.823  23.590  0.00  0.00    +0.022 A 
BRANCH  24  29
ATOM     29  C   UNL     1       9.466   4.399  23.754  0.00  0.00    +0.419 C 
ATOM     30  F   UNL     1      10.773   4.281  23.391  0.00  0.00    -0.166 F 
ATOM     31  F   UNL     1       9.456   4.733  25.077  0.00  0.00    -0.166 F 
ATOM     32  F   UNL     1       9.039   5.536  23.112  0.00  0.00    -0.166 F 
ENDBRANCH  24  29
ENDBRANCH  17  19
ENDBRANCH   2  17
TORSDOF 10
ENDMDL
MODEL 3
REMARK VINA RESULT:      -6.9      4.166      6.901
REMARK  Name = 
REMARK  10 active torsions:
REMARK  status: ('A' for Active; 'I' for Inactive)
REMARK    1  A    between atoms: O_1  and  C_2
REMARK    2  A    between atoms: C_2  and  C_3
REMARK    3  A    between atoms: C_3  and  O_4
REMARK    4  A    between atoms: C_3  and  C_5
REMARK    5  A    between atoms: C_5  and  O_6
REMARK    6  A    between atoms: O_6  and  C_7
REMARK    7  A    between atoms: C_7  and  C_9
REMARK    8  A    between atoms: C_14  and  N_15
REMARK    9  A    between atoms: N_15  and  C_16
REMARK   10  A    between atoms: C_21  and  C_26
REMARK                            x       y       z     vdW  Elec       q    Type
REMARK                         _______ _______ _______ _____ _____    ______ ____
ROOT
ATOM      1  C   UNL     1       8.989  -0.527  22.950  0.00  0.00    +0.080 A 
ATOM      2  C   UNL     1       7.592  -0.157  22.954  0.00  0.00    +0.045 A 
ATOM      3  C   UNL     1       7.224   1.070  22.334  0.00  0.00    +0.024 A 
ATOM      4  C   UNL     1       8.157   1.897  21.701  0.00  0.00    +0.002 A 
ATOM      5  C   UNL     1       9.483   1.529  21.665  0.00  0.00    +0.001 A 
ATOM      6  C   UNL     1       9.895   0.343  22.285  0.00  0.00    +0.017 A 
ENDROOT
BRANCH   1   7
ATOM      7  C   UNL     1       9.630  -1.828  23.464  0.00  0.00    +0.341 C 
ATOM      8  O   UNL     1      10.588  -2.363  22.907  0.00  0.00    -0.245 OA
BRANCH   7   9
ATOM      9  O   UNL     1       9.035  -2.312  24.614  0.00  0.00    -0.458 OA
BRANCH   9  10
ATOM     10  C   UNL     1       8.906  -3.754  24.909  0.00  0.00    +0.266 C 
BRANCH  10  11
ATOM     11  C   UNL     1       8.762  -4.169  26.402  0.00  0.00    +0.177 C 
BRANCH  11  12
ATOM     12  O   UNL     1       9.849  -5.053  26.778  0.00  0.00    -0.386 OA
ATOM     13  H   UNL     1      10.001  -4.918  27.739  0.00  0.00    +0.210 HD
ENDBRANCH  11  12
BRANCH  11  14
ATOM     14  C   UNL     1       7.455  -4.900  26.733  0.00  0.00    +0.190 C 
BRANCH  14  15
ATOM     15  O   UNL     1       7.719  -5.940  27.680  0.00  0.00    -0.392 OA
ATOM     16  H   UNL     1       7.991  -5.503  28.509  0.00  0.00    +0.210 HD
ENDBRANCH  14  15
ENDBRANCH  11  14
ENDBRANCH  10  11
ENDBRANCH   9  10
ENDBRANCH   7   9
ENDBRANCH   1   7
BRANCH   2  17
ATOM     17  N   UNL     1       6.519  -0.926  23.503  0.00  0.00    -0.313 N 
ATOM     18  H   UNL     1       6.229  -0.572  24.411  0.00  0.00    +0.152 HD
BRANCH  17  19
ATOM     19  C   UNL     1       6.042  -2.260  23.219  0.00  0.00    +0.042 A 
ATOM     20  C   UNL     1       6.455  -2.934  22.069  0.00  0.00    +0.043 A 
ATOM     21  C   UNL     1       5.801  -4.105  21.709  0.00  0.00    +0.113 A 
ATOM     22  N   UNL     1       4.777  -4.655  22.400  0.00  0.00    -0.254 NA
ATOM     23  C   UNL     1       4.416  -4.097  23.565  0.00  0.00    +0.084 A 
ATOM     24  C   UNL     1       3.377  -4.668  24.316  0.00  0.00    +0.081 A 
ATOM     25  C   UNL     1       3.037  -4.132  25.573  0.00  0.00    +0.014 A 
ATOM     26  C   UNL     1       3.784  -3.099  26.119  0.00  0.00    +0.001 A 
ATOM     27  C   UNL     1       4.801  -2.512  25.371  0.00  0.00    +0.012 A 
ATOM     28  C   UNL     1       5.089  -2.933  24.055  0.00  0.00    +0.022 A 
BRANCH  24  29
ATOM     29  C   UNL     1       2.578  -5.841  23.802  0.00  0.00    +0.419 C 
ATOM     30  F   UNL     1       3.291  -6.985  23.611  0.00  0.00    -0.166 F 
ATOM     31  F   UNL     1       1.929  -5.584  22.631  0.00  0.00    -0.166 F 
ATOM     32  F   UNL     1       1.580  -6.207  24.673  0.00  0.00    -0.166 F 
ENDBRANCH  24  29
ENDBRANCH  17  19
ENDBRANCH   2  17
TORSDOF 10
ENDMDL
MODEL 4
REMARK VINA RESULT:      -6.9      3.983      6.534
REMARK  Name = 
REMARK  10 active torsions:
REMARK  status: ('A' for Active; 'I' for Inactive)
REMARK    1  A    between atoms: O_1  and  C_2
REMARK    2  A    between atoms: C_2  and  C_3
REMARK    3  A    between atoms: C_3  and  O_4
REMARK    4  A    between atoms: C_3  and  C_5
REMARK    5  A    between atoms: C_5  and  O_6
REMARK    6  A    between atoms: O_6  and  C_7
REMARK    7  A    between atoms: C_7  and  C_9
REMARK    8  A    between atoms: C_14  and  N_15
REMARK    9  A    between atoms: N_15  and  C_16
REMARK   10  A    between atoms: C_21  and  C_26
REMARK                            x       y       z     vdW  Elec       q    Type
REMARK                         _______ _______ _______ _____ _____    ______ ____
ROOT
ATOM      1  C   UNL     1       9.344  -0.366  24.403  0.00  0.00    +0.080 A 
ATOM      2  C   UNL     1       8.874  -0.654  23.068  0.00  0.00    +0.045 A 
ATOM      3  C   UNL     1       9.256   0.228  22.019  0.00  0.00    +0.024 A 
ATOM      4  C   UNL     1      10.090   1.329  22.235  0.00  0.00    +0.002 A 
ATOM      5  C   UNL     1      10.568   1.587  23.500  0.00  0.00    +0.001 A 
ATOM      6  C   UNL     1      10.196   0.760  24.568  0.00  0.00    +0.017 A 
ENDROOT
BRANCH   1   7
ATOM      7  C   UNL     1       9.153  -1.201  25.681  0.00  0.00    +0.341 C 
ATOM      8  O   UNL     1       9.068  -0.695  26.799  0.00  0.00    -0.245 OA
BRANCH   7   9
ATOM      9  O   UNL     1       9.068  -2.558  25.437  0.00  0.00    -0.458 OA
BRANCH   9  10
ATOM     10  C   UNL     1       8.506  -3.518  26.410  0.00  0.00    +0.266 C 
BRANCH  10  11
ATOM     11  C   UNL     1       8.128  -4.933  25.883  0.00  0.00    +0.177 C 
BRANCH  11  12
ATOM     12  O   UNL     1       8.113  -5.882  26.980  0.00  0.00    -0.386 OA
ATOM     13  H   UNL     1       7.303  -6.426  26.871  0.00  0.00    +0.210 HD
ENDBRANCH  11  12
BRANCH  11  14
ATOM     14  C   UNL     1       9.084  -5.490  24.821  0.00  0.00    +0.190 C 
BRANCH  14  15
ATOM     15  O   UNL     1      10.436  -5.267  25.235  0.00  0.00    -0.392 OA
ATOM     16  H   UNL     1      10.656  -4.348  24.993  0.00  0.00    +0.210 HD
ENDBRANCH  14  15
ENDBRANCH  11  14
ENDBRANCH  10  11
ENDBRANCH   9  10
ENDBRANCH   7   9
ENDBRANCH   1   7
BRANCH   2  17
ATOM     17  N   UNL     1       8.072  -1.773  22.681  0.00  0.00    -0.313 N 
ATOM     18  H   UNL     1       8.250  -2.048  21.718  0.00  0.00    +0.152 HD
BRANCH  17  19
ATOM     19  C   UNL     1       6.854  -2.325  23.228  0.00  0.00    +0.042 A 
ATOM     20  C   UNL     1       6.068  -1.579  24.107  0.00  0.00    +0.043 A 
ATOM     21  C   UNL     1       5.042  -2.219  24.792  0.00  0.00    +0.113 A 
ATOM     22  N   UNL     1       4.738  -3.530  24.669  0.00  0.00    -0.254 NA
ATOM     23  C   UNL     1       5.402  -4.260  23.760  0.00  0.00    +0.084 A 
ATOM     24  C   UNL     1       5.083  -5.616  23.591  0.00  0.00    +0.081 A 
ATOM     25  C   UNL     1       5.722  -6.373  22.592  0.00  0.00    +0.014 A 
ATOM     26  C   UNL     1       6.602  -5.765  21.708  0.00  0.00    +0.001 A 
ATOM     27  C   UNL     1       6.940  -4.427  21.883  0.00  0.00    +0.012 A 
ATOM     28  C   UNL     1       6.421  -3.665  22.951  0.00  0.00    +0.022 A 
BRANCH  24  29
ATOM     29  C   UNL     1       4.078  -6.311  24.478  0.00  0.00    +0.419 C 
ATOM     30  F   UNL     1       2.828  -5.772  24.468  0.00  0.00    -0.166 F 
ATOM     31  F   UNL     1       4.465  -6.380  25.784  0.00  0.00    -0.166 F 
ATOM     32  F   UNL     1       3.884  -7.621  24.110  0.00  0.00    -0.166 F 
ENDBRANCH  24  29
ENDBRANCH  17  19
ENDBRANCH   2  17
TORSDOF 10
ENDMDL
MODEL 5
REMARK VINA RESULT:      -6.9      5.491      8.745
REMARK  Name = 
REMARK  10 active torsions:
REMARK  status: ('A' for Active; 'I' for Inactive)
REMARK    1  A    between atoms: O_1  and  C_2
REMARK    2  A    between atoms: C_2  and  C_3
REMARK    3  A    between atoms: C_3  and  O_4
REMARK    4  A    between atoms: C_3  and  C_5
REMARK    5  A    between atoms: C_5  and  O_6
REMARK    6  A    between atoms: O_6  and  C_7
REMARK    7  A    between atoms: C_7  and  C_9
REMARK    8  A    between atoms: C_14  and  N_15
REMARK    9  A    between atoms: N_15  and  C_16
REMARK   10  A    between atoms: C_21  and  C_26
REMARK                            x       y       z     vdW  Elec       q    Type
REMARK                         _______ _______ _______ _____ _____    ______ ____
ROOT
ATOM      1  C   UNL     1       7.970   2.433  23.100  0.00  0.00    +0.080 A 
ATOM      2  C   UNL     1       7.190   1.582  23.969  0.00  0.00    +0.045 A 
ATOM      3  C   UNL     1       5.780   1.772  24.000  0.00  0.00    +0.024 A 
ATOM      4  C   UNL     1       5.135   2.718  23.199  0.00  0.00    +0.002 A 
ATOM      5  C   UNL     1       5.872   3.506  22.344  0.00  0.00    +0.001 A 
ATOM      6  C   UNL     1       7.266   3.373  22.300  0.00  0.00    +0.017 A 
ENDROOT
BRANCH   1   7
ATOM      7  C   UNL     1       9.481   2.373  22.816  0.00  0.00    +0.341 C 
ATOM      8  O   UNL     1       9.960   1.709  21.897  0.00  0.00    -0.245 OA
BRANCH   7   9
ATOM      9  O   UNL     1      10.229   3.151  23.679  0.00  0.00    -0.458 OA
BRANCH   9  10
ATOM     10  C   UNL     1      11.613   3.578  23.386  0.00  0.00    +0.266 C 
BRANCH  10  11
ATOM     11  C   UNL     1      11.910   5.105  23.404  0.00  0.00    +0.177 C 
BRANCH  11  12
ATOM     12  O   UNL     1      10.750   5.841  22.938  0.00  0.00    -0.386 OA
ATOM     13  H   UNL     1      10.098   5.833  23.673  0.00  0.00    +0.210 HD
ENDBRANCH  11  12
BRANCH  11  14
ATOM     14  C   UNL     1      13.093   5.530  22.525  0.00  0.00    +0.190 C 
BRANCH  14  15
ATOM     15  O   UNL     1      14.314   5.087  23.126  0.00  0.00    -0.392 OA
ATOM     16  H   UNL     1      14.176   4.161  23.396  0.00  0.00    +0.210 HD
ENDBRANCH  14  15
ENDBRANCH  11  14
ENDBRANCH  10  11
ENDBRANCH   9  10
ENDBRANCH   7   9
ENDBRANCH   1   7
BRANCH   2  17
ATOM     17  N   UNL     1       7.697   0.532  24.796  0.00  0.00    -0.313 N 
ATOM     18  H   UNL     1       8.052   0.887  25.680  0.00  0.00    +0.152 HD
BRANCH  17  19
ATOM     19  C   UNL     1       8.132  -0.813  24.493  0.00  0.00    +0.042 A 
ATOM     20  C   UNL     1       9.483  -1.091  24.279  0.00  0.00    +0.043 A 
ATOM     21  C   UNL     1       9.835  -2.331  23.761  0.00  0.00    +0.113 A 
ATOM     22  N   UNL     1       8.956  -3.309  23.445  0.00  0.00    -0.254 NA
ATOM     23  C   UNL     1       7.659  -3.121  23.730  0.00  0.00    +0.084 A 
ATOM     24  C   UNL     1       6.731  -4.133  23.440  0.00  0.00    +0.081 A 
ATOM     25  C   UNL     1       5.379  -3.976  23.800  0.00  0.00    +0.014 A 
ATOM     26  C   UNL     1       4.971  -2.865  24.523  0.00  0.00    +0.001 A 
ATOM     27  C   UNL     1       5.880  -1.847  24.794  0.00  0.00    +0.012 A 
ATOM     28  C   UNL     1       7.215  -1.905  24.339  0.00  0.00    +0.022 A 
BRANCH  24  29
ATOM     29  C   UNL     1       7.134  -5.397  22.719  0.00  0.00    +0.419 C 
ATOM     30  F   UNL     1       6.185  -6.372  22.689  0.00  0.00    -0.166 F 
ATOM     31  F   UNL     1       8.267  -5.968  23.220  0.00  0.00    -0.166 F 
ATOM     32  F   UNL     1       7.423  -5.167  21.396  0.00  0.00    -0.166 F 
ENDBRANCH  24  29
ENDBRANCH  17  19
ENDBRANCH   2  17
TORSDOF 10
ENDMDL
MODEL 6
REMARK VINA RESULT:      -6.8      1.696      2.031
REMARK  Name = 
REMARK  10 active torsions:
REMARK  status: ('A' for Active; 'I' for Inactive)
REMARK    1  A    between atoms: O_1  and  C_2
REMARK    2  A    between atoms: C_2  and  C_3
REMARK    3  A    between atoms: C_3  and  O_4
REMARK    4  A    between atoms: C_3  and  C_5
REMARK    5  A    between atoms: C_5  and  O_6
REMARK    6  A    between atoms: O_6  and  C_7
REMARK    7  A    between atoms: C_7  and  C_9
REMARK    8  A    between atoms: C_14  and  N_15
REMARK    9  A    between atoms: N_15  and  C_16
REMARK   10  A    between atoms: C_21  and  C_26
REMARK                            x       y       z     vdW  Elec       q    Type
REMARK                         _______ _______ _______ _____ _____    ______ ____
ROOT
ATOM      1  C   UNL     1       6.996  -4.418  23.573  0.00  0.00    +0.080 A 
ATOM      2  C   UNL     1       6.263  -3.539  22.691  0.00  0.00    +0.045 A 
ATOM      3  C   UNL     1       5.943  -4.015  21.388  0.00  0.00    +0.024 A 
ATOM      4  C   UNL     1       6.282  -5.301  20.958  0.00  0.00    +0.002 A 
ATOM      5  C   UNL     1       6.950  -6.152  21.808  0.00  0.00    +0.001 A 
ATOM      6  C   UNL     1       7.310  -5.718  23.091  0.00  0.00    +0.017 A 
ENDROOT
BRANCH   1   7
ATOM      7  C   UNL     1       7.383  -4.184  25.044  0.00  0.00    +0.341 C 
ATOM      8  O   UNL     1       8.547  -4.229  25.441  0.00  0.00    -0.245 OA
BRANCH   7   9
ATOM      9  O   UNL     1       6.300  -3.902  25.854  0.00  0.00    -0.458 OA
BRANCH   9  10
ATOM     10  C   UNL     1       6.349  -3.994  27.328  0.00  0.00    +0.266 C 
BRANCH  10  11
ATOM     11  C   UNL     1       6.398  -5.417  27.956  0.00  0.00    +0.177 C 
BRANCH  11  12
ATOM     12  O   UNL     1       7.698  -6.016  27.725  0.00  0.00    -0.386 OA
ATOM     13  H   UNL     1       8.223  -5.362  27.214  0.00  0.00    +0.210 HD
ENDBRANCH  11  12
BRANCH  11  14
ATOM     14  C   UNL     1       5.351  -6.390  27.402  0.00  0.00    +0.190 C 
BRANCH  14  15
ATOM     15  O   UNL     1       5.297  -7.554  28.233  0.00  0.00    -0.392 OA
ATOM     16  H   UNL     1       4.358  -7.804  28.307  0.00  0.00    +0.210 HD
ENDBRANCH  14  15
ENDBRANCH  11  14
ENDBRANCH  10  11
ENDBRANCH   9  10
ENDBRANCH   7   9
ENDBRANCH   1   7
BRANCH   2  17
ATOM     17  N   UNL     1       5.793  -2.227  23.010  0.00  0.00    -0.313 N 
ATOM     18  H   UNL     1       4.968  -1.982  22.469  0.00  0.00    +0.152 HD
BRANCH  17  19
ATOM     19  C   UNL     1       6.438  -1.093  23.632  0.00  0.00    +0.042 A 
ATOM     20  C   UNL     1       5.862  -0.468  24.739  0.00  0.00    +0.043 A 
ATOM     21  C   UNL     1       6.380   0.750  25.161  0.00  0.00    +0.113 A 
ATOM     22  N   UNL     1       7.417   1.389  24.575  0.00  0.00    -0.254 NA
ATOM     23  C   UNL     1       8.064   0.774  23.573  0.00  0.00    +0.084 A 
ATOM     24  C   UNL     1       9.164   1.402  22.968  0.00  0.00    +0.081 A 
ATOM     25  C   UNL     1       9.894   0.737  21.965  0.00  0.00    +0.014 A 
ATOM     26  C   UNL     1       9.590  -0.575  21.631  0.00  0.00    +0.001 A 
ATOM     27  C   UNL     1       8.487  -1.196  22.209  0.00  0.00    +0.012 A 
ATOM     28  C   UNL     1       7.651  -0.520  23.124  0.00  0.00    +0.022 A 
BRANCH  24  29
ATOM     29  C   UNL     1       9.584   2.803  23.345  0.00  0.00    +0.419 C 
ATOM     30  F   UNL     1       8.734   3.787  22.945  0.00  0.00    -0.166 F 
ATOM     31  F   UNL     1      10.821   3.140  22.881  0.00  0.00    -0.166 F 
ATOM     32  F   UNL     1       9.674   2.966  24.706  0.00  0.00    -0.166 F 
ENDBRANCH  24  29
ENDBRANCH  17  19
ENDBRANCH   2  17
TORSDOF 10
ENDMDL
MODEL 7
REMARK VINA RESULT:      -6.8      1.818      2.976
REMARK  Name = 
REMARK  10 active torsions:
REMARK  status: ('A' for Active; 'I' for Inactive)
REMARK    1  A    between atoms: O_1  and  C_2
REMARK    2  A    between atoms: C_2  and  C_3
REMARK    3  A    between atoms: C_3  and  O_4
REMARK    4  A    between atoms: C_3  and  C_5
REMARK    5  A    between atoms: C_5  and  O_6
REMARK    6  A    between atoms: O_6  and  C_7
REMARK    7  A    between atoms: C_7  and  C_9
REMARK    8  A    between atoms: C_14  and  N_15
REMARK    9  A    between atoms: N_15  and  C_16
REMARK   10  A    between atoms: C_21  and  C_26
REMARK                            x       y       z     vdW  Elec       q    Type
REMARK                         _______ _______ _______ _____ _____    ______ ____
ROOT
ATOM      1  C   UNL     1       5.900  -4.226  23.769  0.00  0.00    +0.080 A 
ATOM      2  C   UNL     1       7.177  -4.023  23.126  0.00  0.00    +0.045 A 
ATOM      3  C   UNL     1       7.487  -4.821  21.988  0.00  0.00    +0.024 A 
ATOM      4  C   UNL     1       6.589  -5.755  21.464  0.00  0.00    +0.002 A 
ATOM      5  C   UNL     1       5.357  -5.926  22.054  0.00  0.00    +0.001 A 
ATOM      6  C   UNL     1       5.020  -5.182  23.192  0.00  0.00    +0.017 A 
ENDROOT
BRANCH   1   7
ATOM      7  C   UNL     1       5.291  -3.442  24.945  0.00  0.00    +0.341 C 
ATOM      8  O   UNL     1       4.572  -2.456  24.785  0.00  0.00    -0.245 OA
BRANCH   7   9
ATOM      9  O   UNL     1       5.619  -3.968  26.179  0.00  0.00    -0.458 OA
BRANCH   9  10
ATOM     10  C   UNL     1       6.984  -3.916  26.741  0.00  0.00    +0.266 C 
BRANCH  10  11
ATOM     11  C   UNL     1       7.888  -5.168  26.546  0.00  0.00    +0.177 C 
BRANCH  11  12
ATOM     12  O   UNL     1       7.801  -6.028  27.712  0.00  0.00    -0.386 OA
ATOM     13  H   UNL     1       8.435  -5.672  28.371  0.00  0.00    +0.210 HD
ENDBRANCH  11  12
BRANCH  11  14
ATOM     14  C   UNL     1       9.372  -4.851  26.332  0.00  0.00    +0.190 C 
BRANCH  14  15
ATOM     15  O   UNL     1       9.793  -5.377  25.069  0.00  0.00    -0.392 OA
ATOM     16  H   UNL     1       9.013  -5.802  24.667  0.00  0.00    +0.210 HD
ENDBRANCH  14  15
ENDBRANCH  11  14
ENDBRANCH  10  11
ENDBRANCH   9  10
ENDBRANCH   7   9
ENDBRANCH   1   7
BRANCH   2  17
ATOM     17  N   UNL     1       8.168  -3.065  23.505  0.00  0.00    -0.313 N 
ATOM     18  H   UNL     1       8.552  -3.265  24.425  0.00  0.00    +0.152 HD
BRANCH  17  19
ATOM     19  C   UNL     1       8.450  -1.728  23.036  0.00  0.00    +0.042 A 
ATOM     20  C   UNL     1       9.026  -1.521  21.781  0.00  0.00    +0.043 A 
ATOM     21  C   UNL     1       9.497  -0.254  21.464  0.00  0.00    +0.113 A 
ATOM     22  N   UNL     1       9.439   0.816  22.288  0.00  0.00    -0.254 NA
ATOM     23  C   UNL     1       8.802   0.687  23.462  0.00  0.00    +0.084 A 
ATOM     24  C   UNL     1       8.699   1.791  24.322  0.00  0.00    +0.081 A 
ATOM     25  C   UNL     1       7.973   1.686  25.523  0.00  0.00    +0.014 A 
ATOM     26  C   UNL     1       7.276   0.524  25.821  0.00  0.00    +0.001 A 
ATOM     27  C   UNL     1       7.392  -0.583  24.985  0.00  0.00    +0.012 A 
ATOM     28  C   UNL     1       8.214  -0.562  23.838  0.00  0.00    +0.022 A 
BRANCH  24  29
ATOM     29  C   UNL     1       9.377   3.104  24.011  0.00  0.00    +0.419 C 
ATOM     30  F   UNL     1      10.718   3.025  23.795  0.00  0.00    -0.166 F 
ATOM     31  F   UNL     1       9.190   4.051  24.975  0.00  0.00    -0.166 F 
ATOM     32  F   UNL     1       8.883   3.681  22.866  0.00  0.00    -0.166 F 
ENDBRANCH  24  29
ENDBRANCH  17  19
ENDBRANCH   2  17
TORSDOF 10
ENDMDL
MODEL 8
REMARK VINA RESULT:      -6.8      2.028      3.006
REMARK  Name = 
REMARK  10 active torsions:
REMARK  status: ('A' for Active; 'I' for Inactive)
REMARK    1  A    between atoms: O_1  and  C_2
REMARK    2  A    between atoms: C_2  and  C_3
REMARK    3  A    between atoms: C_3  and  O_4
REMARK    4  A    between atoms: C_3  and  C_5
REMARK    5  A    between atoms: C_5  and  O_6
REMARK    6  A    between atoms: O_6  and  C_7
REMARK    7  A    between atoms: C_7  and  C_9
REMARK    8  A    between atoms: C_14  and  N_15
REMARK    9  A    between atoms: N_15  and  C_16
REMARK   10  A    between atoms: C_21  and  C_26
REMARK                            x       y       z     vdW  Elec       q    Type
REMARK                         _______ _______ _______ _____ _____    ______ ____
ROOT
ATOM      1  C   UNL     1       5.988  -4.753  23.771  0.00  0.00    +0.080 A 
ATOM      2  C   UNL     1       5.879  -3.716  22.771  0.00  0.00    +0.045 A 
ATOM      3  C   UNL     1       6.034  -4.085  21.405  0.00  0.00    +0.024 A 
ATOM      4  C   UNL     1       6.249  -5.408  21.008  0.00  0.00    +0.002 A 
ATOM      5  C   UNL     1       6.319  -6.404  21.956  0.00  0.00    +0.001 A 
ATOM      6  C   UNL     1       6.199  -6.083  23.315  0.00  0.00    +0.017 A 
ENDROOT
BRANCH   1   7
ATOM      7  C   UNL     1       5.774  -4.637  25.290  0.00  0.00    +0.341 C 
ATOM      8  O   UNL     1       4.967  -3.854  25.789  0.00  0.00    -0.245 OA
BRANCH   7   9
ATOM      9  O   UNL     1       6.559  -5.508  26.020  0.00  0.00    -0.458 OA
BRANCH   9  10
ATOM     10  C   UNL     1       7.914  -5.163  26.500  0.00  0.00    +0.266 C 
BRANCH  10  11
ATOM     11  C   UNL     1       9.016  -4.927  25.427  0.00  0.00    +0.177 C 
BRANCH  11  12
ATOM     12  O   UNL     1      10.285  -5.449  25.897  0.00  0.00    -0.386 OA
ATOM     13  H   UNL     1      10.974  -5.101  25.291  0.00  0.00    +0.210 HD
ENDBRANCH  11  12
BRANCH  11  14
ATOM     14  C   UNL     1       9.243  -3.455  25.064  0.00  0.00    +0.190 C 
BRANCH  14  15
ATOM     15  O   UNL     1      10.229  -3.367  24.031  0.00  0.00    -0.392 OA
ATOM     16  H   UNL     1      10.305  -4.256  23.637  0.00  0.00    +0.210 HD
ENDBRANCH  14  15
ENDBRANCH  11  14
ENDBRANCH  10  11
ENDBRANCH   9  10
ENDBRANCH   7   9
ENDBRANCH   1   7
BRANCH   2  17
ATOM     17  N   UNL     1       5.598  -2.336  23.016  0.00  0.00    -0.313 N 
ATOM     18  H   UNL     1       4.865  -1.987  22.405  0.00  0.00    +0.152 HD
BRANCH  17  19
ATOM     19  C   UNL     1       6.364  -1.293  23.660  0.00  0.00    +0.042 A 
ATOM     20  C   UNL     1       5.931  -0.730  24.861  0.00  0.00    +0.043 A 
ATOM     21  C   UNL     1       6.557   0.420  25.323  0.00  0.00    +0.113 A 
ATOM     22  N   UNL     1       7.573   1.049  24.691  0.00  0.00    -0.254 NA
ATOM     23  C   UNL     1       8.088   0.485  23.588  0.00  0.00    +0.084 A 
ATOM     24  C   UNL     1       9.164   1.101  22.931  0.00  0.00    +0.081 A 
ATOM     25  C   UNL     1       9.758   0.483  21.814  0.00  0.00    +0.014 A 
ATOM     26  C   UNL     1       9.347  -0.779  21.412  0.00  0.00    +0.001 A 
ATOM     27  C   UNL     1       8.265  -1.386  22.043  0.00  0.00    +0.012 A 
ATOM     28  C   UNL     1       7.558  -0.745  23.083  0.00  0.00    +0.022 A 
BRANCH  24  29
ATOM     29  C   UNL     1       9.700   2.442  23.372  0.00  0.00    +0.419 C 
ATOM     30  F   UNL     1       9.996   2.538  24.697  0.00  0.00    -0.166 F 
ATOM     31  F   UNL     1       8.868   3.482  23.079  0.00  0.00    -0.166 F 
ATOM     32  F   UNL     1      10.878   2.760  22.739  0.00  0.00    -0.166 F 
ENDBRANCH  24  29
ENDBRANCH  17  19
ENDBRANCH   2  17
TORSDOF 10
ENDMDL
MODEL 9
REMARK VINA RESULT:      -6.6      1.829      2.449
REMARK  Name = 
REMARK  10 active torsions:
REMARK  status: ('A' for Active; 'I' for Inactive)
REMARK    1  A    between atoms: O_1  and  C_2
REMARK    2  A    between atoms: C_2  and  C_3
REMARK    3  A    between atoms: C_3  and  O_4
REMARK    4  A    between atoms: C_3  and  C_5
REMARK    5  A    between atoms: C_5  and  O_6
REMARK    6  A    between atoms: O_6  and  C_7
REMARK    7  A    between atoms: C_7  and  C_9
REMARK    8  A    between atoms: C_14  and  N_15
REMARK    9  A    between atoms: N_15  and  C_16
REMARK   10  A    between atoms: C_21  and  C_26
REMARK                            x       y       z     vdW  Elec       q    Type
REMARK                         _______ _______ _______ _____ _____    ______ ____
ROOT
ATOM      1  C   UNL     1       7.839  -4.479  23.927  0.00  0.00    +0.080 A 
ATOM      2  C   UNL     1       7.048  -3.272  24.012  0.00  0.00    +0.045 A 
ATOM      3  C   UNL     1       6.123  -3.005  22.964  0.00  0.00    +0.024 A 
ATOM      4  C   UNL     1       5.935  -3.881  21.891  0.00  0.00    +0.002 A 
ATOM      5  C   UNL     1       6.662  -5.048  21.826  0.00  0.00    +0.001 A 
ATOM      6  C   UNL     1       7.604  -5.339  22.821  0.00  0.00    +0.017 A 
ENDROOT
BRANCH   1   7
ATOM      7  C   UNL     1       8.832  -5.039  24.960  0.00  0.00    +0.341 C 
ATOM      8  O   UNL     1      10.034  -4.774  24.939  0.00  0.00    -0.245 OA
BRANCH   7   9
ATOM      9  O   UNL     1       8.235  -5.845  25.910  0.00  0.00    -0.458 OA
BRANCH   9  10
ATOM     10  C   UNL     1       7.493  -5.309  27.070  0.00  0.00    +0.266 C 
BRANCH  10  11
ATOM     11  C   UNL     1       5.945  -5.464  27.066  0.00  0.00    +0.177 C 
BRANCH  11  12
ATOM     12  O   UNL     1       5.317  -4.165  26.916  0.00  0.00    -0.386 OA
ATOM     13  H   UNL     1       4.374  -4.278  27.164  0.00  0.00    +0.210 HD
ENDBRANCH  11  12
BRANCH  11  14
ATOM     14  C   UNL     1       5.368  -6.097  28.337  0.00  0.00    +0.190 C 
BRANCH  14  15
ATOM     15  O   UNL     1       5.526  -7.518  28.275  0.00  0.00    -0.392 OA
ATOM     16  H   UNL     1       4.748  -7.908  28.715  0.00  0.00    +0.210 HD
ENDBRANCH  14  15
ENDBRANCH  11  14
ENDBRANCH  10  11
ENDBRANCH   9  10
ENDBRANCH   7   9
ENDBRANCH   1   7
BRANCH   2  17
ATOM     17  N   UNL     1       7.082  -2.316  25.074  0.00  0.00    -0.313 N 
ATOM     18  H   UNL     1       6.840  -2.739  25.967  0.00  0.00    +0.152 HD
BRANCH  17  19
ATOM     19  C   UNL     1       7.021  -0.872  25.079  0.00  0.00    +0.042 A 
ATOM     20  C   UNL     1       5.796  -0.212  25.190  0.00  0.00    +0.043 A 
ATOM     21  C   UNL     1       5.752   1.155  24.953  0.00  0.00    +0.113 A 
ATOM     22  N   UNL     1       6.821   1.913  24.620  0.00  0.00    -0.254 NA
ATOM     23  C   UNL     1       8.033   1.338  24.603  0.00  0.00    +0.084 A 
ATOM     24  C   UNL     1       9.163   2.110  24.292  0.00  0.00    +0.081 A 
ATOM     25  C   UNL     1      10.447   1.534  24.340  0.00  0.00    +0.014 A 
ATOM     26  C   UNL     1      10.614   0.231  24.784  0.00  0.00    +0.001 A 
ATOM     27  C   UNL     1       9.496  -0.548  25.072  0.00  0.00    +0.012 A 
ATOM     28  C   UNL     1       8.185  -0.051  24.913  0.00  0.00    +0.022 A 
BRANCH  24  29
ATOM     29  C   UNL     1       9.046   3.556  23.873  0.00  0.00    +0.419 C 
ATOM     30  F   UNL     1       8.504   4.385  24.807  0.00  0.00    -0.166 F 
ATOM     31  F   UNL     1       8.327   3.731  22.728  0.00  0.00    -0.166 F 
ATOM     32  F   UNL     1      10.270   4.113  23.597  0.00  0.00    -0.166 F 
ENDBRANCH  24  29
ENDBRANCH  17  19
ENDBRANCH   2  17
TORSDOF 10
ENDMDL
