MODEL 1
REMARK VINA RESULT:      -6.8      0.000      0.000
REMARK  Name = 
REMARK  3 active torsions:
REMARK  status: ('A' for Active; 'I' for Inactive)
REMARK    1  A    between atoms: C_2  and  C_3
REMARK    2  A    between atoms: C_7  and  C_9
REMARK    3  A    between atoms: C_12  and  C_14
REMARK                            x       y       z     vdW  Elec       q    Type
REMARK                         _______ _______ _______ _____ _____    ______ ____
ROOT
ATOM      1  C   UNL     1       9.413   0.229  22.637  0.00  0.00    +0.182 A 
ATOM      2  N   UNL     1       9.745   1.187  23.567  0.00  0.00    -0.207 NA
ATOM      3  C   UNL     1       9.975   2.276  22.856  0.00  0.00    +0.157 A 
ATOM      4  N   UNL     1       9.776   1.961  21.540  0.00  0.00    -0.258 N 
ATOM      5  H   UNL     1       9.865   2.554  20.724  0.00  0.00    +0.191 HD
ATOM      6  N   UNL     1       9.422   0.679  21.374  0.00  0.00    -0.152 NA
ENDROOT
BRANCH   1   9
ATOM      7  C   UNL     1       7.790  -3.134  22.744  0.00  0.00    +0.141 A 
ATOM      8  C   UNL     1       8.070  -1.835  22.346  0.00  0.00    +0.050 A 
ATOM      9  C   UNL     1       9.084  -1.140  23.009  0.00  0.00    +0.025 A 
ATOM     10  C   UNL     1       9.779  -1.780  24.038  0.00  0.00    +0.031 A 
ATOM     11  C   UNL     1       9.432  -3.079  24.362  0.00  0.00    +0.113 A 
ATOM     12  N   UNL     1       8.454  -3.770  23.740  0.00  0.00    -0.245 NA
BRANCH   7  14
ATOM     13  N   UNL     1       5.901  -4.462  21.553  0.00  0.00    -0.189 NA
ATOM     14  C   UNL     1       6.743  -3.883  22.105  0.00  0.00    +0.119 C 
ENDBRANCH   7  14
ENDBRANCH   1   9
BRANCH   3  15
ATOM     15  C   UNL     1      10.380   3.586  23.367  0.00  0.00    +0.022 A 
ATOM     16  C   UNL     1      11.715   3.982  23.240  0.00  0.00    +0.031 A 
ATOM     17  C   UNL     1      12.095   5.227  23.711  0.00  0.00    +0.111 A 
ATOM     18  N   UNL     1      11.243   6.095  24.295  0.00  0.00    -0.263 NA
ATOM     19  C   UNL     1       9.960   5.699  24.413  0.00  0.00    +0.111 A 
ATOM     20  C   UNL     1       9.485   4.472  23.974  0.00  0.00    +0.031 A 
ENDBRANCH   3  15
TORSDOF 3
ENDMDL
MODEL 2
REMARK VINA RESULT:      -6.5      1.241      2.229
REMARK  Name = 
REMARK  3 active torsions:
REMARK  status: ('A' for Active; 'I' for Inactive)
REMARK    1  A    between atoms: C_2  and  C_3
REMARK    2  A    between atoms: C_7  and  C_9
REMARK    3  A    between atoms: C_12  and  C_14
REMARK                            x       y       z     vdW  Elec       q    Type
REMARK                         _______ _______ _______ _____ _____    ______ ____
ROOT
ATOM      1  C   UNL     1       9.217   0.678  22.881  0.00  0.00    +0.182 A 
ATOM      2  N   UNL     1       9.496   1.704  23.753  0.00  0.00    -0.207 NA
ATOM      3  C   UNL     1      10.086   2.623  23.010  0.00  0.00    +0.157 A 
ATOM      4  N   UNL     1      10.143   2.144  21.729  0.00  0.00    -0.258 N 
ATOM      5  H   UNL     1      10.529   2.584  20.903  0.00  0.00    +0.191 HD
ATOM      6  N   UNL     1       9.603   0.922  21.621  0.00  0.00    -0.152 NA
ENDROOT
BRANCH   1   9
ATOM      7  C   UNL     1       8.633  -2.785  24.155  0.00  0.00    +0.141 A 
ATOM      8  C   UNL     1       9.307  -1.635  23.772  0.00  0.00    +0.050 A 
ATOM      9  C   UNL     1       8.560  -0.551  23.305  0.00  0.00    +0.025 A 
ATOM     10  C   UNL     1       7.168  -0.665  23.248  0.00  0.00    +0.031 A 
ATOM     11  C   UNL     1       6.584  -1.850  23.657  0.00  0.00    +0.113 A 
ATOM     12  N   UNL     1       7.284  -2.913  24.107  0.00  0.00    -0.245 NA
BRANCH   7  14
ATOM     13  N   UNL     1       9.975  -4.834  25.023  0.00  0.00    -0.189 NA
ATOM     14  C   UNL     1       9.358  -3.933  24.625  0.00  0.00    +0.119 C 
ENDBRANCH   7  14
ENDBRANCH   1   9
BRANCH   3  15
ATOM     15  C   UNL     1      10.598   3.917  23.459  0.00  0.00    +0.022 A 
ATOM     16  C   UNL     1       9.726   4.812  24.088  0.00  0.00    +0.031 A 
ATOM     17  C   UNL     1      10.216   6.031  24.526  0.00  0.00    +0.111 A 
ATOM     18  N   UNL     1      11.500   6.415  24.380  0.00  0.00    -0.263 NA
ATOM     19  C   UNL     1      12.328   5.544  23.769  0.00  0.00    +0.111 A 
ATOM     20  C   UNL     1      11.932   4.302  23.296  0.00  0.00    +0.031 A 
ENDBRANCH   3  15
TORSDOF 3
ENDMDL
MODEL 3
REMARK VINA RESULT:      -6.4      2.863      4.576
REMARK  Name = 
REMARK  3 active torsions:
REMARK  status: ('A' for Active; 'I' for Inactive)
REMARK    1  A    between atoms: C_2  and  C_3
REMARK    2  A    between atoms: C_7  and  C_9
REMARK    3  A    between atoms: C_12  and  C_14
REMARK                            x       y       z     vdW  Elec       q    Type
REMARK                         _______ _______ _______ _____ _____    ______ ____
ROOT
ATOM      1  C   UNL     1       8.511  -3.613  24.915  0.00  0.00    +0.182 A 
ATOM      2  N   UNL     1       8.288  -2.264  24.770  0.00  0.00    -0.207 NA
ATOM      3  C   UNL     1       9.342  -1.820  24.110  0.00  0.00    +0.157 A 
ATOM      4  N   UNL     1      10.161  -2.890  23.870  0.00  0.00    -0.258 N 
ATOM      5  H   UNL     1      11.051  -2.914  23.390  0.00  0.00    +0.191 HD
ATOM      6  N   UNL     1       9.661  -4.031  24.367  0.00  0.00    -0.152 NA
ENDROOT
BRANCH   1   9
ATOM      7  C   UNL     1       5.739  -6.025  25.588  0.00  0.00    +0.141 A 
ATOM      8  C   UNL     1       6.614  -5.211  24.885  0.00  0.00    +0.050 A 
ATOM      9  C   UNL     1       7.573  -4.491  25.602  0.00  0.00    +0.025 A 
ATOM     10  C   UNL     1       7.618  -4.625  26.992  0.00  0.00    +0.031 A 
ATOM     11  C   UNL     1       6.707  -5.466  27.605  0.00  0.00    +0.113 A 
ATOM     12  N   UNL     1       5.768  -6.168  26.936  0.00  0.00    -0.245 NA
BRANCH   7  14
ATOM     13  N   UNL     1       3.925  -7.412  24.348  0.00  0.00    -0.189 NA
ATOM     14  C   UNL     1       4.723  -6.771  24.898  0.00  0.00    +0.119 C 
ENDBRANCH   7  14
ENDBRANCH   1   9
BRANCH   3  15
ATOM     15  C   UNL     1       9.607  -0.439  23.709  0.00  0.00    +0.022 A 
ATOM     16  C   UNL     1       9.564  -0.105  22.351  0.00  0.00    +0.031 A 
ATOM     17  C   UNL     1       9.801   1.206  21.974  0.00  0.00    +0.111 A 
ATOM     18  N   UNL     1      10.076   2.196  22.847  0.00  0.00    -0.263 NA
ATOM     19  C   UNL     1      10.118   1.859  24.152  0.00  0.00    +0.111 A 
ATOM     20  C   UNL     1       9.895   0.575  24.627  0.00  0.00    +0.031 A 
ENDBRANCH   3  15
TORSDOF 3
ENDMDL
MODEL 4
REMARK VINA RESULT:      -6.4      2.297      4.381
REMARK  Name = 
REMARK  3 active torsions:
REMARK  status: ('A' for Active; 'I' for Inactive)
REMARK    1  A    between atoms: C_2  and  C_3
REMARK    2  A    between atoms: C_7  and  C_9
REMARK    3  A    between atoms: C_12  and  C_14
REMARK                            x       y       z     vdW  Elec       q    Type
REMARK                         _______ _______ _______ _____ _____    ______ ____
ROOT
ATOM      1  C   UNL     1       8.263  -3.473  23.476  0.00  0.00    +0.182 A 
ATOM      2  N   UNL     1       8.157  -2.166  23.060  0.00  0.00    -0.207 NA
ATOM      3  C   UNL     1       9.304  -1.612  23.409  0.00  0.00    +0.157 A 
ATOM      4  N   UNL     1      10.065  -2.578  24.010  0.00  0.00    -0.258 N 
ATOM      5  H   UNL     1      10.997  -2.502  24.398  0.00  0.00    +0.191 HD
ATOM      6  N   UNL     1       9.432  -3.758  24.065  0.00  0.00    -0.152 NA
ENDROOT
BRANCH   1   9
ATOM      7  C   UNL     1       5.512  -5.912  24.140  0.00  0.00    +0.141 A 
ATOM      8  C   UNL     1       6.516  -4.985  24.378  0.00  0.00    +0.050 A 
ATOM      9  C   UNL     1       7.193  -4.443  23.283  0.00  0.00    +0.025 A 
ATOM     10  C   UNL     1       6.830  -4.849  21.996  0.00  0.00    +0.031 A 
ATOM     11  C   UNL     1       5.812  -5.775  21.857  0.00  0.00    +0.113 A 
ATOM     12  N   UNL     1       5.145  -6.317  22.898  0.00  0.00    -0.245 NA
BRANCH   7  14
ATOM     13  N   UNL     1       4.260  -7.012  26.134  0.00  0.00    -0.189 NA
ATOM     14  C   UNL     1       4.798  -6.511  25.234  0.00  0.00    +0.119 C 
ENDBRANCH   7  14
ENDBRANCH   1   9
BRANCH   3  15
ATOM     15  C   UNL     1       9.701  -0.219  23.206  0.00  0.00    +0.022 A 
ATOM     16  C   UNL     1      10.304   0.477  24.260  0.00  0.00    +0.031 A 
ATOM     17  C   UNL     1      10.692   1.791  24.062  0.00  0.00    +0.111 A 
ATOM     18  N   UNL     1      10.521   2.453  22.899  0.00  0.00    -0.263 NA
ATOM     19  C   UNL     1       9.936   1.772  21.894  0.00  0.00    +0.111 A 
ATOM     20  C   UNL     1       9.513   0.454  21.995  0.00  0.00    +0.031 A 
ENDBRANCH   3  15
TORSDOF 3
ENDMDL
MODEL 5
REMARK VINA RESULT:      -6.4      2.810      4.375
REMARK  Name = 
REMARK  3 active torsions:
REMARK  status: ('A' for Active; 'I' for Inactive)
REMARK    1  A    between atoms: C_2  and  C_3
REMARK    2  A    between atoms: C_7  and  C_9
REMARK    3  A    between atoms: C_12  and  C_14
REMARK                            x       y       z     vdW  Elec       q    Type
REMARK                         _______ _______ _______ _____ _____    ______ ____
ROOT
ATOM      1  C   UNL     1       7.751  -3.360  24.022  0.00  0.00    +0.182 A 
ATOM      2  N   UNL     1       8.271  -2.153  24.427  0.00  0.00    -0.207 NA
ATOM      3  C   UNL     1       8.656  -1.564  23.309  0.00  0.00    +0.157 A 
ATOM      4  N   UNL     1       8.361  -2.407  22.273  0.00  0.00    -0.258 N 
ATOM      5  H   UNL     1       8.520  -2.276  21.282  0.00  0.00    +0.191 HD
ATOM      6  N   UNL     1       7.791  -3.545  22.695  0.00  0.00    -0.152 NA
ENDROOT
BRANCH   1   9
ATOM      7  C   UNL     1       5.667  -6.070  25.528  0.00  0.00    +0.141 A 
ATOM      8  C   UNL     1       6.152  -5.168  24.593  0.00  0.00    +0.050 A 
ATOM      9  C   UNL     1       7.210  -4.332  24.961  0.00  0.00    +0.025 A 
ATOM     10  C   UNL     1       7.740  -4.443  26.249  0.00  0.00    +0.031 A 
ATOM     11  C   UNL     1       7.194  -5.377  27.111  0.00  0.00    +0.113 A 
ATOM     12  N   UNL     1       6.170  -6.192  26.781  0.00  0.00    -0.245 NA
BRANCH   7  14
ATOM     13  N   UNL     1       3.707  -7.674  24.949  0.00  0.00    -0.189 NA
ATOM     14  C   UNL     1       4.569  -6.938  25.203  0.00  0.00    +0.119 C 
ENDBRANCH   7  14
ENDBRANCH   1   9
BRANCH   3  15
ATOM     15  C   UNL     1       9.293  -0.252  23.185  0.00  0.00    +0.022 A 
ATOM     16  C   UNL     1       9.946   0.294  24.295  0.00  0.00    +0.031 A 
ATOM     17  C   UNL     1      10.561   1.529  24.172  0.00  0.00    +0.111 A 
ATOM     18  N   UNL     1      10.568   2.248  23.031  0.00  0.00    -0.263 NA
ATOM     19  C   UNL     1       9.932   1.711  21.971  0.00  0.00    +0.111 A 
ATOM     20  C   UNL     1       9.288   0.483  21.996  0.00  0.00    +0.031 A 
ENDBRANCH   3  15
TORSDOF 3
ENDMDL
MODEL 6
REMARK VINA RESULT:      -6.3      1.389      7.504
REMARK  Name = 
REMARK  3 active torsions:
REMARK  status: ('A' for Active; 'I' for Inactive)
REMARK    1  A    between atoms: C_2  and  C_3
REMARK    2  A    between atoms: C_7  and  C_9
REMARK    3  A    between atoms: C_12  and  C_14
REMARK                            x       y       z     vdW  Elec       q    Type
REMARK                         _______ _______ _______ _____ _____    ______ ____
ROOT
ATOM      1  C   UNL     1       9.507   0.700  22.693  0.00  0.00    +0.182 A 
ATOM      2  N   UNL     1       9.151  -0.288  23.580  0.00  0.00    -0.207 NA
ATOM      3  C   UNL     1       9.087  -1.386  22.848  0.00  0.00    +0.157 A 
ATOM      4  N   UNL     1       9.405  -1.045  21.562  0.00  0.00    -0.258 N 
ATOM      5  H   UNL     1       9.453  -1.636  20.741  0.00  0.00    +0.191 HD
ATOM      6  N   UNL     1       9.673   0.263  21.437  0.00  0.00    -0.152 NA
ENDROOT
BRANCH   1   9
ATOM      7  C   UNL     1      11.050   4.028  23.403  0.00  0.00    +0.141 A 
ATOM      8  C   UNL     1      10.932   2.708  22.995  0.00  0.00    +0.050 A 
ATOM      9  C   UNL     1       9.685   2.088  23.099  0.00  0.00    +0.025 A 
ATOM     10  C   UNL     1       8.607   2.821  23.602  0.00  0.00    +0.031 A 
ATOM     11  C   UNL     1       8.820   4.135  23.979  0.00  0.00    +0.113 A 
ATOM     12  N   UNL     1      10.015   4.755  23.893  0.00  0.00    -0.245 NA
BRANCH   7  14
ATOM     13  N   UNL     1      13.350   5.234  23.317  0.00  0.00    -0.189 NA
ATOM     14  C   UNL     1      12.316   4.703  23.332  0.00  0.00    +0.119 C 
ENDBRANCH   7  14
ENDBRANCH   1   9
BRANCH   3  15
ATOM     15  C   UNL     1       8.733  -2.728  23.311  0.00  0.00    +0.022 A 
ATOM     16  C   UNL     1       9.432  -3.282  24.388  0.00  0.00    +0.031 A 
ATOM     17  C   UNL     1       9.087  -4.546  24.834  0.00  0.00    +0.111 A 
ATOM     18  N   UNL     1       8.103  -5.288  24.286  0.00  0.00    -0.263 NA
ATOM     19  C   UNL     1       7.439  -4.743  23.247  0.00  0.00    +0.111 A 
ATOM     20  C   UNL     1       7.712  -3.485  22.728  0.00  0.00    +0.031 A 
ENDBRANCH   3  15
TORSDOF 3
ENDMDL
MODEL 7
REMARK VINA RESULT:      -6.2      1.469      1.780
REMARK  Name = 
REMARK  3 active torsions:
REMARK  status: ('A' for Active; 'I' for Inactive)
REMARK    1  A    between atoms: C_2  and  C_3
REMARK    2  A    between atoms: C_7  and  C_9
REMARK    3  A    between atoms: C_12  and  C_14
REMARK                            x       y       z     vdW  Elec       q    Type
REMARK                         _______ _______ _______ _____ _____    ______ ____
ROOT
ATOM      1  C   UNL     1       8.749  -0.468  22.426  0.00  0.00    +0.182 A 
ATOM      2  N   UNL     1       8.310   0.616  23.150  0.00  0.00    -0.207 NA
ATOM      3  C   UNL     1       8.690   1.665  22.444  0.00  0.00    +0.157 A 
ATOM      4  N   UNL     1       9.332   1.202  21.327  0.00  0.00    -0.258 N 
ATOM      5  H   UNL     1       9.752   1.729  20.571  0.00  0.00    +0.191 HD
ATOM      6  N   UNL     1       9.383  -0.137  21.292  0.00  0.00    -0.152 NA
ENDROOT
BRANCH   1   9
ATOM      7  C   UNL     1       7.396  -3.938  22.714  0.00  0.00    +0.141 A 
ATOM      8  C   UNL     1       7.567  -2.642  22.252  0.00  0.00    +0.050 A 
ATOM      9  C   UNL     1       8.534  -1.840  22.865  0.00  0.00    +0.025 A 
ATOM     10  C   UNL     1       9.292  -2.376  23.909  0.00  0.00    +0.031 A 
ATOM     11  C   UNL     1       9.053  -3.682  24.297  0.00  0.00    +0.113 A 
ATOM     12  N   UNL     1       8.123  -4.475  23.725  0.00  0.00    -0.245 NA
BRANCH   7  14
ATOM     13  N   UNL     1       5.568  -5.468  21.681  0.00  0.00    -0.189 NA
ATOM     14  C   UNL     1       6.402  -4.795  22.129  0.00  0.00    +0.119 C 
ENDBRANCH   7  14
ENDBRANCH   1   9
BRANCH   3  15
ATOM     15  C   UNL     1       8.480   3.073  22.783  0.00  0.00    +0.022 A 
ATOM     16  C   UNL     1       9.384   3.707  23.642  0.00  0.00    +0.031 A 
ATOM     17  C   UNL     1       9.192   5.043  23.951  0.00  0.00    +0.111 A 
ATOM     18  N   UNL     1       8.171   5.781  23.469  0.00  0.00    -0.263 NA
ATOM     19  C   UNL     1       7.306   5.156  22.646  0.00  0.00    +0.111 A 
ATOM     20  C   UNL     1       7.414   3.822  22.278  0.00  0.00    +0.031 A 
ENDBRANCH   3  15
TORSDOF 3
ENDMDL
MODEL 8
REMARK VINA RESULT:      -6.0      2.673      8.357
REMARK  Name = 
REMARK  3 active torsions:
REMARK  status: ('A' for Active; 'I' for Inactive)
REMARK    1  A    between atoms: C_2  and  C_3
REMARK    2  A    between atoms: C_7  and  C_9
REMARK    3  A    between atoms: C_12  and  C_14
REMARK                            x       y       z     vdW  Elec       q    Type
REMARK                         _______ _______ _______ _____ _____    ______ ____
ROOT
ATOM      1  C   UNL     1       8.601  -2.757  23.795  0.00  0.00    +0.182 A 
ATOM      2  N   UNL     1       7.309  -3.209  23.933  0.00  0.00    -0.207 NA
ATOM      3  C   UNL     1       7.432  -4.422  24.442  0.00  0.00    +0.157 A 
ATOM      4  N   UNL     1       8.768  -4.670  24.602  0.00  0.00    -0.258 N 
ATOM      5  H   UNL     1       9.221  -5.499  24.965  0.00  0.00    +0.191 HD
ATOM      6  N   UNL     1       9.526  -3.638  24.203  0.00  0.00    -0.152 NA
ENDROOT
BRANCH   1   9
ATOM      7  C   UNL     1       9.077   0.935  23.481  0.00  0.00    +0.141 A 
ATOM      8  C   UNL     1       8.773  -0.296  24.044  0.00  0.00    +0.050 A 
ATOM      9  C   UNL     1       8.916  -1.441  23.257  0.00  0.00    +0.025 A 
ATOM     10  C   UNL     1       9.364  -1.304  21.941  0.00  0.00    +0.031 A 
ATOM     11  C   UNL     1       9.648  -0.035  21.468  0.00  0.00    +0.113 A 
ATOM     12  N   UNL     1       9.514   1.086  22.206  0.00  0.00    -0.245 NA
BRANCH   7  14
ATOM     13  N   UNL     1       8.820   3.143  24.825  0.00  0.00    -0.189 NA
ATOM     14  C   UNL     1       8.929   2.143  24.244  0.00  0.00    +0.119 C 
ENDBRANCH   7  14
ENDBRANCH   1   9
BRANCH   3  15
ATOM     15  C   UNL     1       6.348  -5.348  24.770  0.00  0.00    +0.022 A 
ATOM     16  C   UNL     1       6.140  -5.704  26.106  0.00  0.00    +0.031 A 
ATOM     17  C   UNL     1       5.105  -6.570  26.417  0.00  0.00    +0.111 A 
ATOM     18  N   UNL     1       4.274  -7.099  25.497  0.00  0.00    -0.263 NA
ATOM     19  C   UNL     1       4.488  -6.750  24.213  0.00  0.00    +0.111 A 
ATOM     20  C   UNL     1       5.498  -5.892  23.802  0.00  0.00    +0.031 A 
ENDBRANCH   3  15
TORSDOF 3
ENDMDL
MODEL 9
REMARK VINA RESULT:      -5.9      2.277      3.146
REMARK  Name = 
REMARK  3 active torsions:
REMARK  status: ('A' for Active; 'I' for Inactive)
REMARK    1  A    between atoms: C_2  and  C_3
REMARK    2  A    between atoms: C_7  and  C_9
REMARK    3  A    between atoms: C_12  and  C_14
REMARK                            x       y       z     vdW  Elec       q    Type
REMARK                         _______ _______ _______ _____ _____    ______ ____
ROOT
ATOM      1  C   UNL     1       8.168  -1.822  25.342  0.00  0.00    +0.182 A 
ATOM      2  N   UNL     1       8.278  -0.767  24.466  0.00  0.00    -0.207 NA
ATOM      3  C   UNL     1       8.892   0.176  25.156  0.00  0.00    +0.157 A 
ATOM      4  N   UNL     1       9.141  -0.320  26.406  0.00  0.00    -0.258 N 
ATOM      5  H   UNL     1       9.595   0.131  27.191  0.00  0.00    +0.191 HD
ATOM      6  N   UNL     1       8.695  -1.576  26.549  0.00  0.00    -0.152 NA
ENDROOT
BRANCH   1   9
ATOM      7  C   UNL     1       6.630  -4.577  23.341  0.00  0.00    +0.141 A 
ATOM      8  C   UNL     1       7.239  -3.367  23.638  0.00  0.00    +0.050 A 
ATOM      9  C   UNL     1       7.537  -3.082  24.973  0.00  0.00    +0.025 A 
ATOM     10  C   UNL     1       7.216  -4.026  25.952  0.00  0.00    +0.031 A 
ATOM     11  C   UNL     1       6.614  -5.208  25.559  0.00  0.00    +0.113 A 
ATOM     12  N   UNL     1       6.313  -5.505  24.277  0.00  0.00    -0.245 NA
BRANCH   7  14
ATOM     13  N   UNL     1       5.989  -5.137  20.886  0.00  0.00    -0.189 NA
ATOM     14  C   UNL     1       6.288  -4.908  21.985  0.00  0.00    +0.119 C 
ENDBRANCH   7  14
ENDBRANCH   1   9
BRANCH   3  15
ATOM     15  C   UNL     1       9.242   1.517  24.687  0.00  0.00    +0.022 A 
ATOM     16  C   UNL     1      10.395   1.688  23.914  0.00  0.00    +0.031 A 
ATOM     17  C   UNL     1      10.717   2.955  23.459  0.00  0.00    +0.111 A 
ATOM     18  N   UNL     1       9.977   4.052  23.719  0.00  0.00    -0.263 NA
ATOM     19  C   UNL     1       8.871   3.874  24.468  0.00  0.00    +0.111 A 
ATOM     20  C   UNL     1       8.466   2.645  24.970  0.00  0.00    +0.031 A 
ENDBRANCH   3  15
TORSDOF 3
ENDMDL
