MODEL 1
REMARK VINA RESULT:      -6.1      0.000      0.000
REMARK  Name = 
REMARK  5 active torsions:
REMARK  status: ('A' for Active; 'I' for Inactive)
REMARK    1  A    between atoms: C_1  and  C_2
REMARK    2  A    between atoms: C_6  and  C_7
REMARK    3  A    between atoms: C_8  and  C_9
REMARK    4  A    between atoms: N_11  and  C_12
REMARK    5  A    between atoms: C_16  and  O_17
REMARK                            x       y       z     vdW  Elec       q    Type
REMARK                         _______ _______ _______ _____ _____    ______ ____
ROOT
ATOM      1  C   UNL     1       7.911  -0.889  23.719  0.00  0.00    +0.249 C 
ATOM      2  N   UNL     1       6.675  -1.178  23.159  0.00  0.00    -0.281 N 
ATOM      3  H   UNL     1       6.180  -0.434  22.692  0.00  0.00    +0.155 HD
ATOM      4  O   UNL     1       8.594  -1.708  24.326  0.00  0.00    -0.270 OA
ENDROOT
BRANCH   1   7
ATOM      5  C   UNL     1       7.433   1.364  25.840  0.00  0.00    +0.044 C 
ATOM      6  C   UNL     1       8.320   1.495  24.632  0.00  0.00    -0.038 A 
ATOM      7  C   UNL     1       8.460   0.516  23.613  0.00  0.00    +0.043 A 
ATOM      8  C   UNL     1       9.313   0.799  22.505  0.00  0.00    -0.038 A 
ATOM      9  C   UNL     1       9.453  -0.119  21.314  0.00  0.00    +0.044 C 
ATOM     10  C   UNL     1      10.082   1.977  22.489  0.00  0.00    +0.004 A 
ATOM     11  C   UNL     1       9.979   2.904  23.514  0.00  0.00    +0.001 A 
ATOM     12  C   UNL     1       9.087   2.678  24.555  0.00  0.00    +0.004 A 
ENDBRANCH   1   7
BRANCH   2  13
ATOM     13  C   UNL     1       6.009  -2.437  23.195  0.00  0.00    +0.036 A 
ATOM     14  C   UNL     1       6.364  -3.396  22.241  0.00  0.00    +0.042 A 
ATOM     15  C   UNL     1       5.738  -4.655  22.220  0.00  0.00    +0.062 A 
ATOM     16 BR   UNL     1       6.255  -5.899  20.884  0.00  0.00    -0.046 Br
ATOM     17  C   UNL     1       4.758  -4.971  23.162  0.00  0.00    +0.145 A 
ATOM     18  C   UNL     1       4.407  -4.021  24.120  0.00  0.00    +0.062 A 
ATOM     19 BR   UNL     1       3.094  -4.411  25.434  0.00  0.00    -0.046 Br
ATOM     20  C   UNL     1       5.024  -2.767  24.136  0.00  0.00    +0.042 A 
BRANCH  17  21
ATOM     21  O   UNL     1       4.156  -6.200  23.142  0.00  0.00    -0.505 OA
ATOM     22  H   UNL     1       4.845  -6.867  22.961  0.00  0.00    +0.292 HD
ENDBRANCH  17  21
ENDBRANCH   2  13
TORSDOF 3
ENDMDL
MODEL 2
REMARK VINA RESULT:      -6.1      1.361      2.386
REMARK  Name = 
REMARK  5 active torsions:
REMARK  status: ('A' for Active; 'I' for Inactive)
REMARK    1  A    between atoms: C_1  and  C_2
REMARK    2  A    between atoms: C_6  and  C_7
REMARK    3  A    between atoms: C_8  and  C_9
REMARK    4  A    between atoms: N_11  and  C_12
REMARK    5  A    between atoms: C_16  and  O_17
REMARK                            x       y       z     vdW  Elec       q    Type
REMARK                         _______ _______ _______ _____ _____    ______ ____
ROOT
ATOM      1  C   UNL     1       7.593  -0.820  23.619  0.00  0.00    +0.249 C 
ATOM      2  N   UNL     1       8.061  -2.081  23.958  0.00  0.00    -0.281 N 
ATOM      3  H   UNL     1       9.025  -2.170  24.239  0.00  0.00    +0.155 HD
ATOM      4  O   UNL     1       6.445  -0.594  23.246  0.00  0.00    -0.270 OA
ENDROOT
BRANCH   1   7
ATOM      5  C   UNL     1       9.699  -0.128  21.408  0.00  0.00    +0.044 C 
ATOM      6  C   UNL     1       9.415   0.717  22.619  0.00  0.00    -0.038 A 
ATOM      7  C   UNL     1       8.537   0.360  23.676  0.00  0.00    +0.043 A 
ATOM      8  C   UNL     1       8.397   1.252  24.781  0.00  0.00    -0.038 A 
ATOM      9  C   UNL     1       7.579   0.925  26.008  0.00  0.00    +0.044 C 
ATOM     10  C   UNL     1       9.033   2.506  24.760  0.00  0.00    +0.004 A 
ATOM     11  C   UNL     1       9.847   2.871  23.700  0.00  0.00    +0.001 A 
ATOM     12  C   UNL     1      10.058   1.975  22.659  0.00  0.00    +0.004 A 
ENDBRANCH   1   7
BRANCH   2  13
ATOM     13  C   UNL     1       7.309  -3.292  23.931  0.00  0.00    +0.036 A 
ATOM     14  C   UNL     1       7.142  -3.933  22.700  0.00  0.00    +0.042 A 
ATOM     15  C   UNL     1       6.404  -5.127  22.607  0.00  0.00    +0.062 A 
ATOM     16 BR   UNL     1       6.200  -5.932  20.901  0.00  0.00    -0.046 Br
ATOM     17  C   UNL     1       5.836  -5.696  23.748  0.00  0.00    +0.145 A 
ATOM     18  C   UNL     1       6.008  -5.063  24.978  0.00  0.00    +0.062 A 
ATOM     19 BR   UNL     1       5.271  -5.809  26.560  0.00  0.00    -0.046 Br
ATOM     20  C   UNL     1       6.734  -3.873  25.069  0.00  0.00    +0.042 A 
BRANCH  17  21
ATOM     21  O   UNL     1       5.124  -6.861  23.652  0.00  0.00    -0.505 OA
ATOM     22  H   UNL     1       4.222  -6.638  23.357  0.00  0.00    +0.292 HD
ENDBRANCH  17  21
ENDBRANCH   2  13
TORSDOF 3
ENDMDL
MODEL 3
REMARK VINA RESULT:      -6.0      0.282      2.124
REMARK  Name = 
REMARK  5 active torsions:
REMARK  status: ('A' for Active; 'I' for Inactive)
REMARK    1  A    between atoms: C_1  and  C_2
REMARK    2  A    between atoms: C_6  and  C_7
REMARK    3  A    between atoms: C_8  and  C_9
REMARK    4  A    between atoms: N_11  and  C_12
REMARK    5  A    between atoms: C_16  and  O_17
REMARK                            x       y       z     vdW  Elec       q    Type
REMARK                         _______ _______ _______ _____ _____    ______ ____
ROOT
ATOM      1  C   UNL     1       8.017  -0.679  23.799  0.00  0.00    +0.249 C 
ATOM      2  N   UNL     1       6.839  -1.009  23.145  0.00  0.00    -0.281 N 
ATOM      3  H   UNL     1       6.380  -0.292  22.605  0.00  0.00    +0.155 HD
ATOM      4  O   UNL     1       8.653  -1.463  24.497  0.00  0.00    -0.270 OA
ENDROOT
BRANCH   1   7
ATOM      5  C   UNL     1       7.459   1.606  25.864  0.00  0.00    +0.044 C 
ATOM      6  C   UNL     1       8.380   1.723  24.681  0.00  0.00    -0.038 A 
ATOM      7  C   UNL     1       8.559   0.728  23.684  0.00  0.00    +0.043 A 
ATOM      8  C   UNL     1       9.442   0.999  22.596  0.00  0.00    -0.038 A 
ATOM      9  C   UNL     1       9.623   0.061  21.427  0.00  0.00    +0.044 C 
ATOM     10  C   UNL     1      10.200   2.183  22.581  0.00  0.00    +0.004 A 
ATOM     11  C   UNL     1      10.060   3.127  23.586  0.00  0.00    +0.001 A 
ATOM     12  C   UNL     1       9.140   2.912  24.605  0.00  0.00    +0.004 A 
ENDBRANCH   1   7
BRANCH   2  13
ATOM     13  C   UNL     1       6.188  -2.276  23.174  0.00  0.00    +0.036 A 
ATOM     14  C   UNL     1       5.215  -2.492  24.155  0.00  0.00    +0.042 A 
ATOM     15  C   UNL     1       4.543  -3.724  24.241  0.00  0.00    +0.062 A 
ATOM     16 BR   UNL     1       3.249  -3.955  25.610  0.00  0.00    -0.046 Br
ATOM     17  C   UNL     1       4.830  -4.749  23.337  0.00  0.00    +0.145 A 
ATOM     18  C   UNL     1       5.794  -4.534  22.353  0.00  0.00    +0.062 A 
ATOM     19 BR   UNL     1       6.204  -5.890  21.090  0.00  0.00    -0.046 Br
ATOM     20  C   UNL     1       6.467  -3.312  22.272  0.00  0.00    +0.042 A 
BRANCH  17  21
ATOM     21  O   UNL     1       4.168  -5.944  23.421  0.00  0.00    -0.505 OA
ATOM     22  H   UNL     1       4.506  -6.419  24.203  0.00  0.00    +0.292 HD
ENDBRANCH  17  21
ENDBRANCH   2  13
TORSDOF 3
ENDMDL
MODEL 4
REMARK VINA RESULT:      -5.9      1.388      3.117
REMARK  Name = 
REMARK  5 active torsions:
REMARK  status: ('A' for Active; 'I' for Inactive)
REMARK    1  A    between atoms: C_1  and  C_2
REMARK    2  A    between atoms: C_6  and  C_7
REMARK    3  A    between atoms: C_8  and  C_9
REMARK    4  A    between atoms: N_11  and  C_12
REMARK    5  A    between atoms: C_16  and  O_17
REMARK                            x       y       z     vdW  Elec       q    Type
REMARK                         _______ _______ _______ _____ _____    ______ ____
ROOT
ATOM      1  C   UNL     1       7.608  -0.661  23.619  0.00  0.00    +0.249 C 
ATOM      2  N   UNL     1       8.035  -1.894  24.091  0.00  0.00    -0.281 N 
ATOM      3  H   UNL     1       8.968  -1.960  24.467  0.00  0.00    +0.155 HD
ATOM      4  O   UNL     1       6.502  -0.465  23.125  0.00  0.00    -0.270 OA
ENDROOT
BRANCH   1   7
ATOM      5  C   UNL     1       9.763  -0.001  21.446  0.00  0.00    +0.044 C 
ATOM      6  C   UNL     1       9.450   0.863  22.637  0.00  0.00    -0.038 A 
ATOM      7  C   UNL     1       8.549   0.521  23.679  0.00  0.00    +0.043 A 
ATOM      8  C   UNL     1       8.384   1.430  24.767  0.00  0.00    -0.038 A 
ATOM      9  C   UNL     1       7.538   1.121  25.979  0.00  0.00    +0.044 C 
ATOM     10  C   UNL     1       9.017   2.685  24.741  0.00  0.00    +0.004 A 
ATOM     11  C   UNL     1       9.855   3.034  23.693  0.00  0.00    +0.001 A 
ATOM     12  C   UNL     1      10.091   2.122  22.671  0.00  0.00    +0.004 A 
ENDBRANCH   1   7
BRANCH   2  13
ATOM     13  C   UNL     1       7.283  -3.104  24.081  0.00  0.00    +0.036 A 
ATOM     14  C   UNL     1       6.727  -3.543  25.286  0.00  0.00    +0.042 A 
ATOM     15  C   UNL     1       5.981  -4.734  25.342  0.00  0.00    +0.062 A 
ATOM     16 BR   UNL     1       5.272  -5.279  27.015  0.00  0.00    -0.046 Br
ATOM     17  C   UNL     1       5.776  -5.492  24.188  0.00  0.00    +0.145 A 
ATOM     18  C   UNL     1       6.323  -5.054  22.983  0.00  0.00    +0.062 A 
ATOM     19 BR   UNL     1       6.054  -6.041  21.383  0.00  0.00    -0.046 Br
ATOM     20  C   UNL     1       7.070  -3.874  22.929  0.00  0.00    +0.042 A 
BRANCH  17  21
ATOM     21  O   UNL     1       5.044  -6.647  24.246  0.00  0.00    -0.505 OA
ATOM     22  H   UNL     1       5.568  -7.309  24.734  0.00  0.00    +0.292 HD
ENDBRANCH  17  21
ENDBRANCH   2  13
TORSDOF 3
ENDMDL
MODEL 5
REMARK VINA RESULT:      -5.8      0.367      1.987
REMARK  Name = 
REMARK  5 active torsions:
REMARK  status: ('A' for Active; 'I' for Inactive)
REMARK    1  A    between atoms: C_1  and  C_2
REMARK    2  A    between atoms: C_6  and  C_7
REMARK    3  A    between atoms: C_8  and  C_9
REMARK    4  A    between atoms: N_11  and  C_12
REMARK    5  A    between atoms: C_16  and  O_17
REMARK                            x       y       z     vdW  Elec       q    Type
REMARK                         _______ _______ _______ _____ _____    ______ ____
ROOT
ATOM      1  C   UNL     1       8.018  -1.062  23.922  0.00  0.00    +0.249 C 
ATOM      2  N   UNL     1       6.807  -1.276  23.280  0.00  0.00    -0.281 N 
ATOM      3  H   UNL     1       6.379  -0.499  22.802  0.00  0.00    +0.155 HD
ATOM      4  O   UNL     1       8.622  -1.927  24.549  0.00  0.00    -0.270 OA
ENDROOT
BRANCH   1   7
ATOM      5  C   UNL     1       9.846  -0.005  21.610  0.00  0.00    +0.044 C 
ATOM      6  C   UNL     1       9.383   0.815  22.783  0.00  0.00    -0.038 A 
ATOM      7  C   UNL     1       8.641   0.316  23.885  0.00  0.00    +0.043 A 
ATOM      8  C   UNL     1       8.304   1.210  24.945  0.00  0.00    -0.038 A 
ATOM      9  C   UNL     1       7.615   0.765  26.213  0.00  0.00    +0.044 C 
ATOM     10  C   UNL     1       8.607   2.579  24.837  0.00  0.00    +0.004 A 
ATOM     11  C   UNL     1       9.286   3.069  23.733  0.00  0.00    +0.001 A 
ATOM     12  C   UNL     1       9.694   2.193  22.734  0.00  0.00    +0.004 A 
ENDBRANCH   1   7
BRANCH   2  13
ATOM     13  C   UNL     1       6.080  -2.502  23.245  0.00  0.00    +0.036 A 
ATOM     14  C   UNL     1       6.445  -3.455  22.289  0.00  0.00    +0.042 A 
ATOM     15  C   UNL     1       5.761  -4.680  22.199  0.00  0.00    +0.062 A 
ATOM     16 BR   UNL     1       6.296  -5.918  20.864  0.00  0.00    -0.046 Br
ATOM     17  C   UNL     1       4.712  -4.969  23.073  0.00  0.00    +0.145 A 
ATOM     18  C   UNL     1       4.351  -4.024  24.033  0.00  0.00    +0.062 A 
ATOM     19 BR   UNL     1       2.944  -4.379  25.257  0.00  0.00    -0.046 Br
ATOM     20  C   UNL     1       5.026  -2.803  24.118  0.00  0.00    +0.042 A 
BRANCH  17  21
ATOM     21  O   UNL     1       4.054  -6.166  22.985  0.00  0.00    -0.505 OA
ATOM     22  H   UNL     1       4.719  -6.877  23.037  0.00  0.00    +0.292 HD
ENDBRANCH  17  21
ENDBRANCH   2  13
TORSDOF 3
ENDMDL
MODEL 6
REMARK VINA RESULT:      -5.8      4.909      7.995
REMARK  Name = 
REMARK  5 active torsions:
REMARK  status: ('A' for Active; 'I' for Inactive)
REMARK    1  A    between atoms: C_1  and  C_2
REMARK    2  A    between atoms: C_6  and  C_7
REMARK    3  A    between atoms: C_8  and  C_9
REMARK    4  A    between atoms: N_11  and  C_12
REMARK    5  A    between atoms: C_16  and  O_17
REMARK                            x       y       z     vdW  Elec       q    Type
REMARK                         _______ _______ _______ _____ _____    ______ ____
ROOT
ATOM      1  C   UNL     1       9.669   0.363  24.403  0.00  0.00    +0.249 C 
ATOM      2  N   UNL     1       8.960   1.483  23.994  0.00  0.00    -0.281 N 
ATOM      3  H   UNL     1       8.070   1.342  23.542  0.00  0.00    +0.155 HD
ATOM      4  O   UNL     1      10.769   0.412  24.946  0.00  0.00    -0.270 OA
ENDROOT
BRANCH   1   7
ATOM      5  C   UNL     1       8.479  -1.490  26.628  0.00  0.00    +0.044 C 
ATOM      6  C   UNL     1       8.463  -1.796  25.156  0.00  0.00    -0.038 A 
ATOM      7  C   UNL     1       9.090  -1.011  24.152  0.00  0.00    +0.043 A 
ATOM      8  C   UNL     1       9.021  -1.450  22.796  0.00  0.00    -0.038 A 
ATOM      9  C   UNL     1       9.741  -0.756  21.665  0.00  0.00    +0.044 C 
ATOM     10  C   UNL     1       8.249  -2.576  22.458  0.00  0.00    +0.004 A 
ATOM     11  C   UNL     1       7.595  -3.307  23.436  0.00  0.00    +0.001 A 
ATOM     12  C   UNL     1       7.726  -2.938  24.770  0.00  0.00    +0.004 A 
ENDBRANCH   1   7
BRANCH   2  13
ATOM     13  C   UNL     1       9.377   2.839  24.131  0.00  0.00    +0.036 A 
ATOM     14  C   UNL     1       8.570   3.704  24.876  0.00  0.00    +0.042 A 
ATOM     15  C   UNL     1       8.924   5.054  25.041  0.00  0.00    +0.062 A 
ATOM     16 BR   UNL     1       7.771   6.175  26.048  0.00  0.00    -0.046 Br
ATOM     17  C   UNL     1      10.098   5.550  24.470  0.00  0.00    +0.145 A 
ATOM     18  C   UNL     1      10.910   4.689  23.734  0.00  0.00    +0.062 A 
ATOM     19 BR   UNL     1      12.525   5.313  22.956  0.00  0.00    -0.046 Br
ATOM     20  C   UNL     1      10.554   3.349  23.564  0.00  0.00    +0.042 A 
BRANCH  17  21
ATOM     21  O   UNL     1      10.441   6.865  24.640  0.00  0.00    -0.505 OA
ATOM     22  H   UNL     1      11.339   6.987  24.280  0.00  0.00    +0.292 HD
ENDBRANCH  17  21
ENDBRANCH   2  13
TORSDOF 3
ENDMDL
MODEL 7
REMARK VINA RESULT:      -5.6      4.784      7.511
REMARK  Name = 
REMARK  5 active torsions:
REMARK  status: ('A' for Active; 'I' for Inactive)
REMARK    1  A    between atoms: C_1  and  C_2
REMARK    2  A    between atoms: C_6  and  C_7
REMARK    3  A    between atoms: C_8  and  C_9
REMARK    4  A    between atoms: N_11  and  C_12
REMARK    5  A    between atoms: C_16  and  O_17
REMARK                            x       y       z     vdW  Elec       q    Type
REMARK                         _______ _______ _______ _____ _____    ______ ____
ROOT
ATOM      1  C   UNL     1       8.617   0.022  24.366  0.00  0.00    +0.249 C 
ATOM      2  N   UNL     1       9.415   1.031  24.884  0.00  0.00    -0.281 N 
ATOM      3  H   UNL     1      10.036   0.802  25.644  0.00  0.00    +0.155 HD
ATOM      4  O   UNL     1       7.812   0.187  23.454  0.00  0.00    -0.270 OA
ENDROOT
BRANCH   1   7
ATOM      5  C   UNL     1       7.133  -0.889  26.968  0.00  0.00    +0.044 C 
ATOM      6  C   UNL     1       7.944  -1.792  26.080  0.00  0.00    -0.038 A 
ATOM      7  C   UNL     1       8.702  -1.367  24.958  0.00  0.00    +0.043 A 
ATOM      8  C   UNL     1       9.454  -2.339  24.231  0.00  0.00    -0.038 A 
ATOM      9  C   UNL     1      10.380  -1.984  23.092  0.00  0.00    +0.044 C 
ATOM     10  C   UNL     1       9.349  -3.702  24.559  0.00  0.00    +0.004 A 
ATOM     11  C   UNL     1       8.564  -4.116  25.623  0.00  0.00    +0.001 A 
ATOM     12  C   UNL     1       7.895  -3.170  26.391  0.00  0.00    +0.004 A 
ENDBRANCH   1   7
BRANCH   2  13
ATOM     13  C   UNL     1       9.433   2.391  24.457  0.00  0.00    +0.036 A 
ATOM     14  C   UNL     1      10.646   2.925  24.013  0.00  0.00    +0.042 A 
ATOM     15  C   UNL     1      10.730   4.262  23.587  0.00  0.00    +0.062 A 
ATOM     16 BR   UNL     1      12.414   4.926  23.017  0.00  0.00    -0.046 Br
ATOM     17  C   UNL     1       9.596   5.076  23.591  0.00  0.00    +0.145 A 
ATOM     18  C   UNL     1       8.382   4.545  24.026  0.00  0.00    +0.062 A 
ATOM     19 BR   UNL     1       6.809   5.606  24.030  0.00  0.00    -0.046 Br
ATOM     20  C   UNL     1       8.301   3.218  24.456  0.00  0.00    +0.042 A 
BRANCH  17  21
ATOM     21  O   UNL     1       9.681   6.375  23.169  0.00  0.00    -0.505 OA
ATOM     22  H   UNL     1       9.312   6.942  23.871  0.00  0.00    +0.292 HD
ENDBRANCH  17  21
ENDBRANCH   2  13
TORSDOF 3
ENDMDL
MODEL 8
REMARK VINA RESULT:      -5.5      2.705      3.072
REMARK  Name = 
REMARK  5 active torsions:
REMARK  status: ('A' for Active; 'I' for Inactive)
REMARK    1  A    between atoms: C_1  and  C_2
REMARK    2  A    between atoms: C_6  and  C_7
REMARK    3  A    between atoms: C_8  and  C_9
REMARK    4  A    between atoms: N_11  and  C_12
REMARK    5  A    between atoms: C_16  and  O_17
REMARK                            x       y       z     vdW  Elec       q    Type
REMARK                         _______ _______ _______ _____ _____    ______ ____
ROOT
ATOM      1  C   UNL     1       8.317  -2.767  24.908  0.00  0.00    +0.249 C 
ATOM      2  N   UNL     1       6.988  -2.838  25.300  0.00  0.00    -0.281 N 
ATOM      3  H   UNL     1       6.447  -1.988  25.299  0.00  0.00    +0.155 HD
ATOM      4  O   UNL     1       9.075  -3.732  24.887  0.00  0.00    -0.270 OA
ENDROOT
BRANCH   1   7
ATOM      5  C   UNL     1       9.119  -0.503  26.916  0.00  0.00    +0.044 C 
ATOM      6  C   UNL     1       9.351  -0.457  25.431  0.00  0.00    -0.038 A 
ATOM      7  C   UNL     1       8.898  -1.431  24.503  0.00  0.00    +0.043 A 
ATOM      8  C   UNL     1       9.163  -1.231  23.115  0.00  0.00    -0.038 A 
ATOM      9  C   UNL     1       8.636  -2.144  22.033  0.00  0.00    +0.044 C 
ATOM     10  C   UNL     1       9.954  -0.146  22.697  0.00  0.00    +0.004 A 
ATOM     11  C   UNL     1      10.438   0.773  23.614  0.00  0.00    +0.001 A 
ATOM     12  C   UNL     1      10.114   0.635  24.959  0.00  0.00    +0.004 A 
ENDBRANCH   1   7
BRANCH   2  13
ATOM     13  C   UNL     1       6.301  -4.009  25.734  0.00  0.00    +0.036 A 
ATOM     14  C   UNL     1       5.440  -4.639  24.830  0.00  0.00    +0.042 A 
ATOM     15  C   UNL     1       4.728  -5.793  25.201  0.00  0.00    +0.062 A 
ATOM     16 BR   UNL     1       3.562  -6.584  23.931  0.00  0.00    -0.046 Br
ATOM     17  C   UNL     1       4.880  -6.335  26.479  0.00  0.00    +0.145 A 
ATOM     18  C   UNL     1       5.743  -5.715  27.380  0.00  0.00    +0.062 A 
ATOM     19 BR   UNL     1       5.998  -6.426  29.122  0.00  0.00    -0.046 Br
ATOM     20  C   UNL     1       6.445  -4.563  27.014  0.00  0.00    +0.042 A 
BRANCH  17  21
ATOM     21  O   UNL     1       4.189  -7.463  26.833  0.00  0.00    -0.505 OA
ATOM     22  H   UNL     1       3.364  -7.183  27.270  0.00  0.00    +0.292 HD
ENDBRANCH  17  21
ENDBRANCH   2  13
TORSDOF 3
ENDMDL
MODEL 9
REMARK VINA RESULT:      -5.5      2.851      3.638
REMARK  Name = 
REMARK  5 active torsions:
REMARK  status: ('A' for Active; 'I' for Inactive)
REMARK    1  A    between atoms: C_1  and  C_2
REMARK    2  A    between atoms: C_6  and  C_7
REMARK    3  A    between atoms: C_8  and  C_9
REMARK    4  A    between atoms: N_11  and  C_12
REMARK    5  A    between atoms: C_16  and  O_17
REMARK                            x       y       z     vdW  Elec       q    Type
REMARK                         _______ _______ _______ _____ _____    ______ ____
ROOT
ATOM      1  C   UNL     1       8.253  -2.867  25.089  0.00  0.00    +0.249 C 
ATOM      2  N   UNL     1       6.903  -2.923  25.404  0.00  0.00    -0.281 N 
ATOM      3  H   UNL     1       6.362  -2.077  25.326  0.00  0.00    +0.155 HD
ATOM      4  O   UNL     1       9.014  -3.827  25.164  0.00  0.00    -0.270 OA
ENDROOT
BRANCH   1   7
ATOM      5  C   UNL     1       9.072  -0.557  27.038  0.00  0.00    +0.044 C 
ATOM      6  C   UNL     1       9.315  -0.556  25.554  0.00  0.00    -0.038 A 
ATOM      7  C   UNL     1       8.856  -1.551  24.651  0.00  0.00    +0.043 A 
ATOM      8  C   UNL     1       9.134  -1.393  23.260  0.00  0.00    -0.038 A 
ATOM      9  C   UNL     1       8.602  -2.329  22.201  0.00  0.00    +0.044 C 
ATOM     10  C   UNL     1       9.943  -0.332  22.818  0.00  0.00    +0.004 A 
ATOM     11  C   UNL     1      10.432   0.607  23.712  0.00  0.00    +0.001 A 
ATOM     12  C   UNL     1      10.097   0.511  25.058  0.00  0.00    +0.004 A 
ENDBRANCH   1   7
BRANCH   2  13
ATOM     13  C   UNL     1       6.194  -4.074  25.856  0.00  0.00    +0.036 A 
ATOM     14  C   UNL     1       6.269  -4.402  27.213  0.00  0.00    +0.042 A 
ATOM     15  C   UNL     1       5.597  -5.529  27.718  0.00  0.00    +0.062 A 
ATOM     16 BR   UNL     1       5.761  -5.926  29.566  0.00  0.00    -0.046 Br
ATOM     17  C   UNL     1       4.834  -6.334  26.870  0.00  0.00    +0.145 A 
ATOM     18  C   UNL     1       4.750  -6.005  25.518  0.00  0.00    +0.062 A 
ATOM     19 BR   UNL     1       3.707  -7.057  24.330  0.00  0.00    -0.046 Br
ATOM     20  C   UNL     1       5.423  -4.889  25.015  0.00  0.00    +0.042 A 
BRANCH  17  21
ATOM     21  O   UNL     1       4.177  -7.426  27.368  0.00  0.00    -0.505 OA
ATOM     22  H   UNL     1       4.633  -7.703  28.185  0.00  0.00    +0.292 HD
ENDBRANCH  17  21
ENDBRANCH   2  13
TORSDOF 3
ENDMDL
