MODEL 1
REMARK VINA RESULT:      -4.4      0.000      0.000
REMARK  Name = 
REMARK  6 active torsions:
REMARK  status: ('A' for Active; 'I' for Inactive)
REMARK    1  A    between atoms: CG1_1  and  CB_2
REMARK    2  A    between atoms: CB_2  and  CG2_3
REMARK    3  A    between atoms: CB_2  and  CA_4
REMARK    4  A    between atoms: CA_4  and  N_6
REMARK    5  A    between atoms: CA_4  and  C_10
REMARK    6  A    between atoms: C_10  and  O_11
REMARK                            x       y       z     vdW  Elec       q    Type
REMARK                         _______ _______ _______ _____ _____    ______ ____
ROOT
ATOM      1  CA  VAL A   1       8.290  -4.701  24.048  0.00  0.00    +0.185 C 
ENDROOT
BRANCH   1   2
ATOM      2  N   VAL A   1       8.269  -3.250  24.265  0.00  0.00    -0.286 N 
ATOM      3  H   VAL A   1       7.495  -2.869  24.788  0.00  0.00    +0.151 HD
ATOM      4  C   UNK A   0       9.346  -2.446  24.092  0.00  0.00    +0.298 C 
ATOM      5  O   UNK A   0      10.426  -2.837  23.669  0.00  0.00    -0.253 OA
ATOM      6  N   UNK A   0       9.105  -1.155  24.399  0.00  0.00    -0.313 N 
ATOM      7  H   UNK A   0       9.858  -0.523  24.151  0.00  0.00    +0.146 HD
ATOM      8  H   UNK A   0       8.180  -0.790  24.217  0.00  0.00    +0.146 HD
ENDBRANCH   1   2
BRANCH   1  10
ATOM      9  CG1 VAL A   1       5.833  -4.261  23.516  0.00  0.00    +0.009 C 
ATOM     10  CB  VAL A   1       6.954  -5.306  23.544  0.00  0.00    +0.014 C 
ATOM     11  CG2 VAL A   1       7.108  -5.902  22.137  0.00  0.00    +0.009 C 
ENDBRANCH   1  10
BRANCH   1  12
ATOM     12  C   VAL A   1       8.824  -5.412  25.303  0.00  0.00    +0.326 C 
ATOM     13  OXT VAL A   1       8.100  -5.760  26.231  0.00  0.00    -0.249 OA
BRANCH  12  14
ATOM     14  O   VAL A   1      10.161  -5.614  25.328  0.00  0.00    -0.479 OA
ATOM     15  H   VAL A   1      10.452  -6.335  24.716  0.00  0.00    +0.295 HD
ENDBRANCH  12  14
ENDBRANCH   1  12
TORSDOF 4
ENDMDL
MODEL 2
REMARK VINA RESULT:      -4.3      5.844      7.160
REMARK  Name = 
REMARK  6 active torsions:
REMARK  status: ('A' for Active; 'I' for Inactive)
REMARK    1  A    between atoms: CG1_1  and  CB_2
REMARK    2  A    between atoms: CB_2  and  CG2_3
REMARK    3  A    between atoms: CB_2  and  CA_4
REMARK    4  A    between atoms: CA_4  and  N_6
REMARK    5  A    between atoms: CA_4  and  C_10
REMARK    6  A    between atoms: C_10  and  O_11
REMARK                            x       y       z     vdW  Elec       q    Type
REMARK                         _______ _______ _______ _____ _____    ______ ____
ROOT
ATOM      1  CA  VAL A   1      10.332   2.161  23.198  0.00  0.00    +0.185 C 
ENDROOT
BRANCH   1   2
ATOM      2  N   VAL A   1      10.112   3.612  23.216  0.00  0.00    -0.286 N 
ATOM      3  H   VAL A   1       9.170   3.937  23.378  0.00  0.00    +0.151 HD
ATOM      4  C   UNK A   0      11.106   4.524  23.342  0.00  0.00    +0.298 C 
ATOM      5  O   UNK A   0      12.294   4.235  23.382  0.00  0.00    -0.253 OA
ATOM      6  N   UNK A   0      10.661   5.798  23.385  0.00  0.00    -0.313 N 
ATOM      7  H   UNK A   0      11.396   6.493  23.346  0.00  0.00    +0.146 HD
ATOM      8  H   UNK A   0       9.840   6.030  22.842  0.00  0.00    +0.146 HD
ENDBRANCH   1   2
BRANCH   1  10
ATOM      9  CG1 VAL A   1       9.883  -0.087  22.078  0.00  0.00    +0.009 C 
ATOM     10  CB  VAL A   1       9.816   1.437  21.928  0.00  0.00    +0.014 C 
ATOM     11  CG2 VAL A   1       8.368   1.836  21.607  0.00  0.00    +0.009 C 
ENDBRANCH   1  10
BRANCH   1  12
ATOM     12  C   VAL A   1       9.797   1.532  24.495  0.00  0.00    +0.326 C 
ATOM     13  OXT VAL A   1       8.661   1.734  24.914  0.00  0.00    -0.249 OA
BRANCH  12  14
ATOM     14  O   VAL A   1      10.674   0.750  25.164  0.00  0.00    -0.479 OA
ATOM     15  H   VAL A   1      10.910  -0.073  24.667  0.00  0.00    +0.295 HD
ENDBRANCH  12  14
ENDBRANCH   1  12
TORSDOF 4
ENDMDL
MODEL 3
REMARK VINA RESULT:      -4.2      2.023      3.656
REMARK  Name = 
REMARK  6 active torsions:
REMARK  status: ('A' for Active; 'I' for Inactive)
REMARK    1  A    between atoms: CG1_1  and  CB_2
REMARK    2  A    between atoms: CB_2  and  CG2_3
REMARK    3  A    between atoms: CB_2  and  CA_4
REMARK    4  A    between atoms: CA_4  and  N_6
REMARK    5  A    between atoms: CA_4  and  C_10
REMARK    6  A    between atoms: C_10  and  O_11
REMARK                            x       y       z     vdW  Elec       q    Type
REMARK                         _______ _______ _______ _____ _____    ______ ____
ROOT
ATOM      1  CA  VAL A   1       8.050  -4.349  24.192  0.00  0.00    +0.185 C 
ENDROOT
BRANCH   1   2
ATOM      2  N   VAL A   1       7.570  -5.159  23.067  0.00  0.00    -0.286 N 
ATOM      3  H   VAL A   1       8.259  -5.503  22.415  0.00  0.00    +0.151 HD
ATOM      4  C   UNK A   0       6.341  -5.727  23.017  0.00  0.00    +0.298 C 
ATOM      5  O   UNK A   0       5.480  -5.564  23.872  0.00  0.00    -0.253 OA
ATOM      6  N   UNK A   0       6.139  -6.470  21.908  0.00  0.00    -0.313 N 
ATOM      7  H   UNK A   0       5.185  -6.791  21.795  0.00  0.00    +0.146 HD
ATOM      8  H   UNK A   0       6.581  -6.168  21.051  0.00  0.00    +0.146 HD
ENDBRANCH   1   2
BRANCH   1  10
ATOM      9  CG1 VAL A   1       8.325  -2.437  22.524  0.00  0.00    +0.009 C 
ATOM     10  CB  VAL A   1       8.877  -3.099  23.792  0.00  0.00    +0.014 C 
ATOM     11  CG2 VAL A   1       8.896  -2.059  24.921  0.00  0.00    +0.009 C 
ENDBRANCH   1  10
BRANCH   1  12
ATOM     12  C   VAL A   1       8.783  -5.242  25.208  0.00  0.00    +0.326 C 
ATOM     13  OXT VAL A   1       8.223  -5.748  26.175  0.00  0.00    -0.249 OA
BRANCH  12  14
ATOM     14  O   VAL A   1      10.103  -5.419  24.976  0.00  0.00    -0.479 OA
ATOM     15  H   VAL A   1      10.284  -5.871  24.114  0.00  0.00    +0.295 HD
ENDBRANCH  12  14
ENDBRANCH   1  12
TORSDOF 4
ENDMDL
MODEL 4
REMARK VINA RESULT:      -4.1      2.673      3.612
REMARK  Name = 
REMARK  6 active torsions:
REMARK  status: ('A' for Active; 'I' for Inactive)
REMARK    1  A    between atoms: CG1_1  and  CB_2
REMARK    2  A    between atoms: CB_2  and  CG2_3
REMARK    3  A    between atoms: CB_2  and  CA_4
REMARK    4  A    between atoms: CA_4  and  N_6
REMARK    5  A    between atoms: CA_4  and  C_10
REMARK    6  A    between atoms: C_10  and  O_11
REMARK                            x       y       z     vdW  Elec       q    Type
REMARK                         _______ _______ _______ _____ _____    ______ ____
ROOT
ATOM      1  CA  VAL A   1       7.622  -4.462  22.982  0.00  0.00    +0.185 C 
ENDROOT
BRANCH   1   2
ATOM      2  N   VAL A   1       7.575  -4.951  24.365  0.00  0.00    -0.286 N 
ATOM      3  H   VAL A   1       6.698  -5.325  24.695  0.00  0.00    +0.151 HD
ATOM      4  C   UNK A   0       8.676  -5.219  25.108  0.00  0.00    +0.298 C 
ATOM      5  O   UNK A   0       9.820  -5.015  24.727  0.00  0.00    -0.253 OA
ATOM      6  N   UNK A   0       8.388  -5.706  26.333  0.00  0.00    -0.313 N 
ATOM      7  H   UNK A   0       9.192  -5.787  26.944  0.00  0.00    +0.146 HD
ATOM      8  H   UNK A   0       7.551  -5.372  26.791  0.00  0.00    +0.146 HD
ENDBRANCH   1   2
BRANCH   1  10
ATOM      9  CG1 VAL A   1       6.624  -2.361  24.031  0.00  0.00    +0.009 C 
ATOM     10  CB  VAL A   1       7.353  -2.944  22.815  0.00  0.00    +0.014 C 
ATOM     11  CG2 VAL A   1       8.659  -2.166  22.604  0.00  0.00    +0.009 C 
ENDBRANCH   1  10
BRANCH   1  12
ATOM     12  C   VAL A   1       6.715  -5.325  22.089  0.00  0.00    +0.326 C 
ATOM     13  OXT VAL A   1       6.864  -6.536  21.960  0.00  0.00    -0.249 OA
BRANCH  12  14
ATOM     14  O   VAL A   1       5.744  -4.654  21.430  0.00  0.00    -0.479 OA
ATOM     15  H   VAL A   1       5.867  -4.666  20.447  0.00  0.00    +0.295 HD
ENDBRANCH  12  14
ENDBRANCH   1  12
TORSDOF 4
ENDMDL
MODEL 5
REMARK VINA RESULT:      -4.1      3.870      5.057
REMARK  Name = 
REMARK  6 active torsions:
REMARK  status: ('A' for Active; 'I' for Inactive)
REMARK    1  A    between atoms: CG1_1  and  CB_2
REMARK    2  A    between atoms: CB_2  and  CG2_3
REMARK    3  A    between atoms: CB_2  and  CA_4
REMARK    4  A    between atoms: CA_4  and  N_6
REMARK    5  A    between atoms: CA_4  and  C_10
REMARK    6  A    between atoms: C_10  and  O_11
REMARK                            x       y       z     vdW  Elec       q    Type
REMARK                         _______ _______ _______ _____ _____    ______ ____
ROOT
ATOM      1  CA  VAL A   1       8.423  -0.561  22.973  0.00  0.00    +0.185 C 
ENDROOT
BRANCH   1   2
ATOM      2  N   VAL A   1       9.400   0.491  22.669  0.00  0.00    -0.286 N 
ATOM      3  H   VAL A   1      10.372   0.288  22.850  0.00  0.00    +0.151 HD
ATOM      4  C   UNK A   0       9.133   1.566  21.889  0.00  0.00    +0.298 C 
ATOM      5  O   UNK A   0       8.030   1.807  21.417  0.00  0.00    -0.253 OA
ATOM      6  N   UNK A   0      10.199   2.373  21.707  0.00  0.00    -0.313 N 
ATOM      7  H   UNK A   0       9.981   3.245  21.238  0.00  0.00    +0.146 HD
ATOM      8  H   UNK A   0      10.858   2.465  22.468  0.00  0.00    +0.146 HD
ENDBRANCH   1   2
BRANCH   1  10
ATOM      9  CG1 VAL A   1       9.347  -0.339  25.342  0.00  0.00    +0.009 C 
ATOM     10  CB  VAL A   1       8.160  -0.792  24.484  0.00  0.00    +0.014 C 
ATOM     11  CG2 VAL A   1       6.902  -0.047  24.951  0.00  0.00    +0.009 C 
ENDBRANCH   1  10
BRANCH   1  12
ATOM     12  C   VAL A   1       8.798  -1.857  22.234  0.00  0.00    +0.326 C 
ATOM     13  OXT VAL A   1       8.106  -2.869  22.271  0.00  0.00    -0.249 OA
BRANCH  12  14
ATOM     14  O   VAL A   1       9.963  -1.815  21.548  0.00  0.00    -0.479 OA
ATOM     15  H   VAL A   1      10.054  -2.558  20.901  0.00  0.00    +0.295 HD
ENDBRANCH  12  14
ENDBRANCH   1  12
TORSDOF 4
ENDMDL
MODEL 6
REMARK VINA RESULT:      -4.1      6.628      8.131
REMARK  Name = 
REMARK  6 active torsions:
REMARK  status: ('A' for Active; 'I' for Inactive)
REMARK    1  A    between atoms: CG1_1  and  CB_2
REMARK    2  A    between atoms: CB_2  and  CG2_3
REMARK    3  A    between atoms: CB_2  and  CA_4
REMARK    4  A    between atoms: CA_4  and  N_6
REMARK    5  A    between atoms: CA_4  and  C_10
REMARK    6  A    between atoms: C_10  and  O_11
REMARK                            x       y       z     vdW  Elec       q    Type
REMARK                         _______ _______ _______ _____ _____    ______ ____
ROOT
ATOM      1  CA  VAL A   1       8.382   2.898  23.171  0.00  0.00    +0.185 C 
ENDROOT
BRANCH   1   2
ATOM      2  N   VAL A   1       8.371   4.166  22.433  0.00  0.00    -0.286 N 
ATOM      3  H   VAL A   1       9.161   4.363  21.837  0.00  0.00    +0.151 HD
ATOM      4  C   UNK A   0       7.263   4.925  22.255  0.00  0.00    +0.298 C 
ATOM      5  O   UNK A   0       6.174   4.667  22.751  0.00  0.00    -0.253 OA
ATOM      6  N   UNK A   0       7.481   6.022  21.500  0.00  0.00    -0.313 N 
ATOM      7  H   UNK A   0       6.698   6.664  21.468  0.00  0.00    +0.146 HD
ATOM      8  H   UNK A   0       8.384   6.472  21.570  0.00  0.00    +0.146 HD
ENDBRANCH   1   2
BRANCH   1  10
ATOM      9  CG1 VAL A   1       9.861   1.186  24.352  0.00  0.00    +0.009 C 
ATOM     10  CB  VAL A   1       9.626   2.675  24.070  0.00  0.00    +0.014 C 
ATOM     11  CG2 VAL A   1      10.891   3.260  23.427  0.00  0.00    +0.009 C 
ENDBRANCH   1  10
BRANCH   1  12
ATOM     12  C   VAL A   1       8.133   1.726  22.206  0.00  0.00    +0.326 C 
ATOM     13  OXT VAL A   1       7.295   0.855  22.418  0.00  0.00    -0.249 OA
BRANCH  12  14
ATOM     14  O   VAL A   1       8.920   1.705  21.107  0.00  0.00    -0.479 OA
ATOM     15  H   VAL A   1       8.857   0.853  20.606  0.00  0.00    +0.295 HD
ENDBRANCH  12  14
ENDBRANCH   1  12
TORSDOF 4
ENDMDL
MODEL 7
REMARK VINA RESULT:      -4.1      3.976      6.347
REMARK  Name = 
REMARK  6 active torsions:
REMARK  status: ('A' for Active; 'I' for Inactive)
REMARK    1  A    between atoms: CG1_1  and  CB_2
REMARK    2  A    between atoms: CB_2  and  CG2_3
REMARK    3  A    between atoms: CB_2  and  CA_4
REMARK    4  A    between atoms: CA_4  and  N_6
REMARK    5  A    between atoms: CA_4  and  C_10
REMARK    6  A    between atoms: C_10  and  O_11
REMARK                            x       y       z     vdW  Elec       q    Type
REMARK                         _______ _______ _______ _____ _____    ______ ____
ROOT
ATOM      1  CA  VAL A   1       9.768   0.692  23.164  0.00  0.00    +0.185 C 
ENDROOT
BRANCH   1   2
ATOM      2  N   VAL A   1       9.621  -0.609  23.825  0.00  0.00    -0.286 N 
ATOM      3  H   VAL A   1       8.963  -0.671  24.588  0.00  0.00    +0.151 HD
ATOM      4  C   UNK A   0      10.059  -1.778  23.297  0.00  0.00    +0.298 C 
ATOM      5  O   UNK A   0      10.685  -1.858  22.249  0.00  0.00    -0.253 OA
ATOM      6  N   UNK A   0       9.769  -2.852  24.060  0.00  0.00    -0.313 N 
ATOM      7  H   UNK A   0      10.203  -3.712  23.746  0.00  0.00    +0.146 HD
ATOM      8  H   UNK A   0       9.766  -2.732  25.064  0.00  0.00    +0.146 HD
ENDBRANCH   1   2
BRANCH   1  10
ATOM      9  CG1 VAL A   1      10.766   3.030  23.390  0.00  0.00    +0.009 C 
ATOM     10  CB  VAL A   1      10.053   1.882  24.116  0.00  0.00    +0.014 C 
ATOM     11  CG2 VAL A   1       8.758   2.422  24.738  0.00  0.00    +0.009 C 
ENDBRANCH   1  10
BRANCH   1  12
ATOM     12  C   VAL A   1       8.565   0.950  22.239  0.00  0.00    +0.326 C 
ATOM     13  OXT VAL A   1       7.426   0.583  22.510  0.00  0.00    -0.249 OA
BRANCH  12  14
ATOM     14  O   VAL A   1       8.850   1.597  21.087  0.00  0.00    -0.479 OA
ATOM     15  H   VAL A   1       9.398   2.410  21.228  0.00  0.00    +0.295 HD
ENDBRANCH  12  14
ENDBRANCH   1  12
TORSDOF 4
ENDMDL
MODEL 8
REMARK VINA RESULT:      -4.1      4.099      5.582
REMARK  Name = 
REMARK  6 active torsions:
REMARK  status: ('A' for Active; 'I' for Inactive)
REMARK    1  A    between atoms: CG1_1  and  CB_2
REMARK    2  A    between atoms: CB_2  and  CG2_3
REMARK    3  A    between atoms: CB_2  and  CA_4
REMARK    4  A    between atoms: CA_4  and  N_6
REMARK    5  A    between atoms: CA_4  and  C_10
REMARK    6  A    between atoms: C_10  and  O_11
REMARK                            x       y       z     vdW  Elec       q    Type
REMARK                         _______ _______ _______ _____ _____    ______ ____
ROOT
ATOM      1  CA  VAL A   1       9.017  -0.350  23.122  0.00  0.00    +0.185 C 
ENDROOT
BRANCH   1   2
ATOM      2  N   VAL A   1       7.742   0.356  22.947  0.00  0.00    -0.286 N 
ATOM      3  H   VAL A   1       7.380   0.434  22.009  0.00  0.00    +0.151 HD
ATOM      4  C   UNK A   0       6.885   0.627  23.961  0.00  0.00    +0.298 C 
ATOM      5  O   UNK A   0       7.118   0.374  25.135  0.00  0.00    -0.253 OA
ATOM      6  N   UNK A   0       5.754   1.240  23.555  0.00  0.00    -0.313 N 
ATOM      7  H   UNK A   0       5.165   1.566  24.313  0.00  0.00    +0.146 HD
ATOM      8  H   UNK A   0       5.816   1.879  22.774  0.00  0.00    +0.146 HD
ENDBRANCH   1   2
BRANCH   1  10
ATOM      9  CG1 VAL A   1      10.028   1.776  22.138  0.00  0.00    +0.009 C 
ATOM     10  CB  VAL A   1      10.280   0.541  23.011  0.00  0.00    +0.014 C 
ATOM     11  CG2 VAL A   1      10.757   1.007  24.394  0.00  0.00    +0.009 C 
ENDBRANCH   1  10
BRANCH   1  12
ATOM     12  C   VAL A   1       9.072  -1.572  22.189  0.00  0.00    +0.326 C 
ATOM     13  OXT VAL A   1       8.190  -2.425  22.154  0.00  0.00    -0.249 OA
BRANCH  12  14
ATOM     14  O   VAL A   1      10.177  -1.659  21.415  0.00  0.00    -0.479 OA
ATOM     15  H   VAL A   1      11.003  -1.811  21.939  0.00  0.00    +0.295 HD
ENDBRANCH  12  14
ENDBRANCH   1  12
TORSDOF 4
ENDMDL
MODEL 9
REMARK VINA RESULT:      -4.0      3.736      6.135
REMARK  Name = 
REMARK  6 active torsions:
REMARK  status: ('A' for Active; 'I' for Inactive)
REMARK    1  A    between atoms: CG1_1  and  CB_2
REMARK    2  A    between atoms: CB_2  and  CG2_3
REMARK    3  A    between atoms: CB_2  and  CA_4
REMARK    4  A    between atoms: CA_4  and  N_6
REMARK    5  A    between atoms: CA_4  and  C_10
REMARK    6  A    between atoms: C_10  and  O_11
REMARK                            x       y       z     vdW  Elec       q    Type
REMARK                         _______ _______ _______ _____ _____    ______ ____
ROOT
ATOM      1  CA  VAL A   1       9.337   0.463  22.936  0.00  0.00    +0.185 C 
ENDROOT
BRANCH   1   2
ATOM      2  N   VAL A   1       8.351  -0.614  22.790  0.00  0.00    -0.286 N 
ATOM      3  H   VAL A   1       7.376  -0.356  22.804  0.00  0.00    +0.151 HD
ATOM      4  C   UNK A   0       8.651  -1.854  22.333  0.00  0.00    +0.298 C 
ATOM      5  O   UNK A   0       9.786  -2.224  22.064  0.00  0.00    -0.253 OA
ATOM      6  N   UNK A   0       7.575  -2.663  22.235  0.00  0.00    -0.313 N 
ATOM      7  H   UNK A   0       7.801  -3.627  22.022  0.00  0.00    +0.146 HD
ATOM      8  H   UNK A   0       6.835  -2.550  22.915  0.00  0.00    +0.146 HD
ENDBRANCH   1   2
BRANCH   1  10
ATOM      9  CG1 VAL A   1       8.140   0.923  25.143  0.00  0.00    +0.009 C 
ATOM     10  CB  VAL A   1       9.455   1.052  24.366  0.00  0.00    +0.014 C 
ATOM     11  CG2 VAL A   1      10.568   0.358  25.164  0.00  0.00    +0.009 C 
ENDBRANCH   1  10
BRANCH   1  12
ATOM     12  C   VAL A   1       9.095   1.545  21.870  0.00  0.00    +0.326 C 
ATOM     13  OXT VAL A   1       7.991   1.764  21.382  0.00  0.00    -0.249 OA
BRANCH  12  14
ATOM     14  O   VAL A   1      10.193   2.233  21.485  0.00  0.00    -0.479 OA
ATOM     15  H   VAL A   1      10.428   2.963  22.111  0.00  0.00    +0.295 HD
ENDBRANCH  12  14
ENDBRANCH   1  12
TORSDOF 4
ENDMDL
