MODEL 1
REMARK VINA RESULT:      -5.9      0.000      0.000
REMARK  Name = 
REMARK  8 active torsions:
REMARK  status: ('A' for Active; 'I' for Inactive)
REMARK    1  A    between atoms: C_1  and  C_2
REMARK    2  A    between atoms: C_2  and  C_3
REMARK    3  A    between atoms: C_3  and  O_4
REMARK    4  A    between atoms: O_4  and  C_5
REMARK    5  A    between atoms: C_7  and  C_13
REMARK    6  A    between atoms: C_10  and  O_11
REMARK    7  A    between atoms: O_11  and  C_12
REMARK    8  A    between atoms: C_13  and  C_14
REMARK                            x       y       z     vdW  Elec       q    Type
REMARK                         _______ _______ _______ _____ _____    ______ ____
ROOT
ATOM      1  C   UNL     1       8.097  -2.416  22.788  0.00  0.00    +0.162 A 
ATOM      2  C   UNL     1       8.905  -2.826  23.858  0.00  0.00    +0.162 A 
ATOM      3  C   UNL     1       9.407  -1.864  24.748  0.00  0.00    +0.050 A 
ATOM      4  C   UNL     1       9.168  -0.500  24.560  0.00  0.00    +0.011 A 
ATOM      5  C   UNL     1       8.407  -0.064  23.472  0.00  0.00    +0.001 A 
ATOM      6  C   UNL     1       7.863  -1.039  22.620  0.00  0.00    +0.057 A 
ENDROOT
BRANCH   5   7
ATOM      7  C   UNL     1       8.154   1.416  23.174  0.00  0.00    +0.153 C 
ATOM      8  C   UNL     1       6.732   1.819  23.576  0.00  0.00    +0.063 C 
ATOM      9  O   UNL     1       9.087   2.251  23.894  0.00  0.00    -0.438 OA
ATOM     10  C   UNL     1      10.115   2.571  23.050  0.00  0.00    +0.401 C 
ATOM     11  O   UNL     1      11.126   3.163  23.377  0.00  0.00    -0.226 OA
ATOM     12  N   UNL     1       9.813   2.174  21.776  0.00  0.00    -0.277 N 
ATOM     13  H   UNL     1      10.387   2.491  21.007  0.00  0.00    +0.152 HD
ATOM     14  C   UNL     1       8.447   1.784  21.714  0.00  0.00    +0.160 C 
ENDBRANCH   5   7
BRANCH   2  15
ATOM     15  O   UNL     1       9.260  -4.104  24.198  0.00  0.00    -0.491 OA
ATOM     16  C   UNL     1       8.533  -4.722  25.251  0.00  0.00    +0.277 C 
ENDBRANCH   2  15
BRANCH   1  17
ATOM     17  O   UNL     1       7.544  -3.365  21.956  0.00  0.00    -0.488 OA
BRANCH  17  18
ATOM     18  C   UNL     1       6.157  -3.645  22.173  0.00  0.00    +0.229 C 
BRANCH  18  20
ATOM     19  C   UNL     1       7.047  -5.946  21.823  0.00  0.00    +0.007 C 
ATOM     20  C   UNL     1       5.937  -5.123  22.459  0.00  0.00    +0.038 C 
ENDBRANCH  18  20
ENDBRANCH  17  18
ENDBRANCH   1  17
TORSDOF 5
ENDMDL
MODEL 2
REMARK VINA RESULT:      -5.8      1.914      3.501
REMARK  Name = 
REMARK  8 active torsions:
REMARK  status: ('A' for Active; 'I' for Inactive)
REMARK    1  A    between atoms: C_1  and  C_2
REMARK    2  A    between atoms: C_2  and  C_3
REMARK    3  A    between atoms: C_3  and  O_4
REMARK    4  A    between atoms: O_4  and  C_5
REMARK    5  A    between atoms: C_7  and  C_13
REMARK    6  A    between atoms: C_10  and  O_11
REMARK    7  A    between atoms: O_11  and  C_12
REMARK    8  A    between atoms: C_13  and  C_14
REMARK                            x       y       z     vdW  Elec       q    Type
REMARK                         _______ _______ _______ _____ _____    ______ ____
ROOT
ATOM      1  C   UNL     1       8.982  -3.766  24.155  0.00  0.00    +0.162 A 
ATOM      2  C   UNL     1       7.931  -4.135  23.304  0.00  0.00    +0.162 A 
ATOM      3  C   UNL     1       7.409  -3.191  22.407  0.00  0.00    +0.050 A 
ATOM      4  C   UNL     1       7.873  -1.872  22.381  0.00  0.00    +0.011 A 
ATOM      5  C   UNL     1       8.886  -1.468  23.256  0.00  0.00    +0.001 A 
ATOM      6  C   UNL     1       9.439  -2.436  24.110  0.00  0.00    +0.057 A 
ENDROOT
BRANCH   5   7
ATOM      7  C   UNL     1       9.401  -0.029  23.322  0.00  0.00    +0.153 C 
ATOM      8  C   UNL     1       9.883   0.443  21.946  0.00  0.00    +0.063 C 
ATOM      9  O   UNL     1       8.364   0.868  23.775  0.00  0.00    -0.438 OA
ATOM     10  C   UNL     1       8.529   1.070  25.118  0.00  0.00    +0.401 C 
ATOM     11  O   UNL     1       7.754   1.679  25.832  0.00  0.00    -0.226 OA
ATOM     12  N   UNL     1       9.718   0.534  25.527  0.00  0.00    -0.277 N 
ATOM     13  H   UNL     1      10.071   0.750  26.449  0.00  0.00    +0.152 HD
ATOM     14  C   UNL     1      10.486   0.163  24.389  0.00  0.00    +0.160 C 
ENDBRANCH   5   7
BRANCH   2  15
ATOM     15  O   UNL     1       7.337  -5.364  23.190  0.00  0.00    -0.491 OA
ATOM     16  C   UNL     1       7.082  -5.843  21.877  0.00  0.00    +0.277 C 
ENDBRANCH   2  15
BRANCH   1  17
ATOM     17  O   UNL     1       9.543  -4.711  24.985  0.00  0.00    -0.488 OA
BRANCH  17  18
ATOM     18  C   UNL     1       9.248  -4.563  26.378  0.00  0.00    +0.229 C 
BRANCH  18  20
ATOM     19  C   UNL     1       6.875  -4.277  27.087  0.00  0.00    +0.007 C 
ATOM     20  C   UNL     1       7.960  -5.287  26.742  0.00  0.00    +0.038 C 
ENDBRANCH  18  20
ENDBRANCH  17  18
ENDBRANCH   1  17
TORSDOF 5
ENDMDL
MODEL 3
REMARK VINA RESULT:      -5.6      2.758      6.190
REMARK  Name = 
REMARK  8 active torsions:
REMARK  status: ('A' for Active; 'I' for Inactive)
REMARK    1  A    between atoms: C_1  and  C_2
REMARK    2  A    between atoms: C_2  and  C_3
REMARK    3  A    between atoms: C_3  and  O_4
REMARK    4  A    between atoms: O_4  and  C_5
REMARK    5  A    between atoms: C_7  and  C_13
REMARK    6  A    between atoms: C_10  and  O_11
REMARK    7  A    between atoms: O_11  and  C_12
REMARK    8  A    between atoms: C_13  and  C_14
REMARK                            x       y       z     vdW  Elec       q    Type
REMARK                         _______ _______ _______ _____ _____    ______ ____
ROOT
ATOM      1  C   UNL     1       9.798  -1.122  23.910  0.00  0.00    +0.162 A 
ATOM      2  C   UNL     1       9.387  -0.299  24.967  0.00  0.00    +0.162 A 
ATOM      3  C   UNL     1       8.745  -0.873  26.076  0.00  0.00    +0.050 A 
ATOM      4  C   UNL     1       8.454  -2.239  26.124  0.00  0.00    +0.011 A 
ATOM      5  C   UNL     1       8.809  -3.071  25.059  0.00  0.00    +0.001 A 
ATOM      6  C   UNL     1       9.501  -2.496  23.981  0.00  0.00    +0.057 A 
ENDROOT
BRANCH   5   7
ATOM      7  C   UNL     1       8.470  -4.563  25.021  0.00  0.00    +0.153 C 
ATOM      8  C   UNL     1       9.664  -5.406  25.480  0.00  0.00    +0.063 C 
ATOM      9  O   UNL     1       7.346  -4.856  25.879  0.00  0.00    -0.438 OA
ATOM     10  C   UNL     1       6.217  -4.891  25.109  0.00  0.00    +0.401 C 
ATOM     11  O   UNL     1       5.083  -4.996  25.538  0.00  0.00    -0.226 OA
ATOM     12  N   UNL     1       6.554  -4.846  23.784  0.00  0.00    -0.277 N 
ATOM     13  H   UNL     1       5.851  -5.040  23.084  0.00  0.00    +0.152 HD
ATOM     14  C   UNL     1       7.959  -5.019  23.649  0.00  0.00    +0.160 C 
ENDBRANCH   5   7
BRANCH   2  15
ATOM     15  O   UNL     1       9.569   1.052  25.097  0.00  0.00    -0.491 OA
ATOM     16  C   UNL     1       8.403   1.862  25.155  0.00  0.00    +0.277 C 
ENDBRANCH   2  15
BRANCH   1  17
ATOM     17  O   UNL     1      10.492  -0.572  22.855  0.00  0.00    -0.488 OA
BRANCH  17  18
ATOM     18  C   UNL     1       9.699  -0.192  21.725  0.00  0.00    +0.229 C 
BRANCH  18  20
ATOM     19  C   UNL     1       8.128   1.736  21.551  0.00  0.00    +0.007 C 
ATOM     20  C   UNL     1       9.590   1.322  21.620  0.00  0.00    +0.038 C 
ENDBRANCH  18  20
ENDBRANCH  17  18
ENDBRANCH   1  17
TORSDOF 5
ENDMDL
MODEL 4
REMARK VINA RESULT:      -5.6      1.785      2.101
REMARK  Name = 
REMARK  8 active torsions:
REMARK  status: ('A' for Active; 'I' for Inactive)
REMARK    1  A    between atoms: C_1  and  C_2
REMARK    2  A    between atoms: C_2  and  C_3
REMARK    3  A    between atoms: C_3  and  O_4
REMARK    4  A    between atoms: O_4  and  C_5
REMARK    5  A    between atoms: C_7  and  C_13
REMARK    6  A    between atoms: C_10  and  O_11
REMARK    7  A    between atoms: O_11  and  C_12
REMARK    8  A    between atoms: C_13  and  C_14
REMARK                            x       y       z     vdW  Elec       q    Type
REMARK                         _______ _______ _______ _____ _____    ______ ____
ROOT
ATOM      1  C   UNL     1       7.161  -2.977  23.878  0.00  0.00    +0.162 A 
ATOM      2  C   UNL     1       8.130  -3.884  24.328  0.00  0.00    +0.162 A 
ATOM      3  C   UNL     1       9.466  -3.468  24.434  0.00  0.00    +0.050 A 
ATOM      4  C   UNL     1       9.864  -2.185  24.047  0.00  0.00    +0.011 A 
ATOM      5  C   UNL     1       8.924  -1.280  23.547  0.00  0.00    +0.001 A 
ATOM      6  C   UNL     1       7.581  -1.689  23.498  0.00  0.00    +0.057 A 
ENDROOT
BRANCH   5   7
ATOM      7  C   UNL     1       9.300   0.119  23.052  0.00  0.00    +0.153 C 
ATOM      8  C   UNL     1       9.384   0.152  21.523  0.00  0.00    +0.063 C 
ATOM      9  O   UNL     1       8.324   1.093  23.478  0.00  0.00    -0.438 OA
ATOM     10  C   UNL     1       8.791   1.702  24.610  0.00  0.00    +0.401 C 
ATOM     11  O   UNL     1       8.160   2.488  25.291  0.00  0.00    -0.226 OA
ATOM     12  N   UNL     1      10.091   1.337  24.833  0.00  0.00    -0.277 N 
ATOM     13  H   UNL     1      10.635   1.832  25.525  0.00  0.00    +0.152 HD
ATOM     14  C   UNL     1      10.589   0.647  23.693  0.00  0.00    +0.160 C 
ENDBRANCH   5   7
BRANCH   2  15
ATOM     15  O   UNL     1       7.940  -5.177  24.739  0.00  0.00    -0.491 OA
ATOM     16  C   UNL     1       7.750  -5.395  26.130  0.00  0.00    +0.277 C 
ENDBRANCH   2  15
BRANCH   1  17
ATOM     17  O   UNL     1       5.839  -3.361  23.841  0.00  0.00    -0.488 OA
BRANCH  17  18
ATOM     18  C   UNL     1       5.348  -3.764  22.558  0.00  0.00    +0.229 C 
BRANCH  18  20
ATOM     19  C   UNL     1       6.355  -5.762  21.459  0.00  0.00    +0.007 C 
ATOM     20  C   UNL     1       5.300  -5.280  22.444  0.00  0.00    +0.038 C 
ENDBRANCH  18  20
ENDBRANCH  17  18
ENDBRANCH   1  17
TORSDOF 5
ENDMDL
MODEL 5
REMARK VINA RESULT:      -5.5      2.747      6.246
REMARK  Name = 
REMARK  8 active torsions:
REMARK  status: ('A' for Active; 'I' for Inactive)
REMARK    1  A    between atoms: C_1  and  C_2
REMARK    2  A    between atoms: C_2  and  C_3
REMARK    3  A    between atoms: C_3  and  O_4
REMARK    4  A    between atoms: O_4  and  C_5
REMARK    5  A    between atoms: C_7  and  C_13
REMARK    6  A    between atoms: C_10  and  O_11
REMARK    7  A    between atoms: O_11  and  C_12
REMARK    8  A    between atoms: C_13  and  C_14
REMARK                            x       y       z     vdW  Elec       q    Type
REMARK                         _______ _______ _______ _____ _____    ______ ____
ROOT
ATOM      1  C   UNL     1       8.091  -1.125  22.541  0.00  0.00    +0.162 A 
ATOM      2  C   UNL     1       7.042  -0.422  23.148  0.00  0.00    +0.162 A 
ATOM      3  C   UNL     1       6.202  -1.088  24.054  0.00  0.00    +0.050 A 
ATOM      4  C   UNL     1       6.352  -2.451  24.322  0.00  0.00    +0.011 A 
ATOM      5  C   UNL     1       7.360  -3.184  23.689  0.00  0.00    +0.001 A 
ATOM      6  C   UNL     1       8.229  -2.495  22.828  0.00  0.00    +0.057 A 
ENDROOT
BRANCH   5   7
ATOM      7  C   UNL     1       7.544  -4.690  23.892  0.00  0.00    +0.153 C 
ATOM      8  C   UNL     1       7.004  -5.473  22.691  0.00  0.00    +0.063 C 
ATOM      9  O   UNL     1       8.939  -5.018  24.062  0.00  0.00    -0.438 OA
ATOM     10  C   UNL     1       9.196  -5.115  25.402  0.00  0.00    +0.401 C 
ATOM     11  O   UNL     1      10.300  -5.263  25.892  0.00  0.00    -0.226 OA
ATOM     12  N   UNL     1       8.024  -5.076  26.106  0.00  0.00    -0.277 N 
ATOM     13  H   UNL     1       8.025  -5.312  27.088  0.00  0.00    +0.152 HD
ATOM     14  C   UNL     1       6.929  -5.189  25.205  0.00  0.00    +0.160 C 
ENDBRANCH   5   7
BRANCH   2  15
ATOM     15  O   UNL     1       6.728   0.904  23.006  0.00  0.00    -0.491 OA
ATOM     16  C   UNL     1       6.030   1.525  24.076  0.00  0.00    +0.277 C 
ENDBRANCH   2  15
BRANCH   1  17
ATOM     17  O   UNL     1       8.960  -0.456  21.707  0.00  0.00    -0.488 OA
BRANCH  17  18
ATOM     18  C   UNL     1      10.060   0.194  22.354  0.00  0.00    +0.229 C 
BRANCH  18  20
ATOM     19  C   UNL     1      10.277   2.475  23.337  0.00  0.00    +0.007 C 
ATOM     20  C   UNL     1      10.066   1.685  22.053  0.00  0.00    +0.038 C 
ENDBRANCH  18  20
ENDBRANCH  17  18
ENDBRANCH   1  17
TORSDOF 5
ENDMDL
MODEL 6
REMARK VINA RESULT:      -5.5      2.637      6.148
REMARK  Name = 
REMARK  8 active torsions:
REMARK  status: ('A' for Active; 'I' for Inactive)
REMARK    1  A    between atoms: C_1  and  C_2
REMARK    2  A    between atoms: C_2  and  C_3
REMARK    3  A    between atoms: C_3  and  O_4
REMARK    4  A    between atoms: O_4  and  C_5
REMARK    5  A    between atoms: C_7  and  C_13
REMARK    6  A    between atoms: C_10  and  O_11
REMARK    7  A    between atoms: O_11  and  C_12
REMARK    8  A    between atoms: C_13  and  C_14
REMARK                            x       y       z     vdW  Elec       q    Type
REMARK                         _______ _______ _______ _____ _____    ______ ____
ROOT
ATOM      1  C   UNL     1       8.330  -0.660  22.691  0.00  0.00    +0.162 A 
ATOM      2  C   UNL     1       9.537  -0.941  23.346  0.00  0.00    +0.162 A 
ATOM      3  C   UNL     1       9.731  -2.209  23.915  0.00  0.00    +0.050 A 
ATOM      4  C   UNL     1       8.726  -3.180  23.895  0.00  0.00    +0.011 A 
ATOM      5  C   UNL     1       7.496  -2.904  23.292  0.00  0.00    +0.001 A 
ATOM      6  C   UNL     1       7.333  -1.652  22.676  0.00  0.00    +0.057 A 
ENDROOT
BRANCH   5   7
ATOM      7  C   UNL     1       6.333  -3.899  23.284  0.00  0.00    +0.153 C 
ATOM      8  C   UNL     1       5.280  -3.518  24.329  0.00  0.00    +0.063 C 
ATOM      9  O   UNL     1       5.699  -3.937  21.987  0.00  0.00    -0.438 OA
ATOM     10  C   UNL     1       6.211  -4.997  21.290  0.00  0.00    +0.401 C 
ATOM     11  O   UNL     1       5.977  -5.242  20.122  0.00  0.00    -0.226 OA
ATOM     12  N   UNL     1       6.980  -5.770  22.116  0.00  0.00    -0.277 N 
ATOM     13  H   UNL     1       7.285  -6.681  21.803  0.00  0.00    +0.152 HD
ATOM     14  C   UNL     1       6.796  -5.351  23.463  0.00  0.00    +0.160 C 
ENDBRANCH   5   7
BRANCH   2  15
ATOM     15  O   UNL     1      10.628  -0.123  23.481  0.00  0.00    -0.491 OA
ATOM     16  C   UNL     1      10.807   0.519  24.736  0.00  0.00    +0.277 C 
ENDBRANCH   2  15
BRANCH   1  17
ATOM     17  O   UNL     1       8.166   0.559  22.069  0.00  0.00    -0.488 OA
BRANCH  17  18
ATOM     18  C   UNL     1       7.537   1.575  22.858  0.00  0.00    +0.229 C 
BRANCH  18  20
ATOM     19  C   UNL     1       7.370   3.977  22.212  0.00  0.00    +0.007 C 
ATOM     20  C   UNL     1       8.291   2.892  22.751  0.00  0.00    +0.038 C 
ENDBRANCH  18  20
ENDBRANCH  17  18
ENDBRANCH   1  17
TORSDOF 5
ENDMDL
MODEL 7
REMARK VINA RESULT:      -5.4      1.703      2.330
REMARK  Name = 
REMARK  8 active torsions:
REMARK  status: ('A' for Active; 'I' for Inactive)
REMARK    1  A    between atoms: C_1  and  C_2
REMARK    2  A    between atoms: C_2  and  C_3
REMARK    3  A    between atoms: C_3  and  O_4
REMARK    4  A    between atoms: O_4  and  C_5
REMARK    5  A    between atoms: C_7  and  C_13
REMARK    6  A    between atoms: C_10  and  O_11
REMARK    7  A    between atoms: O_11  and  C_12
REMARK    8  A    between atoms: C_13  and  C_14
REMARK                            x       y       z     vdW  Elec       q    Type
REMARK                         _______ _______ _______ _____ _____    ______ ____
ROOT
ATOM      1  C   UNL     1       8.603  -2.965  24.316  0.00  0.00    +0.162 A 
ATOM      2  C   UNL     1       8.074  -3.032  25.612  0.00  0.00    +0.162 A 
ATOM      3  C   UNL     1       8.046  -1.874  26.404  0.00  0.00    +0.050 A 
ATOM      4  C   UNL     1       8.586  -0.667  25.951  0.00  0.00    +0.011 A 
ATOM      5  C   UNL     1       9.165  -0.589  24.682  0.00  0.00    +0.001 A 
ATOM      6  C   UNL     1       9.137  -1.739  23.877  0.00  0.00    +0.057 A 
ENDROOT
BRANCH   5   7
ATOM      7  C   UNL     1       9.825   0.684  24.147  0.00  0.00    +0.153 C 
ATOM      8  C   UNL     1      11.295   0.757  24.572  0.00  0.00    +0.063 C 
ATOM      9  O   UNL     1       9.763   0.727  22.705  0.00  0.00    -0.438 OA
ATOM     10  C   UNL     1       8.691   1.497  22.345  0.00  0.00    +0.401 C 
ATOM     11  O   UNL     1       8.286   1.641  21.207  0.00  0.00    -0.226 OA
ATOM     12  N   UNL     1       8.176   2.124  23.447  0.00  0.00    -0.277 N 
ATOM     13  H   UNL     1       7.496   2.862  23.328  0.00  0.00    +0.152 HD
ATOM     14  C   UNL     1       9.066   1.956  24.544  0.00  0.00    +0.160 C 
ENDBRANCH   5   7
BRANCH   2  15
ATOM     15  O   UNL     1       7.514  -4.116  26.234  0.00  0.00    -0.491 OA
ATOM     16  C   UNL     1       8.398  -5.124  26.704  0.00  0.00    +0.277 C 
ENDBRANCH   2  15
BRANCH   1  17
ATOM     17  O   UNL     1       8.566  -4.083  23.512  0.00  0.00    -0.488 OA
BRANCH  17  18
ATOM     18  C   UNL     1       7.337  -4.298  22.809  0.00  0.00    +0.229 C 
BRANCH  18  20
ATOM     19  C   UNL     1       6.239  -5.673  21.044  0.00  0.00    +0.007 C 
ATOM     20  C   UNL     1       7.353  -5.633  22.079  0.00  0.00    +0.038 C 
ENDBRANCH  18  20
ENDBRANCH  17  18
ENDBRANCH   1  17
TORSDOF 5
ENDMDL
MODEL 8
REMARK VINA RESULT:      -5.3      2.616      6.124
REMARK  Name = 
REMARK  8 active torsions:
REMARK  status: ('A' for Active; 'I' for Inactive)
REMARK    1  A    between atoms: C_1  and  C_2
REMARK    2  A    between atoms: C_2  and  C_3
REMARK    3  A    between atoms: C_3  and  O_4
REMARK    4  A    between atoms: O_4  and  C_5
REMARK    5  A    between atoms: C_7  and  C_13
REMARK    6  A    between atoms: C_10  and  O_11
REMARK    7  A    between atoms: O_11  and  C_12
REMARK    8  A    between atoms: C_13  and  C_14
REMARK                            x       y       z     vdW  Elec       q    Type
REMARK                         _______ _______ _______ _____ _____    ______ ____
ROOT
ATOM      1  C   UNL     1       7.972  -0.862  23.107  0.00  0.00    +0.162 A 
ATOM      2  C   UNL     1       9.338  -0.699  23.373  0.00  0.00    +0.162 A 
ATOM      3  C   UNL     1      10.091  -1.801  23.809  0.00  0.00    +0.050 A 
ATOM      4  C   UNL     1       9.497  -3.045  24.038  0.00  0.00    +0.011 A 
ATOM      5  C   UNL     1       8.126  -3.219  23.828  0.00  0.00    +0.001 A 
ATOM      6  C   UNL     1       7.395  -2.124  23.339  0.00  0.00    +0.057 A 
ENDROOT
BRANCH   5   7
ATOM      7  C   UNL     1       7.402  -4.536  24.114  0.00  0.00    +0.153 C 
ATOM      8  C   UNL     1       7.395  -5.437  22.875  0.00  0.00    +0.063 C 
ATOM      9  O   UNL     1       8.042  -5.249  25.195  0.00  0.00    -0.438 OA
ATOM     10  C   UNL     1       7.362  -4.977  26.350  0.00  0.00    +0.401 C 
ATOM     11  O   UNL     1       7.710  -5.325  27.463  0.00  0.00    -0.226 OA
ATOM     12  N   UNL     1       6.206  -4.304  26.064  0.00  0.00    -0.277 N 
ATOM     13  H   UNL     1       5.508  -4.184  26.784  0.00  0.00    +0.152 HD
ATOM     14  C   UNL     1       5.984  -4.325  24.659  0.00  0.00    +0.160 C 
ENDBRANCH   5   7
BRANCH   2  15
ATOM     15  O   UNL     1      10.092   0.435  23.222  0.00  0.00    -0.491 OA
ATOM     16  C   UNL     1      10.572   1.058  24.405  0.00  0.00    +0.277 C 
ENDBRANCH   2  15
BRANCH   1  17
ATOM     17  O   UNL     1       7.248   0.199  22.612  0.00  0.00    -0.488 OA
BRANCH  17  18
ATOM     18  C   UNL     1       6.655   1.056  23.594  0.00  0.00    +0.229 C 
BRANCH  18  20
ATOM     19  C   UNL     1       7.650   2.720  22.027  0.00  0.00    +0.007 C 
ATOM     20  C   UNL     1       7.161   2.484  23.448  0.00  0.00    +0.038 C 
ENDBRANCH  18  20
ENDBRANCH  17  18
ENDBRANCH   1  17
TORSDOF 5
ENDMDL
MODEL 9
REMARK VINA RESULT:      -5.1      2.299      6.166
REMARK  Name = 
REMARK  8 active torsions:
REMARK  status: ('A' for Active; 'I' for Inactive)
REMARK    1  A    between atoms: C_1  and  C_2
REMARK    2  A    between atoms: C_2  and  C_3
REMARK    3  A    between atoms: C_3  and  O_4
REMARK    4  A    between atoms: O_4  and  C_5
REMARK    5  A    between atoms: C_7  and  C_13
REMARK    6  A    between atoms: C_10  and  O_11
REMARK    7  A    between atoms: O_11  and  C_12
REMARK    8  A    between atoms: C_13  and  C_14
REMARK                            x       y       z     vdW  Elec       q    Type
REMARK                         _______ _______ _______ _____ _____    ______ ____
ROOT
ATOM      1  C   UNL     1       7.847   0.724  22.903  0.00  0.00    +0.162 A 
ATOM      2  C   UNL     1       9.066   0.715  22.213  0.00  0.00    +0.162 A 
ATOM      3  C   UNL     1       9.559  -0.496  21.702  0.00  0.00    +0.050 A 
ATOM      4  C   UNL     1       8.890  -1.704  21.916  0.00  0.00    +0.011 A 
ATOM      5  C   UNL     1       7.698  -1.727  22.645  0.00  0.00    +0.001 A 
ATOM      6  C   UNL     1       7.186  -0.502  23.102  0.00  0.00    +0.057 A 
ENDROOT
BRANCH   5   7
ATOM      7  C   UNL     1       6.945  -3.020  22.965  0.00  0.00    +0.153 C 
ATOM      8  C   UNL     1       5.759  -3.212  22.015  0.00  0.00    +0.063 C 
ATOM      9  O   UNL     1       7.817  -4.165  22.846  0.00  0.00    -0.438 OA
ATOM     10  C   UNL     1       8.279  -4.485  24.093  0.00  0.00    +0.401 C 
ATOM     11  O   UNL     1       9.126  -5.325  24.328  0.00  0.00    -0.226 OA
ATOM     12  N   UNL     1       7.609  -3.758  25.039  0.00  0.00    -0.277 N 
ATOM     13  H   UNL     1       7.706  -4.001  26.014  0.00  0.00    +0.152 HD
ATOM     14  C   UNL     1       6.503  -3.100  24.432  0.00  0.00    +0.160 C 
ENDBRANCH   5   7
BRANCH   2  15
ATOM     15  O   UNL     1       9.869   1.785  21.915  0.00  0.00    -0.491 OA
ATOM     16  C   UNL     1      10.512   2.437  23.001  0.00  0.00    +0.277 C 
ENDBRANCH   2  15
BRANCH   1  17
ATOM     17  O   UNL     1       7.326   1.922  23.342  0.00  0.00    -0.488 OA
BRANCH  17  18
ATOM     18  C   UNL     1       6.159   2.379  22.649  0.00  0.00    +0.229 C 
BRANCH  18  20
ATOM     19  C   UNL     1       4.728   4.419  22.733  0.00  0.00    +0.007 C 
ATOM     20  C   UNL     1       6.146   3.897  22.548  0.00  0.00    +0.038 C 
ENDBRANCH  18  20
ENDBRANCH  17  18
ENDBRANCH   1  17
TORSDOF 5
ENDMDL
