MODEL 1
REMARK VINA RESULT:      -7.2      0.000      0.000
REMARK  Name = 
REMARK  7 active torsions:
REMARK  status: ('A' for Active; 'I' for Inactive)
REMARK    1  A    between atoms: CA_2  and  N_3
REMARK    2  A    between atoms: CA_2  and  C_18
REMARK    3  A    between atoms: CA_2  and  C_21
REMARK    4  A    between atoms: C_10  and  C_11
REMARK    5  A    between atoms: C_14  and  C_15
REMARK    6  A    between atoms: C_15  and  C_16
REMARK    7  A    between atoms: C_18  and  O_19
REMARK                            x       y       z     vdW  Elec       q    Type
REMARK                         _______ _______ _______ _____ _____    ______ ____
ROOT
ATOM      1  N   UNL     1       5.655  -4.723  24.090  0.00  0.00    -0.309 N 
ATOM      2  H   UNL     1       5.128  -4.175  23.417  0.00  0.00    +0.149 HD
ATOM      3  C   UNL     1       6.948  -4.386  24.250  0.00  0.00    +0.152 C 
ATOM      4  S   UNL     1       7.331  -2.747  23.845  0.00  0.00    -0.052 S 
ATOM      5  C   UNL     1       8.998  -3.093  24.063  0.00  0.00    +0.082 C 
ATOM      6  C   UNL     1      10.051  -2.329  23.746  0.00  0.00    +0.066 C 
ATOM      7  C   UNL     1       9.133  -4.477  24.624  0.00  0.00    +0.276 C 
ATOM      8  O   UNL     1      10.193  -4.960  24.979  0.00  0.00    -0.267 OA
ATOM      9  N   UNL     1       7.916  -5.143  24.635  0.00  0.00    -0.154 NA
ENDROOT
BRANCH   6  10
ATOM     10  C   UNL     1       9.917  -1.087  23.061  0.00  0.00    +0.129 A 
ATOM     11  O   UNL     1      10.087   0.132  23.679  0.00  0.00    -0.460 OA
ATOM     12  C   UNL     1       9.850   1.125  22.790  0.00  0.00    +0.105 A 
ATOM     13  C   UNL     1       9.523   0.584  21.572  0.00  0.00    +0.045 A 
ATOM     14  C   UNL     1       9.555  -0.826  21.746  0.00  0.00    +0.049 A 
BRANCH  12  15
ATOM     15  C   UNL     1       9.952   2.505  23.327  0.00  0.00    +0.071 C 
ATOM     16  C   UNL     1       9.052   2.729  24.530  0.00  0.00    +0.012 C 
ENDBRANCH  12  15
ENDBRANCH   6  10
BRANCH   1  17
ATOM     17  CA  UNL     1       5.040  -5.956  24.550  0.00  0.00    +0.212 C 
BRANCH  17  18
ATOM     18  C   UNL     1       4.656  -5.762  26.011  0.00  0.00    -0.016 A 
ATOM     19  C   UNL     1       4.998  -6.747  26.956  0.00  0.00    +0.009 A 
ATOM     20  C   UNL     1       4.682  -6.577  28.306  0.00  0.00    +0.038 A 
ATOM     21  C   UNL     1       4.035  -5.419  28.720  0.00  0.00    +0.123 A 
ATOM     22  F   UNL     1       3.735  -5.259  30.015  0.00  0.00    -0.205 F 
ATOM     23  C   UNL     1       3.699  -4.426  27.811  0.00  0.00    +0.038 A 
ATOM     24  C   UNL     1       4.004  -4.596  26.459  0.00  0.00    +0.009 A 
ENDBRANCH  17  18
BRANCH  17  25
ATOM     25  C   UNL     1       3.880  -6.368  23.623  0.00  0.00    +0.330 C 
ATOM     26  OXT UNL     1       3.324  -5.641  22.812  0.00  0.00    -0.249 OA
BRANCH  25  27
ATOM     27  O   UNL     1       3.506  -7.666  23.782  0.00  0.00    -0.479 OA
ATOM     28  H   UNL     1       2.529  -7.804  23.771  0.00  0.00    +0.295 HD
ENDBRANCH  25  27
ENDBRANCH  17  25
ENDBRANCH   1  17
TORSDOF 6
ENDMDL
MODEL 2
REMARK VINA RESULT:      -7.1      2.238      3.069
REMARK  Name = 
REMARK  7 active torsions:
REMARK  status: ('A' for Active; 'I' for Inactive)
REMARK    1  A    between atoms: CA_2  and  N_3
REMARK    2  A    between atoms: CA_2  and  C_18
REMARK    3  A    between atoms: CA_2  and  C_21
REMARK    4  A    between atoms: C_10  and  C_11
REMARK    5  A    between atoms: C_14  and  C_15
REMARK    6  A    between atoms: C_15  and  C_16
REMARK    7  A    between atoms: C_18  and  O_19
REMARK                            x       y       z     vdW  Elec       q    Type
REMARK                         _______ _______ _______ _____ _____    ______ ____
ROOT
ATOM      1  N   UNL     1       6.577  -3.204  23.355  0.00  0.00    -0.309 N 
ATOM      2  H   UNL     1       5.663  -2.768  23.277  0.00  0.00    +0.149 HD
ATOM      3  C   UNL     1       7.637  -2.414  23.104  0.00  0.00    +0.152 C 
ATOM      4  S   UNL     1       7.361  -0.722  23.354  0.00  0.00    -0.052 S 
ATOM      5  C   UNL     1       8.910  -0.383  22.693  0.00  0.00    +0.082 C 
ATOM      6  C   UNL     1       9.422   0.805  22.351  0.00  0.00    +0.066 C 
ATOM      7  C   UNL     1       9.632  -1.678  22.470  0.00  0.00    +0.276 C 
ATOM      8  O   UNL     1      10.791  -1.749  22.106  0.00  0.00    -0.267 OA
ATOM      9  N   UNL     1       8.799  -2.768  22.679  0.00  0.00    -0.154 NA
ENDROOT
BRANCH   6  10
ATOM     10  C   UNL     1       8.665   2.011  22.411  0.00  0.00    +0.129 A 
ATOM     11  O   UNL     1       8.977   3.050  23.260  0.00  0.00    -0.460 OA
ATOM     12  C   UNL     1       8.057   4.033  23.127  0.00  0.00    +0.105 A 
ATOM     13  C   UNL     1       7.123   3.665  22.191  0.00  0.00    +0.045 A 
ATOM     14  C   UNL     1       7.503   2.372  21.742  0.00  0.00    +0.049 A 
BRANCH  12  15
ATOM     15  C   UNL     1       8.238   5.208  24.016  0.00  0.00    +0.071 C 
ATOM     16  C   UNL     1       8.795   6.414  23.280  0.00  0.00    +0.012 C 
ENDBRANCH  12  15
ENDBRANCH   6  10
BRANCH   1  17
ATOM     17  CA  UNL     1       6.602  -4.654  23.424  0.00  0.00    +0.212 C 
BRANCH  17  18
ATOM     18  C   UNL     1       6.575  -5.046  24.895  0.00  0.00    -0.016 A 
ATOM     19  C   UNL     1       7.752  -4.956  25.661  0.00  0.00    +0.009 A 
ATOM     20  C   UNL     1       7.744  -5.282  27.019  0.00  0.00    +0.038 A 
ATOM     21  C   UNL     1       6.559  -5.686  27.622  0.00  0.00    +0.123 A 
ATOM     22  F   UNL     1       6.554  -5.997  28.924  0.00  0.00    -0.205 F 
ATOM     23  C   UNL     1       5.381  -5.769  26.893  0.00  0.00    +0.038 A 
ATOM     24  C   UNL     1       5.386  -5.454  25.533  0.00  0.00    +0.009 A 
ENDBRANCH  17  18
BRANCH  17  25
ATOM     25  C   UNL     1       5.474  -5.263  22.569  0.00  0.00    +0.330 C 
ATOM     26  OXT UNL     1       4.415  -4.717  22.295  0.00  0.00    -0.249 OA
BRANCH  25  27
ATOM     27  O   UNL     1       5.761  -6.514  22.120  0.00  0.00    -0.479 OA
ATOM     28  H   UNL     1       5.532  -6.660  21.171  0.00  0.00    +0.295 HD
ENDBRANCH  25  27
ENDBRANCH  17  25
ENDBRANCH   1  17
TORSDOF 6
ENDMDL
MODEL 3
REMARK VINA RESULT:      -7.0      3.718      4.919
REMARK  Name = 
REMARK  7 active torsions:
REMARK  status: ('A' for Active; 'I' for Inactive)
REMARK    1  A    between atoms: CA_2  and  N_3
REMARK    2  A    between atoms: CA_2  and  C_18
REMARK    3  A    between atoms: CA_2  and  C_21
REMARK    4  A    between atoms: C_10  and  C_11
REMARK    5  A    between atoms: C_14  and  C_15
REMARK    6  A    between atoms: C_15  and  C_16
REMARK    7  A    between atoms: C_18  and  O_19
REMARK                            x       y       z     vdW  Elec       q    Type
REMARK                         _______ _______ _______ _____ _____    ______ ____
ROOT
ATOM      1  N   UNL     1       7.835  -2.603  25.239  0.00  0.00    -0.309 N 
ATOM      2  H   UNL     1       7.074  -2.069  25.647  0.00  0.00    +0.149 HD
ATOM      3  C   UNL     1       8.646  -1.936  24.397  0.00  0.00    +0.152 C 
ATOM      4  S   UNL     1       8.707  -0.223  24.647  0.00  0.00    -0.052 S 
ATOM      5  C   UNL     1       9.655  -0.060  23.225  0.00  0.00    +0.082 C 
ATOM      6  C   UNL     1       9.997   1.063  22.581  0.00  0.00    +0.066 C 
ATOM      7  C   UNL     1      10.015  -1.428  22.727  0.00  0.00    +0.276 C 
ATOM      8  O   UNL     1      10.769  -1.628  21.792  0.00  0.00    -0.267 OA
ATOM      9  N   UNL     1       9.343  -2.418  23.428  0.00  0.00    -0.154 NA
ENDROOT
BRANCH   6  10
ATOM     10  C   UNL     1       9.511   2.346  22.969  0.00  0.00    +0.129 A 
ATOM     11  O   UNL     1       8.372   2.908  22.438  0.00  0.00    -0.460 OA
ATOM     12  C   UNL     1       8.192   4.142  22.962  0.00  0.00    +0.105 A 
ATOM     13  C   UNL     1       9.204   4.419  23.846  0.00  0.00    +0.045 A 
ATOM     14  C   UNL     1      10.051   3.279  23.845  0.00  0.00    +0.049 A 
BRANCH  12  15
ATOM     15  C   UNL     1       7.020   4.894  22.447  0.00  0.00    +0.071 C 
ATOM     16  C   UNL     1       7.378   6.306  22.015  0.00  0.00    +0.012 C 
ENDBRANCH  12  15
ENDBRANCH   6  10
BRANCH   1  17
ATOM     17  CA  UNL     1       7.765  -4.047  25.377  0.00  0.00    +0.212 C 
BRANCH  17  18
ATOM     18  C   UNL     1       7.167  -4.604  24.092  0.00  0.00    -0.016 A 
ATOM     19  C   UNL     1       7.901  -5.530  23.327  0.00  0.00    +0.009 A 
ATOM     20  C   UNL     1       7.361  -6.077  22.162  0.00  0.00    +0.038 A 
ATOM     21  C   UNL     1       6.081  -5.712  21.761  0.00  0.00    +0.123 A 
ATOM     22  F   UNL     1       5.566  -6.239  20.643  0.00  0.00    -0.205 F 
ATOM     23  C   UNL     1       5.330  -4.812  22.504  0.00  0.00    +0.038 A 
ATOM     24  C   UNL     1       5.871  -4.256  23.665  0.00  0.00    +0.009 A 
ENDBRANCH  17  18
BRANCH  17  25
ATOM     25  C   UNL     1       9.141  -4.628  25.758  0.00  0.00    +0.330 C 
ATOM     26  OXT UNL     1      10.034  -4.914  24.974  0.00  0.00    -0.249 OA
BRANCH  25  27
ATOM     27  O   UNL     1       9.292  -4.805  27.098  0.00  0.00    -0.479 OA
ATOM     28  H   UNL     1       9.302  -5.752  27.377  0.00  0.00    +0.295 HD
ENDBRANCH  25  27
ENDBRANCH  17  25
ENDBRANCH   1  17
TORSDOF 6
ENDMDL
MODEL 4
REMARK VINA RESULT:      -6.8      2.230      3.260
REMARK  Name = 
REMARK  7 active torsions:
REMARK  status: ('A' for Active; 'I' for Inactive)
REMARK    1  A    between atoms: CA_2  and  N_3
REMARK    2  A    between atoms: CA_2  and  C_18
REMARK    3  A    between atoms: CA_2  and  C_21
REMARK    4  A    between atoms: C_10  and  C_11
REMARK    5  A    between atoms: C_14  and  C_15
REMARK    6  A    between atoms: C_15  and  C_16
REMARK    7  A    between atoms: C_18  and  O_19
REMARK                            x       y       z     vdW  Elec       q    Type
REMARK                         _______ _______ _______ _____ _____    ______ ____
ROOT
ATOM      1  N   UNL     1       6.500  -3.150  23.425  0.00  0.00    -0.309 N 
ATOM      2  H   UNL     1       5.627  -2.636  23.476  0.00  0.00    +0.149 HD
ATOM      3  C   UNL     1       7.617  -2.413  23.278  0.00  0.00    +0.152 C 
ATOM      4  S   UNL     1       7.499  -0.786  23.859  0.00  0.00    -0.052 S 
ATOM      5  C   UNL     1       9.049  -0.449  23.200  0.00  0.00    +0.082 C 
ATOM      6  C   UNL     1       9.652   0.739  23.067  0.00  0.00    +0.066 C 
ATOM      7  C   UNL     1       9.647  -1.730  22.700  0.00  0.00    +0.276 C 
ATOM      8  O   UNL     1      10.784  -1.821  22.273  0.00  0.00    -0.267 OA
ATOM      9  N   UNL     1       8.730  -2.769  22.737  0.00  0.00    -0.154 NA
ENDROOT
BRANCH   6  10
ATOM     10  C   UNL     1       9.006   1.966  23.393  0.00  0.00    +0.129 A 
ATOM     11  O   UNL     1       8.237   2.672  22.494  0.00  0.00    -0.460 OA
ATOM     12  C   UNL     1       7.798   3.812  23.074  0.00  0.00    +0.105 A 
ATOM     13  C   UNL     1       8.265   3.883  24.363  0.00  0.00    +0.045 A 
ATOM     14  C   UNL     1       9.043   2.712  24.565  0.00  0.00    +0.049 A 
BRANCH  12  15
ATOM     15  C   UNL     1       6.988   4.704  22.206  0.00  0.00    +0.071 C 
ATOM     16  C   UNL     1       7.524   6.125  22.171  0.00  0.00    +0.012 C 
ENDBRANCH  12  15
ENDBRANCH   6  10
BRANCH   1  17
ATOM     17  CA  UNL     1       6.401  -4.583  23.215  0.00  0.00    +0.212 C 
BRANCH  17  18
ATOM     18  C   UNL     1       5.511  -5.149  24.313  0.00  0.00    -0.016 A 
ATOM     19  C   UNL     1       4.120  -5.223  24.112  0.00  0.00    +0.009 A 
ATOM     20  C   UNL     1       3.288  -5.766  25.093  0.00  0.00    +0.038 A 
ATOM     21  C   UNL     1       3.841  -6.250  26.272  0.00  0.00    +0.123 A 
ATOM     22  F   UNL     1       3.040  -6.771  27.211  0.00  0.00    -0.205 F 
ATOM     23  C   UNL     1       5.210  -6.203  26.490  0.00  0.00    +0.038 A 
ATOM     24  C   UNL     1       6.046  -5.652  25.516  0.00  0.00    +0.009 A 
ENDBRANCH  17  18
BRANCH  17  25
ATOM     25  C   UNL     1       5.938  -4.895  21.778  0.00  0.00    +0.330 C 
ATOM     26  OXT UNL     1       5.615  -4.067  20.939  0.00  0.00    -0.249 OA
BRANCH  25  27
ATOM     27  O   UNL     1       5.918  -6.226  21.502  0.00  0.00    -0.479 OA
ATOM     28  H   UNL     1       5.895  -6.435  20.537  0.00  0.00    +0.295 HD
ENDBRANCH  25  27
ENDBRANCH  17  25
ENDBRANCH   1  17
TORSDOF 6
ENDMDL
MODEL 5
REMARK VINA RESULT:      -6.7      2.354      3.520
REMARK  Name = 
REMARK  7 active torsions:
REMARK  status: ('A' for Active; 'I' for Inactive)
REMARK    1  A    between atoms: CA_2  and  N_3
REMARK    2  A    between atoms: CA_2  and  C_18
REMARK    3  A    between atoms: CA_2  and  C_21
REMARK    4  A    between atoms: C_10  and  C_11
REMARK    5  A    between atoms: C_14  and  C_15
REMARK    6  A    between atoms: C_15  and  C_16
REMARK    7  A    between atoms: C_18  and  O_19
REMARK                            x       y       z     vdW  Elec       q    Type
REMARK                         _______ _______ _______ _____ _____    ______ ____
ROOT
ATOM      1  N   UNL     1       8.001  -2.705  25.492  0.00  0.00    -0.309 N 
ATOM      2  H   UNL     1       7.108  -2.287  25.732  0.00  0.00    +0.149 HD
ATOM      3  C   UNL     1       8.748  -2.038  24.592  0.00  0.00    +0.152 C 
ATOM      4  S   UNL     1       8.433  -0.338  24.501  0.00  0.00    -0.052 S 
ATOM      5  C   UNL     1       9.478  -0.228  23.143  0.00  0.00    +0.082 C 
ATOM      6  C   UNL     1       9.654   0.810  22.315  0.00  0.00    +0.066 C 
ATOM      7  C   UNL     1      10.160  -1.549  22.952  0.00  0.00    +0.276 C 
ATOM      8  O   UNL     1      11.036  -1.744  22.129  0.00  0.00    -0.267 OA
ATOM      9  N   UNL     1       9.630  -2.521  23.788  0.00  0.00    -0.154 NA
ENDROOT
BRANCH   6  10
ATOM     10  C   UNL     1       8.880   2.002  22.407  0.00  0.00    +0.129 A 
ATOM     11  O   UNL     1       9.197   3.040  23.255  0.00  0.00    -0.460 OA
ATOM     12  C   UNL     1       8.258   4.008  23.155  0.00  0.00    +0.105 A 
ATOM     13  C   UNL     1       7.304   3.632  22.242  0.00  0.00    +0.045 A 
ATOM     14  C   UNL     1       7.694   2.349  21.772  0.00  0.00    +0.049 A 
BRANCH  12  15
ATOM     15  C   UNL     1       8.443   5.178  24.049  0.00  0.00    +0.071 C 
ATOM     16  C   UNL     1       9.067   6.364  23.333  0.00  0.00    +0.012 C 
ENDBRANCH  12  15
ENDBRANCH   6  10
BRANCH   1  17
ATOM     17  CA  UNL     1       8.210  -4.081  25.908  0.00  0.00    +0.212 C 
BRANCH  17  18
ATOM     18  C   UNL     1       7.116  -4.431  26.908  0.00  0.00    -0.016 A 
ATOM     19  C   UNL     1       6.048  -3.538  27.112  0.00  0.00    +0.009 A 
ATOM     20  C   UNL     1       5.018  -3.852  28.002  0.00  0.00    +0.038 A 
ATOM     21  C   UNL     1       5.044  -5.063  28.682  0.00  0.00    +0.123 A 
ATOM     22  F   UNL     1       4.055  -5.361  29.534  0.00  0.00    -0.205 F 
ATOM     23  C   UNL     1       6.078  -5.968  28.489  0.00  0.00    +0.038 A 
ATOM     24  C   UNL     1       7.114  -5.654  27.607  0.00  0.00    +0.009 A 
ENDBRANCH  17  18
BRANCH  17  25
ATOM     25  C   UNL     1       8.295  -5.016  24.685  0.00  0.00    +0.330 C 
ATOM     26  OXT UNL     1       7.385  -5.249  23.903  0.00  0.00    -0.249 OA
BRANCH  25  27
ATOM     27  O   UNL     1       9.520  -5.587  24.535  0.00  0.00    -0.479 OA
ATOM     28  H   UNL     1       9.606  -6.141  23.723  0.00  0.00    +0.295 HD
ENDBRANCH  25  27
ENDBRANCH  17  25
ENDBRANCH   1  17
TORSDOF 6
ENDMDL
MODEL 6
REMARK VINA RESULT:      -6.7      3.612      5.030
REMARK  Name = 
REMARK  7 active torsions:
REMARK  status: ('A' for Active; 'I' for Inactive)
REMARK    1  A    between atoms: CA_2  and  N_3
REMARK    2  A    between atoms: CA_2  and  C_18
REMARK    3  A    between atoms: CA_2  and  C_21
REMARK    4  A    between atoms: C_10  and  C_11
REMARK    5  A    between atoms: C_14  and  C_15
REMARK    6  A    between atoms: C_15  and  C_16
REMARK    7  A    between atoms: C_18  and  O_19
REMARK                            x       y       z     vdW  Elec       q    Type
REMARK                         _______ _______ _______ _____ _____    ______ ____
ROOT
ATOM      1  N   UNL     1       8.148  -2.760  25.173  0.00  0.00    -0.309 N 
ATOM      2  H   UNL     1       9.152  -2.758  25.323  0.00  0.00    +0.149 HD
ATOM      3  C   UNL     1       7.582  -1.565  24.919  0.00  0.00    +0.152 C 
ATOM      4  S   UNL     1       8.648  -0.384  24.236  0.00  0.00    -0.052 S 
ATOM      5  C   UNL     1       7.414   0.801  24.386  0.00  0.00    +0.082 C 
ATOM      6  C   UNL     1       7.514   2.126  24.221  0.00  0.00    +0.066 C 
ATOM      7  C   UNL     1       6.148   0.125  24.820  0.00  0.00    +0.276 C 
ATOM      8  O   UNL     1       5.077   0.695  24.911  0.00  0.00    -0.267 OA
ATOM      9  N   UNL     1       6.369  -1.204  25.151  0.00  0.00    -0.154 NA
ENDROOT
BRANCH   6  10
ATOM     10  C   UNL     1       8.757   2.775  23.972  0.00  0.00    +0.129 A 
ATOM     11  O   UNL     1       8.936   4.134  24.112  0.00  0.00    -0.460 OA
ATOM     12  C   UNL     1      10.201   4.461  23.761  0.00  0.00    +0.105 A 
ATOM     13  C   UNL     1      10.881   3.330  23.385  0.00  0.00    +0.045 A 
ATOM     14  C   UNL     1       9.960   2.256  23.509  0.00  0.00    +0.049 A 
BRANCH  12  15
ATOM     15  C   UNL     1      10.530   5.908  23.819  0.00  0.00    +0.071 C 
ATOM     16  C   UNL     1       9.321   6.766  24.151  0.00  0.00    +0.012 C 
ENDBRANCH  12  15
ENDBRANCH   6  10
BRANCH   1  17
ATOM     17  CA  UNL     1       7.436  -3.969  25.545  0.00  0.00    +0.212 C 
BRANCH  17  18
ATOM     18  C   UNL     1       6.902  -4.602  24.268  0.00  0.00    -0.016 A 
ATOM     19  C   UNL     1       7.801  -5.019  23.269  0.00  0.00    +0.009 A 
ATOM     20  C   UNL     1       7.336  -5.630  22.102  0.00  0.00    +0.038 A 
ATOM     21  C   UNL     1       5.973  -5.837  21.932  0.00  0.00    +0.123 A 
ATOM     22  F   UNL     1       5.530  -6.423  20.812  0.00  0.00    -0.205 F 
ATOM     23  C   UNL     1       5.065  -5.448  22.907  0.00  0.00    +0.038 A 
ATOM     24  C   UNL     1       5.525  -4.829  24.071  0.00  0.00    +0.009 A 
ENDBRANCH  17  18
BRANCH  17  25
ATOM     25  C   UNL     1       8.328  -4.889  26.401  0.00  0.00    +0.330 C 
ATOM     26  OXT UNL     1       9.498  -4.679  26.688  0.00  0.00    -0.249 OA
BRANCH  25  27
ATOM     27  O   UNL     1       7.684  -6.004  26.835  0.00  0.00    -0.479 OA
ATOM     28  H   UNL     1       6.721  -5.868  27.009  0.00  0.00    +0.295 HD
ENDBRANCH  25  27
ENDBRANCH  17  25
ENDBRANCH   1  17
TORSDOF 6
ENDMDL
MODEL 7
REMARK VINA RESULT:      -6.6      4.851      9.328
REMARK  Name = 
REMARK  7 active torsions:
REMARK  status: ('A' for Active; 'I' for Inactive)
REMARK    1  A    between atoms: CA_2  and  N_3
REMARK    2  A    between atoms: CA_2  and  C_18
REMARK    3  A    between atoms: CA_2  and  C_21
REMARK    4  A    between atoms: C_10  and  C_11
REMARK    5  A    between atoms: C_14  and  C_15
REMARK    6  A    between atoms: C_15  and  C_16
REMARK    7  A    between atoms: C_18  and  O_19
REMARK                            x       y       z     vdW  Elec       q    Type
REMARK                         _______ _______ _______ _____ _____    ______ ____
ROOT
ATOM      1  N   UNL     1       8.081   2.025  23.684  0.00  0.00    -0.309 N 
ATOM      2  H   UNL     1       8.749   1.687  22.999  0.00  0.00    +0.149 HD
ATOM      3  C   UNL     1       7.294   1.095  24.257  0.00  0.00    +0.152 C 
ATOM      4  S   UNL     1       7.951  -0.507  24.272  0.00  0.00    -0.052 S 
ATOM      5  C   UNL     1       6.460  -1.101  24.883  0.00  0.00    +0.082 C 
ATOM      6  C   UNL     1       6.067  -2.375  25.015  0.00  0.00    +0.066 C 
ATOM      7  C   UNL     1       5.573   0.064  25.205  0.00  0.00    +0.276 C 
ATOM      8  O   UNL     1       4.490  -0.044  25.751  0.00  0.00    -0.267 OA
ATOM      9  N   UNL     1       6.119   1.258  24.756  0.00  0.00    -0.154 NA
ENDROOT
BRANCH   6  10
ATOM     10  C   UNL     1       6.852  -3.470  24.552  0.00  0.00    +0.129 A 
ATOM     11  O   UNL     1       6.587  -4.139  23.378  0.00  0.00    -0.460 OA
ATOM     12  C   UNL     1       7.468  -5.155  23.229  0.00  0.00    +0.105 A 
ATOM     13  C   UNL     1       8.331  -5.176  24.296  0.00  0.00    +0.045 A 
ATOM     14  C   UNL     1       7.933  -4.109  25.145  0.00  0.00    +0.049 A 
BRANCH  12  15
ATOM     15  C   UNL     1       7.277  -6.000  22.023  0.00  0.00    +0.071 C 
ATOM     16  C   UNL     1       6.192  -5.465  21.104  0.00  0.00    +0.012 C 
ENDBRANCH  12  15
ENDBRANCH   6  10
BRANCH   1  17
ATOM     17  CA  UNL     1       7.861   3.459  23.727  0.00  0.00    +0.212 C 
BRANCH  17  18
ATOM     18  C   UNL     1       9.225   4.136  23.714  0.00  0.00    -0.016 A 
ATOM     19  C   UNL     1      10.371   3.384  23.399  0.00  0.00    +0.009 A 
ATOM     20  C   UNL     1      11.629   3.989  23.351  0.00  0.00    +0.038 A 
ATOM     21  C   UNL     1      11.746   5.350  23.606  0.00  0.00    +0.123 A 
ATOM     22  F   UNL     1      12.953   5.928  23.559  0.00  0.00    -0.205 F 
ATOM     23  C   UNL     1      10.630   6.118  23.905  0.00  0.00    +0.038 A 
ATOM     24  C   UNL     1       9.372   5.515  23.963  0.00  0.00    +0.009 A 
ENDBRANCH  17  18
BRANCH  17  25
ATOM     25  C   UNL     1       6.906   3.901  22.600  0.00  0.00    +0.330 C 
ATOM     26  OXT UNL     1       6.110   4.827  22.664  0.00  0.00    -0.249 OA
BRANCH  25  27
ATOM     27  O   UNL     1       7.025   3.147  21.475  0.00  0.00    -0.479 OA
ATOM     28  H   UNL     1       6.483   3.472  20.717  0.00  0.00    +0.295 HD
ENDBRANCH  25  27
ENDBRANCH  17  25
ENDBRANCH   1  17
TORSDOF 6
ENDMDL
MODEL 8
REMARK VINA RESULT:      -6.6      3.892      8.402
REMARK  Name = 
REMARK  7 active torsions:
REMARK  status: ('A' for Active; 'I' for Inactive)
REMARK    1  A    between atoms: CA_2  and  N_3
REMARK    2  A    between atoms: CA_2  and  C_18
REMARK    3  A    between atoms: CA_2  and  C_21
REMARK    4  A    between atoms: C_10  and  C_11
REMARK    5  A    between atoms: C_14  and  C_15
REMARK    6  A    between atoms: C_15  and  C_16
REMARK    7  A    between atoms: C_18  and  O_19
REMARK                            x       y       z     vdW  Elec       q    Type
REMARK                         _______ _______ _______ _____ _____    ______ ____
ROOT
ATOM      1  N   UNL     1       7.360   0.743  23.080  0.00  0.00    -0.309 N 
ATOM      2  H   UNL     1       6.648   0.847  23.796  0.00  0.00    +0.149 HD
ATOM      3  C   UNL     1       8.094  -0.385  23.129  0.00  0.00    +0.152 C 
ATOM      4  S   UNL     1       7.321  -1.724  23.910  0.00  0.00    -0.052 S 
ATOM      5  C   UNL     1       8.782  -2.619  23.796  0.00  0.00    +0.082 C 
ATOM      6  C   UNL     1       9.084  -3.789  24.373  0.00  0.00    +0.066 C 
ATOM      7  C   UNL     1       9.761  -1.839  22.971  0.00  0.00    +0.276 C 
ATOM      8  O   UNL     1      10.850  -2.268  22.632  0.00  0.00    -0.267 OA
ATOM      9  N   UNL     1       9.292  -0.563  22.694  0.00  0.00    -0.154 NA
ENDROOT
BRANCH   6  10
ATOM     10  C   UNL     1       8.207  -4.440  25.288  0.00  0.00    +0.129 A 
ATOM     11  O   UNL     1       7.094  -5.145  24.888  0.00  0.00    -0.460 OA
ATOM     12  C   UNL     1       6.436  -5.606  25.977  0.00  0.00    +0.105 A 
ATOM     13  C   UNL     1       7.099  -5.218  27.114  0.00  0.00    +0.045 A 
ATOM     14  C   UNL     1       8.223  -4.465  26.677  0.00  0.00    +0.049 A 
BRANCH  12  15
ATOM     15  C   UNL     1       5.182  -6.352  25.702  0.00  0.00    +0.071 C 
ATOM     16  C   UNL     1       4.908  -6.502  24.215  0.00  0.00    +0.012 C 
ENDBRANCH  12  15
ENDBRANCH   6  10
BRANCH   1  17
ATOM     17  CA  UNL     1       7.686   1.929  22.309  0.00  0.00    +0.212 C 
BRANCH  17  18
ATOM     18  C   UNL     1       6.630   2.983  22.615  0.00  0.00    -0.016 A 
ATOM     19  C   UNL     1       5.449   2.610  23.282  0.00  0.00    +0.009 A 
ATOM     20  C   UNL     1       4.480   3.564  23.600  0.00  0.00    +0.038 A 
ATOM     21  C   UNL     1       4.691   4.896  23.265  0.00  0.00    +0.123 A 
ATOM     22  F   UNL     1       3.761   5.809  23.571  0.00  0.00    -0.205 F 
ATOM     23  C   UNL     1       5.854   5.293  22.619  0.00  0.00    +0.038 A 
ATOM     24  C   UNL     1       6.821   4.340  22.291  0.00  0.00    +0.009 A 
ENDBRANCH  17  18
BRANCH  17  25
ATOM     25  C   UNL     1       9.139   2.371  22.572  0.00  0.00    +0.330 C 
ATOM     26  OXT UNL     1       9.570   2.805  23.631  0.00  0.00    -0.249 OA
BRANCH  25  27
ATOM     27  O   UNL     1       9.944   2.233  21.485  0.00  0.00    -0.479 OA
ATOM     28  H   UNL     1      10.422   1.370  21.448  0.00  0.00    +0.295 HD
ENDBRANCH  25  27
ENDBRANCH  17  25
ENDBRANCH   1  17
TORSDOF 6
ENDMDL
MODEL 9
REMARK VINA RESULT:      -6.6      3.311      8.240
REMARK  Name = 
REMARK  7 active torsions:
REMARK  status: ('A' for Active; 'I' for Inactive)
REMARK    1  A    between atoms: CA_2  and  N_3
REMARK    2  A    between atoms: CA_2  and  C_18
REMARK    3  A    between atoms: CA_2  and  C_21
REMARK    4  A    between atoms: C_10  and  C_11
REMARK    5  A    between atoms: C_14  and  C_15
REMARK    6  A    between atoms: C_15  and  C_16
REMARK    7  A    between atoms: C_18  and  O_19
REMARK                            x       y       z     vdW  Elec       q    Type
REMARK                         _______ _______ _______ _____ _____    ______ ____
ROOT
ATOM      1  N   UNL     1       7.586  -1.277  23.423  0.00  0.00    -0.309 N 
ATOM      2  H   UNL     1       7.597  -0.961  24.388  0.00  0.00    +0.149 HD
ATOM      3  C   UNL     1       7.206  -2.552  23.219  0.00  0.00    +0.152 C 
ATOM      4  S   UNL     1       6.192  -3.218  24.454  0.00  0.00    -0.052 S 
ATOM      5  C   UNL     1       6.299  -4.756  23.698  0.00  0.00    +0.082 C 
ATOM      6  C   UNL     1       5.895  -5.941  24.171  0.00  0.00    +0.066 C 
ATOM      7  C   UNL     1       7.009  -4.599  22.387  0.00  0.00    +0.276 C 
ATOM      8  O   UNL     1       7.143  -5.502  21.581  0.00  0.00    -0.267 OA
ATOM      9  N   UNL     1       7.534  -3.323  22.242  0.00  0.00    -0.154 NA
ENDROOT
BRANCH   6  10
ATOM     10  C   UNL     1       5.371  -6.103  25.487  0.00  0.00    +0.129 A 
ATOM     11  O   UNL     1       6.169  -6.177  26.607  0.00  0.00    -0.460 OA
ATOM     12  C   UNL     1       5.395  -6.377  27.699  0.00  0.00    +0.105 A 
ATOM     13  C   UNL     1       4.076  -6.437  27.323  0.00  0.00    +0.045 A 
ATOM     14  C   UNL     1       4.060  -6.273  25.913  0.00  0.00    +0.049 A 
BRANCH  12  15
ATOM     15  C   UNL     1       6.123  -6.523  28.984  0.00  0.00    +0.071 C 
ATOM     16  C   UNL     1       5.461  -5.759  30.118  0.00  0.00    +0.012 C 
ENDBRANCH  12  15
ENDBRANCH   6  10
BRANCH   1  17
ATOM     17  CA  UNL     1       8.255  -0.429  22.453  0.00  0.00    +0.212 C 
BRANCH  17  18
ATOM     18  C   UNL     1       7.860   1.011  22.749  0.00  0.00    -0.016 A 
ATOM     19  C   UNL     1       7.950   1.981  21.732  0.00  0.00    +0.009 A 
ATOM     20  C   UNL     1       7.565   3.301  21.972  0.00  0.00    +0.038 A 
ATOM     21  C   UNL     1       7.076   3.658  23.223  0.00  0.00    +0.123 A 
ATOM     22  F   UNL     1       6.708   4.925  23.450  0.00  0.00    -0.205 F 
ATOM     23  C   UNL     1       6.963   2.719  24.239  0.00  0.00    +0.038 A 
ATOM     24  C   UNL     1       7.356   1.400  24.006  0.00  0.00    +0.009 A 
ENDBRANCH  17  18
BRANCH  17  25
ATOM     25  C   UNL     1       9.772  -0.698  22.445  0.00  0.00    +0.330 C 
ATOM     26  OXT UNL     1      10.584  -0.216  23.222  0.00  0.00    -0.249 OA
BRANCH  25  27
ATOM     27  O   UNL     1      10.157  -1.553  21.461  0.00  0.00    -0.479 OA
ATOM     28  H   UNL     1      10.331  -1.114  20.594  0.00  0.00    +0.295 HD
ENDBRANCH  25  27
ENDBRANCH  17  25
ENDBRANCH   1  17
TORSDOF 6
ENDMDL
