MODEL 1
REMARK VINA RESULT:      -7.2      0.000      0.000
REMARK  Name = 
REMARK  11 active torsions:
REMARK  status: ('A' for Active; 'I' for Inactive)
REMARK    1  A    between atoms: C_2  and  C_32
REMARK    2  A    between atoms: C_4  and  C_5
REMARK    3  A    between atoms: C_4  and  C_29
REMARK    4  A    between atoms: C_5  and  C_6
REMARK    5  A    between atoms: C_6  and  C_7
REMARK    6  A    between atoms: C_6  and  C_8
REMARK    7  A    between atoms: C_10  and  C_12
REMARK    8  A    between atoms: C_15  and  C_18
REMARK    9  A    between atoms: C_22  and  C_24
REMARK   10  A    between atoms: C_29  and  O_30
REMARK   11  A    between atoms: C_32  and  O_33
REMARK                            x       y       z     vdW  Elec       q    Type
REMARK                         _______ _______ _______ _____ _____    ______ ____
ROOT
ATOM      1  C   UNL     1       7.689  -0.643  25.603  0.00  0.00    +0.125 C 
ATOM      2  C   UNL     1       6.966  -1.942  25.216  0.00  0.00    +0.128 C 
ATOM      3  N   UNL     1       7.369  -2.210  23.814  0.00  0.00    -0.273 N 
ATOM      4  C   UNL     1       6.742  -3.065  22.898  0.00  0.00    +0.248 C 
ATOM      5  O   UNL     1       7.140  -3.088  21.729  0.00  0.00    -0.270 OA
ATOM      6  C   UNL     1       8.497  -1.280  23.404  0.00  0.00    +0.136 C 
ATOM      7  C   UNL     1       8.951  -0.707  24.773  0.00  0.00    +0.054 C 
ENDROOT
BRANCH   4   8
ATOM      8  C   UNL     1       5.665  -4.051  23.254  0.00  0.00    +0.037 A 
ATOM      9  C   UNL     1       6.035  -5.408  23.376  0.00  0.00    +0.013 A 
ATOM     10  C   UNL     1       5.085  -6.399  23.679  0.00  0.00    +0.013 A 
ATOM     11  C   UNL     1       3.742  -6.057  23.889  0.00  0.00    +0.055 A 
ATOM     12  C   UNL     1       3.371  -4.718  23.737  0.00  0.00    +0.013 A 
ATOM     13  C   UNL     1       4.313  -3.740  23.392  0.00  0.00    +0.013 A 
BRANCH  11  14
ATOM     14  C   UNL     1       2.717  -7.115  24.229  0.00  0.00    +0.417 C 
ATOM     15  F   UNL     1       1.614  -6.602  24.844  0.00  0.00    -0.166 F 
ATOM     16  F   UNL     1       3.205  -8.069  25.073  0.00  0.00    -0.166 F 
ATOM     17  F   UNL     1       2.255  -7.789  23.138  0.00  0.00    -0.166 F 
ENDBRANCH  11  14
ENDBRANCH   4   8
BRANCH   2  18
ATOM     18  C   UNL     1       7.182  -3.152  26.098  0.00  0.00    +0.011 A 
ATOM     19  S   UNL     1       8.642  -4.058  26.120  0.00  0.00    -0.100 S 
ATOM     20  C   UNL     1       7.959  -5.270  27.114  0.00  0.00    +0.045 A 
ATOM     21  C   UNL     1       6.685  -4.952  27.514  0.00  0.00    +0.008 A 
ATOM     22  C   UNL     1       6.242  -3.729  26.937  0.00  0.00    +0.013 A 
ENDBRANCH   2  18
BRANCH   1  23
ATOM     23  C   UNL     1       7.850  -0.402  27.086  0.00  0.00    +0.310 C 
ATOM     24  O   UNL     1       6.933  -0.021  27.797  0.00  0.00    -0.251 OA
BRANCH  23  25
ATOM     25  O   UNL     1       9.113  -0.478  27.559  0.00  0.00    -0.480 OA
ATOM     26  H   UNL     1       9.846  -0.460  26.916  0.00  0.00    +0.295 HD
ENDBRANCH  23  25
ENDBRANCH   1  23
BRANCH   6  27
ATOM     27  C   UNL     1       9.769  -1.979  22.826  0.00  0.00    +0.329 C 
ATOM     28  O   UNL     1      10.559  -2.612  23.518  0.00  0.00    -0.249 OA
BRANCH  27  29
ATOM     29  O   UNL     1      10.033  -1.774  21.519  0.00  0.00    -0.479 OA
ATOM     30  H   UNL     1      10.995  -1.603  21.342  0.00  0.00    +0.295 HD
ENDBRANCH  27  29
ENDBRANCH   6  27
BRANCH   6  31
ATOM     31  C   UNL     1       7.931  -0.167  22.457  0.00  0.00    +0.040 C 
BRANCH  31  32
ATOM     32  C   UNL     1       8.420   1.297  22.620  0.00  0.00    -0.015 C 
ATOM     33  C   UNL     1       7.390   2.275  22.029  0.00  0.00    +0.007 C 
ATOM     34  C   UNL     1       9.768   1.568  21.955  0.00  0.00    +0.007 C 
ENDBRANCH  31  32
ENDBRANCH   6  31
TORSDOF 9
ENDMDL
MODEL 2
REMARK VINA RESULT:      -6.9      4.452      6.806
REMARK  Name = 
REMARK  11 active torsions:
REMARK  status: ('A' for Active; 'I' for Inactive)
REMARK    1  A    between atoms: C_2  and  C_32
REMARK    2  A    between atoms: C_4  and  C_5
REMARK    3  A    between atoms: C_4  and  C_29
REMARK    4  A    between atoms: C_5  and  C_6
REMARK    5  A    between atoms: C_6  and  C_7
REMARK    6  A    between atoms: C_6  and  C_8
REMARK    7  A    between atoms: C_10  and  C_12
REMARK    8  A    between atoms: C_15  and  C_18
REMARK    9  A    between atoms: C_22  and  C_24
REMARK   10  A    between atoms: C_29  and  O_30
REMARK   11  A    between atoms: C_32  and  O_33
REMARK                            x       y       z     vdW  Elec       q    Type
REMARK                         _______ _______ _______ _____ _____    ______ ____
ROOT
ATOM      1  C   UNL     1       6.980  -5.160  25.753  0.00  0.00    +0.125 C 
ATOM      2  C   UNL     1       7.196  -3.783  25.110  0.00  0.00    +0.128 C 
ATOM      3  N   UNL     1       6.174  -3.688  24.038  0.00  0.00    -0.273 N 
ATOM      4  C   UNL     1       6.159  -2.800  22.954  0.00  0.00    +0.248 C 
ATOM      5  O   UNL     1       5.290  -2.930  22.085  0.00  0.00    -0.270 OA
ATOM      6  C   UNL     1       5.183  -4.832  24.155  0.00  0.00    +0.136 C 
ATOM      7  C   UNL     1       5.495  -5.381  25.572  0.00  0.00    +0.054 C 
ENDROOT
BRANCH   4   8
ATOM      8  C   UNL     1       7.071  -1.615  22.813  0.00  0.00    +0.037 A 
ATOM      9  C   UNL     1       6.588  -0.361  23.248  0.00  0.00    +0.013 A 
ATOM     10  C   UNL     1       7.366   0.803  23.126  0.00  0.00    +0.013 A 
ATOM     11  C   UNL     1       8.657   0.743  22.585  0.00  0.00    +0.055 A 
ATOM     12  C   UNL     1       9.123  -0.492  22.126  0.00  0.00    +0.013 A 
ATOM     13  C   UNL     1       8.327  -1.643  22.209  0.00  0.00    +0.013 A 
BRANCH  11  14
ATOM     14  C   UNL     1       9.506   1.989  22.464  0.00  0.00    +0.417 C 
ATOM     15  F   UNL     1      10.440   1.896  21.476  0.00  0.00    -0.166 F 
ATOM     16  F   UNL     1      10.197   2.268  23.606  0.00  0.00    -0.166 F 
ATOM     17  F   UNL     1       8.782   3.109  22.187  0.00  0.00    -0.166 F 
ENDBRANCH  11  14
ENDBRANCH   4   8
BRANCH   2  18
ATOM     18  C   UNL     1       7.162  -2.573  26.018  0.00  0.00    +0.011 A 
ATOM     19  S   UNL     1       5.720  -1.958  26.721  0.00  0.00    -0.100 S 
ATOM     20  C   UNL     1       6.518  -0.569  27.319  0.00  0.00    +0.045 A 
ATOM     21  C   UNL     1       7.871  -0.613  27.089  0.00  0.00    +0.008 A 
ATOM     22  C   UNL     1       8.242  -1.770  26.349  0.00  0.00    +0.013 A 
ENDBRANCH   2  18
BRANCH   1  23
ATOM     23  C   UNL     1       7.537  -5.324  27.149  0.00  0.00    +0.310 C 
ATOM     24  O   UNL     1       6.825  -5.405  28.138  0.00  0.00    -0.251 OA
BRANCH  23  25
ATOM     25  O   UNL     1       8.879  -5.217  27.261  0.00  0.00    -0.480 OA
ATOM     26  H   UNL     1       9.407  -5.186  26.443  0.00  0.00    +0.295 HD
ENDBRANCH  23  25
ENDBRANCH   1  23
BRANCH   6  27
ATOM     27  C   UNL     1       3.678  -4.414  24.216  0.00  0.00    +0.329 C 
ATOM     28  O   UNL     1       3.163  -3.906  25.205  0.00  0.00    -0.249 OA
BRANCH  27  29
ATOM     29  O   UNL     1       2.917  -4.732  23.148  0.00  0.00    -0.479 OA
ATOM     30  H   UNL     1       2.054  -4.241  23.129  0.00  0.00    +0.295 HD
ENDBRANCH  27  29
ENDBRANCH   6  27
BRANCH   6  31
ATOM     31  C   UNL     1       5.476  -5.888  23.034  0.00  0.00    +0.040 C 
BRANCH  31  32
ATOM     32  C   UNL     1       6.642  -5.645  22.040  0.00  0.00    -0.015 C 
ATOM     33  C   UNL     1       6.202  -5.984  20.605  0.00  0.00    +0.007 C 
ATOM     34  C   UNL     1       7.894  -6.459  22.358  0.00  0.00    +0.007 C 
ENDBRANCH  31  32
ENDBRANCH   6  31
TORSDOF 9
ENDMDL
MODEL 3
REMARK VINA RESULT:      -6.8      4.420      7.325
REMARK  Name = 
REMARK  11 active torsions:
REMARK  status: ('A' for Active; 'I' for Inactive)
REMARK    1  A    between atoms: C_2  and  C_32
REMARK    2  A    between atoms: C_4  and  C_5
REMARK    3  A    between atoms: C_4  and  C_29
REMARK    4  A    between atoms: C_5  and  C_6
REMARK    5  A    between atoms: C_6  and  C_7
REMARK    6  A    between atoms: C_6  and  C_8
REMARK    7  A    between atoms: C_10  and  C_12
REMARK    8  A    between atoms: C_15  and  C_18
REMARK    9  A    between atoms: C_22  and  C_24
REMARK   10  A    between atoms: C_29  and  O_30
REMARK   11  A    between atoms: C_32  and  O_33
REMARK                            x       y       z     vdW  Elec       q    Type
REMARK                         _______ _______ _______ _____ _____    ______ ____
ROOT
ATOM      1  C   UNL     1       4.176  -5.227  25.088  0.00  0.00    +0.125 C 
ATOM      2  C   UNL     1       5.260  -4.280  24.553  0.00  0.00    +0.128 C 
ATOM      3  N   UNL     1       6.145  -4.004  25.711  0.00  0.00    -0.273 N 
ATOM      4  C   UNL     1       7.066  -2.958  25.847  0.00  0.00    +0.248 C 
ATOM      5  O   UNL     1       7.644  -2.804  26.928  0.00  0.00    -0.270 OA
ATOM      6  C   UNL     1       5.803  -4.930  26.865  0.00  0.00    +0.136 C 
ATOM      7  C   UNL     1       4.908  -5.990  26.170  0.00  0.00    +0.054 C 
ENDROOT
BRANCH   4   8
ATOM      8  C   UNL     1       7.491  -2.048  24.729  0.00  0.00    +0.037 A 
ATOM      9  C   UNL     1       8.781  -2.238  24.185  0.00  0.00    +0.013 A 
ATOM     10  C   UNL     1       9.268  -1.414  23.156  0.00  0.00    +0.013 A 
ATOM     11  C   UNL     1       8.471  -0.390  22.627  0.00  0.00    +0.055 A 
ATOM     12  C   UNL     1       7.207  -0.183  23.186  0.00  0.00    +0.013 A 
ATOM     13  C   UNL     1       6.742  -0.979  24.242  0.00  0.00    +0.013 A 
BRANCH  11  14
ATOM     14  C   UNL     1       8.982   0.492  21.510  0.00  0.00    +0.417 C 
ATOM     15  F   UNL     1       9.171  -0.190  20.345  0.00  0.00    -0.166 F 
ATOM     16  F   UNL     1      10.181   1.071  21.803  0.00  0.00    -0.166 F 
ATOM     17  F   UNL     1       8.140   1.519  21.206  0.00  0.00    -0.166 F 
ENDBRANCH  11  14
ENDBRANCH   4   8
BRANCH   2  18
ATOM     18  C   UNL     1       6.051  -4.734  23.345  0.00  0.00    +0.011 A 
ATOM     19  S   UNL     1       5.781  -4.136  21.758  0.00  0.00    -0.100 S 
ATOM     20  C   UNL     1       6.845  -5.282  21.067  0.00  0.00    +0.045 A 
ATOM     21  C   UNL     1       7.480  -6.037  22.022  0.00  0.00    +0.008 A 
ATOM     22  C   UNL     1       7.030  -5.715  23.333  0.00  0.00    +0.013 A 
ENDBRANCH   2  18
BRANCH   1  23
ATOM     23  C   UNL     1       3.445  -6.041  24.045  0.00  0.00    +0.310 C 
ATOM     24  O   UNL     1       2.524  -5.590  23.383  0.00  0.00    -0.251 OA
BRANCH  23  25
ATOM     25  O   UNL     1       3.764  -7.353  23.995  0.00  0.00    -0.480 OA
ATOM     26  H   UNL     1       3.104  -7.972  23.633  0.00  0.00    +0.295 HD
ENDBRANCH  23  25
ENDBRANCH   1  23
BRANCH   6  27
ATOM     27  C   UNL     1       7.001  -5.746  27.449  0.00  0.00    +0.329 C 
ATOM     28  O   UNL     1       6.986  -6.253  28.565  0.00  0.00    -0.249 OA
BRANCH  27  29
ATOM     29  O   UNL     1       8.124  -5.791  26.704  0.00  0.00    -0.479 OA
ATOM     30  H   UNL     1       7.987  -5.457  25.778  0.00  0.00    +0.295 HD
ENDBRANCH  27  29
ENDBRANCH   6  27
BRANCH   6  31
ATOM     31  C   UNL     1       5.023  -4.126  27.961  0.00  0.00    +0.040 C 
BRANCH  31  32
ATOM     32  C   UNL     1       3.877  -4.817  28.746  0.00  0.00    -0.015 C 
ATOM     33  C   UNL     1       2.539  -4.106  28.479  0.00  0.00    +0.007 C 
ATOM     34  C   UNL     1       4.105  -4.848  30.256  0.00  0.00    +0.007 C 
ENDBRANCH  31  32
ENDBRANCH   6  31
TORSDOF 9
ENDMDL
MODEL 4
REMARK VINA RESULT:      -6.4      4.403      7.561
REMARK  Name = 
REMARK  11 active torsions:
REMARK  status: ('A' for Active; 'I' for Inactive)
REMARK    1  A    between atoms: C_2  and  C_32
REMARK    2  A    between atoms: C_4  and  C_5
REMARK    3  A    between atoms: C_4  and  C_29
REMARK    4  A    between atoms: C_5  and  C_6
REMARK    5  A    between atoms: C_6  and  C_7
REMARK    6  A    between atoms: C_6  and  C_8
REMARK    7  A    between atoms: C_10  and  C_12
REMARK    8  A    between atoms: C_15  and  C_18
REMARK    9  A    between atoms: C_22  and  C_24
REMARK   10  A    between atoms: C_29  and  O_30
REMARK   11  A    between atoms: C_32  and  O_33
REMARK                            x       y       z     vdW  Elec       q    Type
REMARK                         _______ _______ _______ _____ _____    ______ ____
ROOT
ATOM      1  C   UNL     1       6.109  -4.417  23.255  0.00  0.00    +0.125 C 
ATOM      2  C   UNL     1       6.558  -2.996  23.623  0.00  0.00    +0.128 C 
ATOM      3  N   UNL     1       6.415  -2.910  25.098  0.00  0.00    -0.273 N 
ATOM      4  C   UNL     1       6.369  -1.750  25.881  0.00  0.00    +0.248 C 
ATOM      5  O   UNL     1       6.131  -1.852  27.090  0.00  0.00    -0.270 OA
ATOM      6  C   UNL     1       6.140  -4.285  25.679  0.00  0.00    +0.136 C 
ATOM      7  C   UNL     1       6.488  -5.213  24.484  0.00  0.00    +0.054 C 
ENDROOT
BRANCH   4   8
ATOM      8  C   UNL     1       6.692  -0.371  25.380  0.00  0.00    +0.037 A 
ATOM      9  C   UNL     1       7.989   0.129  25.628  0.00  0.00    +0.013 A 
ATOM     10  C   UNL     1       8.365   1.420  25.218  0.00  0.00    +0.013 A 
ATOM     11  C   UNL     1       7.461   2.238  24.528  0.00  0.00    +0.055 A 
ATOM     12  C   UNL     1       6.168   1.755  24.309  0.00  0.00    +0.013 A 
ATOM     13  C   UNL     1       5.783   0.484  24.759  0.00  0.00    +0.013 A 
BRANCH  11  14
ATOM     14  C   UNL     1       7.862   3.623  24.070  0.00  0.00    +0.417 C 
ATOM     15  F   UNL     1       8.291   3.646  22.777  0.00  0.00    -0.166 F 
ATOM     16  F   UNL     1       8.879   4.148  24.811  0.00  0.00    -0.166 F 
ATOM     17  F   UNL     1       6.847   4.529  24.141  0.00  0.00    -0.166 F 
ENDBRANCH  11  14
ENDBRANCH   4   8
BRANCH   2  18
ATOM     18  C   UNL     1       7.935  -2.558  23.172  0.00  0.00    +0.011 A 
ATOM     19  S   UNL     1       9.379  -2.975  24.003  0.00  0.00    -0.100 S 
ATOM     20  C   UNL     1      10.325  -1.937  23.028  0.00  0.00    +0.045 A 
ATOM     21  C   UNL     1       9.589  -1.363  22.021  0.00  0.00    +0.008 A 
ATOM     22  C   UNL     1       8.216  -1.728  22.099  0.00  0.00    +0.013 A 
ENDBRANCH   2  18
BRANCH   1  23
ATOM     23  C   UNL     1       6.599  -4.933  21.922  0.00  0.00    +0.310 C 
ATOM     24  O   UNL     1       6.084  -4.616  20.861  0.00  0.00    -0.251 OA
BRANCH  23  25
ATOM     25  O   UNL     1       7.546  -5.896  21.977  0.00  0.00    -0.480 OA
ATOM     26  H   UNL     1       8.066  -6.075  21.173  0.00  0.00    +0.295 HD
ENDBRANCH  23  25
ENDBRANCH   1  23
BRANCH   6  27
ATOM     27  C   UNL     1       7.103  -4.737  26.823  0.00  0.00    +0.329 C 
ATOM     28  O   UNL     1       8.242  -5.142  26.621  0.00  0.00    -0.249 OA
BRANCH  27  29
ATOM     29  O   UNL     1       6.591  -4.763  28.071  0.00  0.00    -0.479 OA
ATOM     30  H   UNL     1       7.174  -5.243  28.718  0.00  0.00    +0.295 HD
ENDBRANCH  27  29
ENDBRANCH   6  27
BRANCH   6  31
ATOM     31  C   UNL     1       4.628  -4.384  26.082  0.00  0.00    +0.040 C 
BRANCH  31  32
ATOM     32  C   UNL     1       3.839  -5.686  25.779  0.00  0.00    -0.015 C 
ATOM     33  C   UNL     1       2.418  -5.351  25.295  0.00  0.00    +0.007 C 
ATOM     34  C   UNL     1       3.724  -6.622  26.980  0.00  0.00    +0.007 C 
ENDBRANCH  31  32
ENDBRANCH   6  31
TORSDOF 9
ENDMDL
MODEL 5
REMARK VINA RESULT:      -6.1      3.891      5.978
REMARK  Name = 
REMARK  11 active torsions:
REMARK  status: ('A' for Active; 'I' for Inactive)
REMARK    1  A    between atoms: C_2  and  C_32
REMARK    2  A    between atoms: C_4  and  C_5
REMARK    3  A    between atoms: C_4  and  C_29
REMARK    4  A    between atoms: C_5  and  C_6
REMARK    5  A    between atoms: C_6  and  C_7
REMARK    6  A    between atoms: C_6  and  C_8
REMARK    7  A    between atoms: C_10  and  C_12
REMARK    8  A    between atoms: C_15  and  C_18
REMARK    9  A    between atoms: C_22  and  C_24
REMARK   10  A    between atoms: C_29  and  O_30
REMARK   11  A    between atoms: C_32  and  O_33
REMARK                            x       y       z     vdW  Elec       q    Type
REMARK                         _______ _______ _______ _____ _____    ______ ____
ROOT
ATOM      1  C   UNL     1       8.725   3.186  24.415  0.00  0.00    +0.125 C 
ATOM      2  C   UNL     1       8.526   1.664  24.454  0.00  0.00    +0.128 C 
ATOM      3  N   UNL     1       7.069   1.465  24.650  0.00  0.00    -0.273 N 
ATOM      4  C   UNL     1       6.421   0.302  25.084  0.00  0.00    +0.248 C 
ATOM      5  O   UNL     1       5.205   0.339  25.304  0.00  0.00    -0.270 OA
ATOM      6  C   UNL     1       6.332   2.782  24.484  0.00  0.00    +0.136 C 
ATOM      7  C   UNL     1       7.419   3.676  23.830  0.00  0.00    +0.054 C 
ENDROOT
BRANCH   4   8
ATOM      8  C   UNL     1       7.079  -1.043  25.208  0.00  0.00    +0.037 A 
ATOM      9  C   UNL     1       6.892  -1.964  24.155  0.00  0.00    +0.013 A 
ATOM     10  C   UNL     1       7.450  -3.253  24.204  0.00  0.00    +0.013 A 
ATOM     11  C   UNL     1       8.229  -3.650  25.299  0.00  0.00    +0.055 A 
ATOM     12  C   UNL     1       8.389  -2.749  26.356  0.00  0.00    +0.013 A 
ATOM     13  C   UNL     1       7.794  -1.480  26.322  0.00  0.00    +0.013 A 
BRANCH  11  14
ATOM     14  C   UNL     1       8.845  -5.030  25.353  0.00  0.00    +0.417 C 
ATOM     15  F   UNL     1      10.163  -5.006  25.699  0.00  0.00    -0.166 F 
ATOM     16  F   UNL     1       8.785  -5.681  24.156  0.00  0.00    -0.166 F 
ATOM     17  F   UNL     1       8.240  -5.855  26.253  0.00  0.00    -0.166 F 
ENDBRANCH  11  14
ENDBRANCH   4   8
BRANCH   2  18
ATOM     18  C   UNL     1       9.043   0.861  23.280  0.00  0.00    +0.011 A 
ATOM     19  S   UNL     1       8.452   1.039  21.678  0.00  0.00    -0.100 S 
ATOM     20  C   UNL     1       9.338  -0.313  21.123  0.00  0.00    +0.045 A 
ATOM     21  C   UNL     1      10.152  -0.832  22.099  0.00  0.00    +0.008 A 
ATOM     22  C   UNL     1       9.989  -0.151  23.337  0.00  0.00    +0.013 A 
ENDBRANCH   2  18
BRANCH   1  23
ATOM     23  C   UNL     1       9.998   3.663  23.755  0.00  0.00    +0.310 C 
ATOM     24  O   UNL     1      11.056   3.060  23.849  0.00  0.00    -0.251 OA
BRANCH  23  25
ATOM     25  O   UNL     1       9.940   4.885  23.182  0.00  0.00    -0.480 OA
ATOM     26  H   UNL     1       9.607   4.948  22.268  0.00  0.00    +0.295 HD
ENDBRANCH  23  25
ENDBRANCH   1  23
BRANCH   6  27
ATOM     27  C   UNL     1       5.158   2.770  23.453  0.00  0.00    +0.329 C 
ATOM     28  O   UNL     1       5.279   3.149  22.293  0.00  0.00    -0.249 OA
BRANCH  27  29
ATOM     29  O   UNL     1       3.944   2.413  23.921  0.00  0.00    -0.479 OA
ATOM     30  H   UNL     1       3.953   2.195  24.890  0.00  0.00    +0.295 HD
ENDBRANCH  27  29
ENDBRANCH   6  27
BRANCH   6  31
ATOM     31  C   UNL     1       5.899   3.315  25.893  0.00  0.00    +0.040 C 
BRANCH  31  32
ATOM     32  C   UNL     1       6.972   3.521  26.995  0.00  0.00    -0.015 C 
ATOM     33  C   UNL     1       6.803   2.474  28.109  0.00  0.00    +0.007 C 
ATOM     34  C   UNL     1       6.928   4.907  27.636  0.00  0.00    +0.007 C 
ENDBRANCH  31  32
ENDBRANCH   6  31
TORSDOF 9
ENDMDL
MODEL 6
REMARK VINA RESULT:      -5.9      1.922      2.568
REMARK  Name = 
REMARK  11 active torsions:
REMARK  status: ('A' for Active; 'I' for Inactive)
REMARK    1  A    between atoms: C_2  and  C_32
REMARK    2  A    between atoms: C_4  and  C_5
REMARK    3  A    between atoms: C_4  and  C_29
REMARK    4  A    between atoms: C_5  and  C_6
REMARK    5  A    between atoms: C_6  and  C_7
REMARK    6  A    between atoms: C_6  and  C_8
REMARK    7  A    between atoms: C_10  and  C_12
REMARK    8  A    between atoms: C_15  and  C_18
REMARK    9  A    between atoms: C_22  and  C_24
REMARK   10  A    between atoms: C_29  and  O_30
REMARK   11  A    between atoms: C_32  and  O_33
REMARK                            x       y       z     vdW  Elec       q    Type
REMARK                         _______ _______ _______ _____ _____    ______ ____
ROOT
ATOM      1  C   UNL     1       5.867  -1.393  25.464  0.00  0.00    +0.125 C 
ATOM      2  C   UNL     1       5.278  -2.797  25.262  0.00  0.00    +0.128 C 
ATOM      3  N   UNL     1       6.370  -3.594  24.650  0.00  0.00    -0.273 N 
ATOM      4  C   UNL     1       6.254  -4.813  23.970  0.00  0.00    +0.248 C 
ATOM      5  O   UNL     1       7.252  -5.291  23.420  0.00  0.00    -0.270 OA
ATOM      6  C   UNL     1       7.675  -2.820  24.697  0.00  0.00    +0.136 C 
ATOM      7  C   UNL     1       7.334  -1.679  25.692  0.00  0.00    +0.054 C 
ENDROOT
BRANCH   4   8
ATOM      8  C   UNL     1       5.010  -5.655  23.939  0.00  0.00    +0.037 A 
ATOM      9  C   UNL     1       4.879  -6.666  24.917  0.00  0.00    +0.013 A 
ATOM     10  C   UNL     1       3.760  -7.517  24.943  0.00  0.00    +0.013 A 
ATOM     11  C   UNL     1       2.731  -7.366  24.004  0.00  0.00    +0.055 A 
ATOM     12  C   UNL     1       2.874  -6.386  23.018  0.00  0.00    +0.013 A 
ATOM     13  C   UNL     1       4.013  -5.569  22.969  0.00  0.00    +0.013 A 
BRANCH  11  14
ATOM     14  C   UNL     1       1.516  -8.267  24.034  0.00  0.00    +0.417 C 
ATOM     15  F   UNL     1       0.443  -7.686  24.640  0.00  0.00    -0.166 F 
ATOM     16  F   UNL     1       1.741  -9.431  24.709  0.00  0.00    -0.166 F 
ATOM     17  F   UNL     1       1.088  -8.636  22.794  0.00  0.00    -0.166 F 
ENDBRANCH  11  14
ENDBRANCH   4   8
BRANCH   2  18
ATOM     18  C   UNL     1       4.694  -3.492  26.473  0.00  0.00    +0.011 A 
ATOM     19  S   UNL     1       5.651  -4.153  27.737  0.00  0.00    -0.100 S 
ATOM     20  C   UNL     1       4.296  -4.891  28.474  0.00  0.00    +0.045 A 
ATOM     21  C   UNL     1       3.122  -4.560  27.843  0.00  0.00    +0.008 A 
ATOM     22  C   UNL     1       3.351  -3.748  26.697  0.00  0.00    +0.013 A 
ENDBRANCH   2  18
BRANCH   1  23
ATOM     23  C   UNL     1       5.165  -0.531  26.487  0.00  0.00    +0.310 C 
ATOM     24  O   UNL     1       4.117   0.051  26.254  0.00  0.00    -0.251 OA
BRANCH  23  25
ATOM     25  O   UNL     1       5.846  -0.308  27.633  0.00  0.00    -0.480 OA
ATOM     26  H   UNL     1       6.819  -0.279  27.590  0.00  0.00    +0.295 HD
ENDBRANCH  23  25
ENDBRANCH   1  23
BRANCH   6  27
ATOM     27  C   UNL     1       8.879  -3.570  25.353  0.00  0.00    +0.329 C 
ATOM     28  O   UNL     1       9.002  -3.711  26.564  0.00  0.00    -0.249 OA
BRANCH  27  29
ATOM     29  O   UNL     1       9.860  -3.983  24.524  0.00  0.00    -0.479 OA
ATOM     30  H   UNL     1      10.646  -3.375  24.523  0.00  0.00    +0.295 HD
ENDBRANCH  27  29
ENDBRANCH   6  27
BRANCH   6  31
ATOM     31  C   UNL     1       8.006  -2.275  23.265  0.00  0.00    +0.040 C 
BRANCH  31  32
ATOM     32  C   UNL     1       8.883  -1.003  23.114  0.00  0.00    -0.015 C 
ATOM     33  C   UNL     1       8.031   0.180  22.623  0.00  0.00    +0.007 C 
ATOM     34  C   UNL     1      10.052  -1.181  22.149  0.00  0.00    +0.007 C 
ENDBRANCH  31  32
ENDBRANCH   6  31
TORSDOF 9
ENDMDL
MODEL 7
REMARK VINA RESULT:      -5.9      2.450      3.374
REMARK  Name = 
REMARK  11 active torsions:
REMARK  status: ('A' for Active; 'I' for Inactive)
REMARK    1  A    between atoms: C_2  and  C_32
REMARK    2  A    between atoms: C_4  and  C_5
REMARK    3  A    between atoms: C_4  and  C_29
REMARK    4  A    between atoms: C_5  and  C_6
REMARK    5  A    between atoms: C_6  and  C_7
REMARK    6  A    between atoms: C_6  and  C_8
REMARK    7  A    between atoms: C_10  and  C_12
REMARK    8  A    between atoms: C_15  and  C_18
REMARK    9  A    between atoms: C_22  and  C_24
REMARK   10  A    between atoms: C_29  and  O_30
REMARK   11  A    between atoms: C_32  and  O_33
REMARK                            x       y       z     vdW  Elec       q    Type
REMARK                         _______ _______ _______ _____ _____    ______ ____
ROOT
ATOM      1  C   UNL     1       6.731   1.753  25.358  0.00  0.00    +0.125 C 
ATOM      2  C   UNL     1       6.874   0.356  24.737  0.00  0.00    +0.128 C 
ATOM      3  N   UNL     1       7.754   0.542  23.556  0.00  0.00    -0.273 N 
ATOM      4  C   UNL     1       7.920  -0.332  22.474  0.00  0.00    +0.248 C 
ATOM      5  O   UNL     1       8.608   0.028  21.513  0.00  0.00    -0.270 OA
ATOM      6  C   UNL     1       8.359   1.934  23.566  0.00  0.00    +0.136 C 
ATOM      7  C   UNL     1       8.050   2.406  25.012  0.00  0.00    +0.054 C 
ENDROOT
BRANCH   4   8
ATOM      8  C   UNL     1       7.400  -1.741  22.430  0.00  0.00    +0.037 A 
ATOM      9  C   UNL     1       8.323  -2.786  22.654  0.00  0.00    +0.013 A 
ATOM     10  C   UNL     1       7.926  -4.134  22.603  0.00  0.00    +0.013 A 
ATOM     11  C   UNL     1       6.590  -4.473  22.349  0.00  0.00    +0.055 A 
ATOM     12  C   UNL     1       5.683  -3.439  22.098  0.00  0.00    +0.013 A 
ATOM     13  C   UNL     1       6.093  -2.098  22.106  0.00  0.00    +0.013 A 
BRANCH  11  14
ATOM     14  C   UNL     1       6.152  -5.920  22.308  0.00  0.00    +0.417 C 
ATOM     15  F   UNL     1       5.473  -6.297  23.428  0.00  0.00    -0.166 F 
ATOM     16  F   UNL     1       7.201  -6.785  22.197  0.00  0.00    -0.166 F 
ATOM     17  F   UNL     1       5.327  -6.203  21.261  0.00  0.00    -0.166 F 
ENDBRANCH  11  14
ENDBRANCH   4   8
BRANCH   2  18
ATOM     18  C   UNL     1       7.372  -0.759  25.630  0.00  0.00    +0.011 A 
ATOM     19  S   UNL     1       8.978  -0.844  26.232  0.00  0.00    -0.100 S 
ATOM     20  C   UNL     1       8.735  -2.412  26.868  0.00  0.00    +0.045 A 
ATOM     21  C   UNL     1       7.434  -2.829  26.727  0.00  0.00    +0.008 A 
ATOM     22  C   UNL     1       6.649  -1.875  26.023  0.00  0.00    +0.013 A 
ENDBRANCH   2  18
BRANCH   1  23
ATOM     23  C   UNL     1       6.306   1.783  26.808  0.00  0.00    +0.310 C 
ATOM     24  O   UNL     1       5.151   1.604  27.162  0.00  0.00    -0.251 OA
BRANCH  23  25
ATOM     25  O   UNL     1       7.252   2.178  27.689  0.00  0.00    -0.480 OA
ATOM     26  H   UNL     1       7.561   1.532  28.350  0.00  0.00    +0.295 HD
ENDBRANCH  23  25
ENDBRANCH   1  23
BRANCH   6  27
ATOM     27  C   UNL     1       9.916   1.992  23.455  0.00  0.00    +0.329 C 
ATOM     28  O   UNL     1      10.666   1.669  24.370  0.00  0.00    -0.249 OA
BRANCH  27  29
ATOM     29  O   UNL     1      10.424   2.521  22.323  0.00  0.00    -0.479 OA
ATOM     30  H   UNL     1      11.041   3.280  22.494  0.00  0.00    +0.295 HD
ENDBRANCH  27  29
ENDBRANCH   6  27
BRANCH   6  31
ATOM     31  C   UNL     1       7.639   2.819  22.491  0.00  0.00    +0.040 C 
BRANCH  31  32
ATOM     32  C   UNL     1       6.866   4.089  22.938  0.00  0.00    -0.015 C 
ATOM     33  C   UNL     1       5.357   3.908  22.702  0.00  0.00    +0.007 C 
ATOM     34  C   UNL     1       7.311   5.359  22.215  0.00  0.00    +0.007 C 
ENDBRANCH  31  32
ENDBRANCH   6  31
TORSDOF 9
ENDMDL
MODEL 8
REMARK VINA RESULT:      -5.8      2.464      4.161
REMARK  Name = 
REMARK  11 active torsions:
REMARK  status: ('A' for Active; 'I' for Inactive)
REMARK    1  A    between atoms: C_2  and  C_32
REMARK    2  A    between atoms: C_4  and  C_5
REMARK    3  A    between atoms: C_4  and  C_29
REMARK    4  A    between atoms: C_5  and  C_6
REMARK    5  A    between atoms: C_6  and  C_7
REMARK    6  A    between atoms: C_6  and  C_8
REMARK    7  A    between atoms: C_10  and  C_12
REMARK    8  A    between atoms: C_15  and  C_18
REMARK    9  A    between atoms: C_22  and  C_24
REMARK   10  A    between atoms: C_29  and  O_30
REMARK   11  A    between atoms: C_32  and  O_33
REMARK                            x       y       z     vdW  Elec       q    Type
REMARK                         _______ _______ _______ _____ _____    ______ ____
ROOT
ATOM      1  C   UNL     1       8.199  -3.244  25.246  0.00  0.00    +0.125 C 
ATOM      2  C   UNL     1       6.869  -3.901  24.852  0.00  0.00    +0.128 C 
ATOM      3  N   UNL     1       5.837  -2.858  25.071  0.00  0.00    -0.273 N 
ATOM      4  C   UNL     1       4.454  -3.042  25.186  0.00  0.00    +0.248 C 
ATOM      5  O   UNL     1       3.742  -2.076  25.482  0.00  0.00    -0.270 OA
ATOM      6  C   UNL     1       6.496  -1.517  25.341  0.00  0.00    +0.136 C 
ATOM      7  C   UNL     1       7.962  -1.788  24.910  0.00  0.00    +0.054 C 
ENDROOT
BRANCH   4   8
ATOM      8  C   UNL     1       3.737  -4.325  24.872  0.00  0.00    +0.037 A 
ATOM      9  C   UNL     1       3.676  -5.305  25.886  0.00  0.00    +0.013 A 
ATOM     10  C   UNL     1       3.049  -6.544  25.667  0.00  0.00    +0.013 A 
ATOM     11  C   UNL     1       2.446  -6.828  24.434  0.00  0.00    +0.055 A 
ATOM     12  C   UNL     1       2.533  -5.870  23.421  0.00  0.00    +0.013 A 
ATOM     13  C   UNL     1       3.198  -4.653  23.629  0.00  0.00    +0.013 A 
BRANCH  11  14
ATOM     14  C   UNL     1       1.756  -8.153  24.195  0.00  0.00    +0.417 C 
ATOM     15  F   UNL     1       2.332  -9.178  24.884  0.00  0.00    -0.166 F 
ATOM     16  F   UNL     1       1.775  -8.527  22.884  0.00  0.00    -0.166 F 
ATOM     17  F   UNL     1       0.444  -8.151  24.561  0.00  0.00    -0.166 F 
ENDBRANCH  11  14
ENDBRANCH   4   8
BRANCH   2  18
ATOM     18  C   UNL     1       6.768  -4.499  23.465  0.00  0.00    +0.011 A 
ATOM     19  S   UNL     1       6.602  -3.558  22.038  0.00  0.00    -0.100 S 
ATOM     20  C   UNL     1       6.329  -4.941  21.071  0.00  0.00    +0.045 A 
ATOM     21  C   UNL     1       6.465  -6.105  21.786  0.00  0.00    +0.008 A 
ATOM     22  C   UNL     1       6.727  -5.851  23.161  0.00  0.00    +0.013 A 
ENDBRANCH   2  18
BRANCH   1  23
ATOM     23  C   UNL     1       9.442  -3.889  24.676  0.00  0.00    +0.310 C 
ATOM     24  O   UNL     1       9.824  -4.998  25.013  0.00  0.00    -0.251 OA
BRANCH  23  25
ATOM     25  O   UNL     1      10.201  -3.101  23.884  0.00  0.00    -0.480 OA
ATOM     26  H   UNL     1      10.040  -2.140  23.902  0.00  0.00    +0.295 HD
ENDBRANCH  23  25
ENDBRANCH   1  23
BRANCH   6  27
ATOM     27  C   UNL     1       6.026  -0.340  24.426  0.00  0.00    +0.329 C 
ATOM     28  O   UNL     1       6.636   0.014  23.423  0.00  0.00    -0.249 OA
BRANCH  27  29
ATOM     29  O   UNL     1       4.951   0.360  24.843  0.00  0.00    -0.479 OA
ATOM     30  H   UNL     1       4.319   0.570  24.107  0.00  0.00    +0.295 HD
ENDBRANCH  27  29
ENDBRANCH   6  27
BRANCH   6  31
ATOM     31  C   UNL     1       6.382  -1.182  26.868  0.00  0.00    +0.040 C 
BRANCH  31  32
ATOM     32  C   UNL     1       6.692   0.256  27.361  0.00  0.00    -0.015 C 
ATOM     33  C   UNL     1       8.063   0.301  28.058  0.00  0.00    +0.007 C 
ATOM     34  C   UNL     1       5.648   0.806  28.331  0.00  0.00    +0.007 C 
ENDBRANCH  31  32
ENDBRANCH   6  31
TORSDOF 9
ENDMDL
MODEL 9
REMARK VINA RESULT:      -5.8      3.568      5.513
REMARK  Name = 
REMARK  11 active torsions:
REMARK  status: ('A' for Active; 'I' for Inactive)
REMARK    1  A    between atoms: C_2  and  C_32
REMARK    2  A    between atoms: C_4  and  C_5
REMARK    3  A    between atoms: C_4  and  C_29
REMARK    4  A    between atoms: C_5  and  C_6
REMARK    5  A    between atoms: C_6  and  C_7
REMARK    6  A    between atoms: C_6  and  C_8
REMARK    7  A    between atoms: C_10  and  C_12
REMARK    8  A    between atoms: C_15  and  C_18
REMARK    9  A    between atoms: C_22  and  C_24
REMARK   10  A    between atoms: C_29  and  O_30
REMARK   11  A    between atoms: C_32  and  O_33
REMARK                            x       y       z     vdW  Elec       q    Type
REMARK                         _______ _______ _______ _____ _____    ______ ____
ROOT
ATOM      1  C   UNL     1       8.814   2.708  24.385  0.00  0.00    +0.125 C 
ATOM      2  C   UNL     1       8.360   1.248  24.534  0.00  0.00    +0.128 C 
ATOM      3  N   UNL     1       6.881   1.307  24.629  0.00  0.00    -0.273 N 
ATOM      4  C   UNL     1       6.020   0.310  25.105  0.00  0.00    +0.248 C 
ATOM      5  O   UNL     1       4.816   0.563  25.223  0.00  0.00    -0.270 OA
ATOM      6  C   UNL     1       6.388   2.703  24.295  0.00  0.00    +0.136 C 
ATOM      7  C   UNL     1       7.650   3.343  23.658  0.00  0.00    +0.054 C 
ENDROOT
BRANCH   4   8
ATOM      8  C   UNL     1       6.433  -1.105  25.393  0.00  0.00    +0.037 A 
ATOM      9  C   UNL     1       6.056  -2.100  24.465  0.00  0.00    +0.013 A 
ATOM     10  C   UNL     1       6.378  -3.453  24.673  0.00  0.00    +0.013 A 
ATOM     11  C   UNL     1       7.106  -3.845  25.804  0.00  0.00    +0.055 A 
ATOM     12  C   UNL     1       7.453  -2.865  26.738  0.00  0.00    +0.013 A 
ATOM     13  C   UNL     1       7.091  -1.523  26.549  0.00  0.00    +0.013 A 
BRANCH  11  14
ATOM     14  C   UNL     1       7.470  -5.296  26.028  0.00  0.00    +0.417 C 
ATOM     15  F   UNL     1       7.871  -5.547  27.306  0.00  0.00    -0.166 F 
ATOM     16  F   UNL     1       8.493  -5.712  25.227  0.00  0.00    -0.166 F 
ATOM     17  F   UNL     1       6.439  -6.153  25.786  0.00  0.00    -0.166 F 
ENDBRANCH  11  14
ENDBRANCH   4   8
BRANCH   2  18
ATOM     18  C   UNL     1       8.811   0.264  23.477  0.00  0.00    +0.011 A 
ATOM     19  S   UNL     1       9.810  -1.093  23.811  0.00  0.00    -0.100 S 
ATOM     20  C   UNL     1      10.001  -1.453  22.151  0.00  0.00    +0.045 A 
ATOM     21  C   UNL     1       9.240  -0.633  21.355  0.00  0.00    +0.008 A 
ATOM     22  C   UNL     1       8.549   0.349  22.118  0.00  0.00    +0.013 A 
ENDBRANCH   2  18
BRANCH   1  23
ATOM     23  C   UNL     1      10.190   2.907  23.792  0.00  0.00    +0.310 C 
ATOM     24  O   UNL     1      11.141   2.196  24.075  0.00  0.00    -0.251 OA
BRANCH  23  25
ATOM     25  O   UNL     1      10.351   4.022  23.045  0.00  0.00    -0.480 OA
ATOM     26  H   UNL     1      10.412   3.921  22.077  0.00  0.00    +0.295 HD
ENDBRANCH  23  25
ENDBRANCH   1  23
BRANCH   6  27
ATOM     27  C   UNL     1       5.299   2.783  23.178  0.00  0.00    +0.329 C 
ATOM     28  O   UNL     1       5.540   3.135  22.029  0.00  0.00    -0.249 OA
BRANCH  27  29
ATOM     29  O   UNL     1       4.026   2.541  23.554  0.00  0.00    -0.479 OA
ATOM     30  H   UNL     1       3.540   1.952  22.918  0.00  0.00    +0.295 HD
ENDBRANCH  27  29
ENDBRANCH   6  27
BRANCH   6  31
ATOM     31  C   UNL     1       5.960   3.431  25.615  0.00  0.00    +0.040 C 
BRANCH  31  32
ATOM     32  C   UNL     1       6.249   4.947  25.781  0.00  0.00    -0.015 C 
ATOM     33  C   UNL     1       6.536   5.279  27.256  0.00  0.00    +0.007 C 
ATOM     34  C   UNL     1       5.106   5.841  25.307  0.00  0.00    +0.007 C 
ENDBRANCH  31  32
ENDBRANCH   6  31
TORSDOF 9
ENDMDL
