MODEL 1
REMARK VINA RESULT:      -7.5      0.000      0.000
REMARK  Name = 
REMARK  7 active torsions:
REMARK  status: ('A' for Active; 'I' for Inactive)
REMARK    1  A    between atoms: C_1  and  C_2
REMARK    2  A    between atoms: C_2  and  N_4
REMARK    3  A    between atoms: C_2  and  C_11
REMARK    4  A    between atoms: C_11  and  O_12
REMARK    5  A    between atoms: C_11  and  C_13
REMARK    6  A    between atoms: C_11  and  C_19
REMARK    7  A    between atoms: C_13  and  N_14
REMARK                            x       y       z     vdW  Elec       q    Type
REMARK                         _______ _______ _______ _____ _____    ______ ____
ROOT
ATOM      1  C   UNL     1       9.222  -1.694  22.939  0.00  0.00    +0.128 C 
ENDROOT
BRANCH   1   2
ATOM      2  C   UNL     1       9.611  -0.211  23.031  0.00  0.00    +0.022 A 
ATOM      3  C   UNL     1       9.812   0.601  21.904  0.00  0.00    +0.012 A 
ATOM      4  C   UNL     1       9.988   1.984  22.034  0.00  0.00    +0.039 A 
ATOM      5  C   UNL     1       9.997   2.566  23.294  0.00  0.00    +0.126 A 
ATOM      6  F   UNL     1      10.104   3.895  23.408  0.00  0.00    -0.205 F 
ATOM      7  C   UNL     1       9.891   1.787  24.433  0.00  0.00    +0.077 A 
ATOM      8  C   UNL     1       9.725   0.413  24.291  0.00  0.00    +0.132 A 
ATOM      9  F   UNL     1       9.625  -0.324  25.406  0.00  0.00    -0.205 F 
ENDBRANCH   1   2
BRANCH   1  11
ATOM     10  C   UNL     1       6.811  -0.781  23.384  0.00  0.00    +0.027 C 
ATOM     11  C   UNL     1       7.649  -2.049  23.097  0.00  0.00    +0.092 C 
BRANCH  11  12
ATOM     12  N   UNL     1       7.012  -3.020  22.169  0.00  0.00    -0.296 NA
ATOM     13  C   UNL     1       5.561  -3.059  21.989  0.00  0.00    +0.089 C 
ATOM     14  C   UNL     1       4.726  -3.815  23.027  0.00  0.00    +0.045 C 
ATOM     15  C   UNL     1       5.328  -5.121  23.473  0.00  0.00    -0.074 C 
ATOM     16  C   UNL     1       4.555  -6.093  23.986  0.00  0.00    +0.008 C 
ATOM     17  C   UNL     1       6.826  -5.279  23.370  0.00  0.00    +0.045 C 
ATOM     18  C   UNL     1       7.501  -4.408  22.293  0.00  0.00    +0.089 C 
ENDBRANCH  11  12
ENDBRANCH   1  11
BRANCH   1  19
ATOM     19  O   UNL     1       9.500  -2.010  21.534  0.00  0.00    -0.380 OA
ATOM     20  H   UNL     1       9.974  -1.259  21.132  0.00  0.00    +0.211 HD
ENDBRANCH   1  19
BRANCH   1  21
ATOM     21  C   UNL     1      10.149  -2.638  23.772  0.00  0.00    +0.186 C 
BRANCH  21  22
ATOM     22  N   UNL     1       9.634  -3.496  24.814  0.00  0.00    -0.249 N 
ATOM     23  N   UNL     1      10.083  -4.771  24.865  0.00  0.00    -0.158 NA
ATOM     24  C   UNL     1       9.433  -5.250  25.921  0.00  0.00    +0.244 A 
ATOM     25  N   UNL     1       8.604  -4.366  26.546  0.00  0.00    -0.223 NA
ATOM     26  C   UNL     1       8.757  -3.271  25.830  0.00  0.00    +0.219 A 
ENDBRANCH  21  22
ENDBRANCH   1  21
TORSDOF 6
ENDMDL
MODEL 2
REMARK VINA RESULT:      -7.4      2.823      6.138
REMARK  Name = 
REMARK  7 active torsions:
REMARK  status: ('A' for Active; 'I' for Inactive)
REMARK    1  A    between atoms: C_1  and  C_2
REMARK    2  A    between atoms: C_2  and  N_4
REMARK    3  A    between atoms: C_2  and  C_11
REMARK    4  A    between atoms: C_11  and  O_12
REMARK    5  A    between atoms: C_11  and  C_13
REMARK    6  A    between atoms: C_11  and  C_19
REMARK    7  A    between atoms: C_13  and  N_14
REMARK                            x       y       z     vdW  Elec       q    Type
REMARK                         _______ _______ _______ _____ _____    ______ ____
ROOT
ATOM      1  C   UNL     1       7.120  -2.196  24.965  0.00  0.00    +0.128 C 
ENDROOT
BRANCH   1   2
ATOM      2  C   UNL     1       6.714  -3.322  24.003  0.00  0.00    +0.022 A 
ATOM      3  C   UNL     1       5.380  -3.596  23.660  0.00  0.00    +0.012 A 
ATOM      4  C   UNL     1       5.070  -4.510  22.647  0.00  0.00    +0.039 A 
ATOM      5  C   UNL     1       6.087  -5.184  21.986  0.00  0.00    +0.126 A 
ATOM      6  F   UNL     1       5.786  -6.011  20.978  0.00  0.00    -0.205 F 
ATOM      7  C   UNL     1       7.409  -5.008  22.356  0.00  0.00    +0.077 A 
ATOM      8  C   UNL     1       7.704  -4.104  23.371  0.00  0.00    +0.132 A 
ATOM      9  F   UNL     1       8.990  -3.947  23.715  0.00  0.00    -0.205 F 
ENDBRANCH   1   2
BRANCH   1  11
ATOM     10  C   UNL     1       7.147  -0.326  23.136  0.00  0.00    +0.027 C 
ATOM     11  C   UNL     1       7.920  -0.941  24.325  0.00  0.00    +0.092 C 
BRANCH  11  12
ATOM     12  N   UNL     1       8.580   0.049  25.217  0.00  0.00    -0.296 NA
ATOM     13  C   UNL     1       8.161   1.449  25.239  0.00  0.00    +0.089 C 
ATOM     14  C   UNL     1       8.698   2.381  24.148  0.00  0.00    +0.045 C 
ATOM     15  C   UNL     1      10.154   2.178  23.823  0.00  0.00    -0.074 C 
ATOM     16  C   UNL     1      10.877   3.166  23.269  0.00  0.00    +0.008 C 
ATOM     17  C   UNL     1      10.754   0.820  24.094  0.00  0.00    +0.045 C 
ATOM     18  C   UNL     1      10.057   0.008  25.203  0.00  0.00    +0.089 C 
ENDBRANCH  11  12
ENDBRANCH   1  11
BRANCH   1  19
ATOM     19  O   UNL     1       5.826  -1.616  25.341  0.00  0.00    -0.380 OA
ATOM     20  H   UNL     1       5.586  -0.934  24.687  0.00  0.00    +0.211 HD
ENDBRANCH   1  19
BRANCH   1  21
ATOM     21  C   UNL     1       7.752  -2.708  26.299  0.00  0.00    +0.186 C 
BRANCH  21  22
ATOM     22  N   UNL     1       7.331  -3.941  26.924  0.00  0.00    -0.249 N 
ATOM     23  N   UNL     1       6.114  -3.968  27.516  0.00  0.00    -0.158 NA
ATOM     24  C   UNL     1       6.050  -5.221  27.957  0.00  0.00    +0.244 A 
ATOM     25  N   UNL     1       7.142  -5.992  27.684  0.00  0.00    -0.223 NA
ATOM     26  C   UNL     1       7.925  -5.161  27.028  0.00  0.00    +0.219 A 
ENDBRANCH  21  22
ENDBRANCH   1  21
TORSDOF 6
ENDMDL
MODEL 3
REMARK VINA RESULT:      -7.3      2.947      5.951
REMARK  Name = 
REMARK  7 active torsions:
REMARK  status: ('A' for Active; 'I' for Inactive)
REMARK    1  A    between atoms: C_1  and  C_2
REMARK    2  A    between atoms: C_2  and  N_4
REMARK    3  A    between atoms: C_2  and  C_11
REMARK    4  A    between atoms: C_11  and  O_12
REMARK    5  A    between atoms: C_11  and  C_13
REMARK    6  A    between atoms: C_11  and  C_19
REMARK    7  A    between atoms: C_13  and  N_14
REMARK                            x       y       z     vdW  Elec       q    Type
REMARK                         _______ _______ _______ _____ _____    ______ ____
ROOT
ATOM      1  C   UNL     1       7.050  -3.369  24.984  0.00  0.00    +0.128 C 
ENDROOT
BRANCH   1   2
ATOM      2  C   UNL     1       6.925  -4.009  23.593  0.00  0.00    +0.022 A 
ATOM      3  C   UNL     1       7.437  -5.279  23.284  0.00  0.00    +0.012 A 
ATOM      4  C   UNL     1       7.146  -5.896  22.061  0.00  0.00    +0.039 A 
ATOM      5  C   UNL     1       6.366  -5.237  21.121  0.00  0.00    +0.126 A 
ATOM      6  F   UNL     1       6.041  -5.856  19.981  0.00  0.00    -0.205 F 
ATOM      7  C   UNL     1       5.917  -3.948  21.353  0.00  0.00    +0.077 A 
ATOM      8  C   UNL     1       6.221  -3.343  22.568  0.00  0.00    +0.132 A 
ATOM      9  F   UNL     1       5.778  -2.095  22.774  0.00  0.00    -0.205 F 
ENDBRANCH   1   2
BRANCH   1  11
ATOM     10  C   UNL     1       7.119  -1.087  26.261  0.00  0.00    +0.027 C 
ATOM     11  C   UNL     1       7.666  -1.872  25.046  0.00  0.00    +0.092 C 
BRANCH  11  12
ATOM     12  N   UNL     1       9.109  -1.652  24.762  0.00  0.00    -0.296 NA
ATOM     13  C   UNL     1       9.791  -0.434  25.196  0.00  0.00    +0.089 C 
ATOM     14  C   UNL     1       9.640   0.824  24.335  0.00  0.00    +0.045 C 
ATOM     15  C   UNL     1       9.712   0.571  22.852  0.00  0.00    -0.074 C 
ATOM     16  C   UNL     1      10.061   1.553  22.005  0.00  0.00    +0.008 C 
ATOM     17  C   UNL     1       9.334  -0.802  22.352  0.00  0.00    +0.045 C 
ATOM     18  C   UNL     1       9.517  -1.942  23.372  0.00  0.00    +0.089 C 
ENDBRANCH  11  12
ENDBRANCH   1  11
BRANCH   1  19
ATOM     19  O   UNL     1       5.650  -3.176  25.372  0.00  0.00    -0.380 OA
ATOM     20  H   UNL     1       5.094  -3.794  24.863  0.00  0.00    +0.211 HD
ENDBRANCH   1  19
BRANCH   1  21
ATOM     21  C   UNL     1       7.655  -4.325  26.062  0.00  0.00    +0.186 C 
BRANCH  21  22
ATOM     22  N   UNL     1       6.838  -5.249  26.814  0.00  0.00    -0.249 N 
ATOM     23  N   UNL     1       6.929  -5.223  28.164  0.00  0.00    -0.158 NA
ATOM     24  C   UNL     1       6.056  -6.161  28.517  0.00  0.00    +0.244 A 
ATOM     25  N   UNL     1       5.415  -6.779  27.485  0.00  0.00    -0.223 NA
ATOM     26  C   UNL     1       5.922  -6.180  26.429  0.00  0.00    +0.219 A 
ENDBRANCH  21  22
ENDBRANCH   1  21
TORSDOF 6
ENDMDL
MODEL 4
REMARK VINA RESULT:      -7.1      2.612      6.229
REMARK  Name = 
REMARK  7 active torsions:
REMARK  status: ('A' for Active; 'I' for Inactive)
REMARK    1  A    between atoms: C_1  and  C_2
REMARK    2  A    between atoms: C_2  and  N_4
REMARK    3  A    between atoms: C_2  and  C_11
REMARK    4  A    between atoms: C_11  and  O_12
REMARK    5  A    between atoms: C_11  and  C_13
REMARK    6  A    between atoms: C_11  and  C_19
REMARK    7  A    between atoms: C_13  and  N_14
REMARK                            x       y       z     vdW  Elec       q    Type
REMARK                         _______ _______ _______ _____ _____    ______ ____
ROOT
ATOM      1  C   UNL     1       8.529  -2.591  23.804  0.00  0.00    +0.128 C 
ENDROOT
BRANCH   1   2
ATOM      2  C   UNL     1       7.961  -3.456  24.939  0.00  0.00    +0.022 A 
ATOM      3  C   UNL     1       8.655  -4.540  25.499  0.00  0.00    +0.012 A 
ATOM      4  C   UNL     1       8.178  -5.185  26.646  0.00  0.00    +0.039 A 
ATOM      5  C   UNL     1       6.987  -4.776  27.227  0.00  0.00    +0.126 A 
ATOM      6  F   UNL     1       6.568  -5.357  28.358  0.00  0.00    -0.205 F 
ATOM      7  C   UNL     1       6.229  -3.770  26.654  0.00  0.00    +0.077 A 
ATOM      8  C   UNL     1       6.709  -3.142  25.509  0.00  0.00    +0.132 A 
ATOM      9  F   UNL     1       5.961  -2.171  24.967  0.00  0.00    -0.205 F 
ENDBRANCH   1   2
BRANCH   1  11
ATOM     10  C   UNL     1       9.426  -0.696  25.367  0.00  0.00    +0.027 C 
ATOM     11  C   UNL     1       8.628  -0.997  24.079  0.00  0.00    +0.092 C 
BRANCH  11  12
ATOM     12  N   UNL     1       8.892  -0.066  22.950  0.00  0.00    -0.296 NA
ATOM     13  C   UNL     1      10.182   0.608  22.807  0.00  0.00    +0.089 C 
ATOM     14  C   UNL     1      10.432   1.870  23.638  0.00  0.00    +0.045 C 
ATOM     15  C   UNL     1       9.253   2.803  23.716  0.00  0.00    -0.074 C 
ATOM     16  C   UNL     1       9.428   4.109  23.982  0.00  0.00    +0.008 C 
ATOM     17  C   UNL     1       7.875   2.216  23.533  0.00  0.00    +0.045 C 
ATOM     18  C   UNL     1       7.823   0.921  22.698  0.00  0.00    +0.089 C 
ENDBRANCH  11  12
ENDBRANCH   1  11
BRANCH   1  19
ATOM     19  O   UNL     1       9.932  -3.013  23.753  0.00  0.00    -0.380 OA
ATOM     20  H   UNL     1      10.280  -2.840  22.859  0.00  0.00    +0.211 HD
ENDBRANCH   1  19
BRANCH   1  21
ATOM     21  C   UNL     1       7.938  -2.934  22.398  0.00  0.00    +0.186 C 
BRANCH  21  22
ATOM     22  N   UNL     1       7.008  -4.021  22.202  0.00  0.00    -0.249 N 
ATOM     23  N   UNL     1       7.510  -5.272  22.083  0.00  0.00    -0.158 NA
ATOM     24  C   UNL     1       6.407  -6.000  21.936  0.00  0.00    +0.244 A 
ATOM     25  N   UNL     1       5.239  -5.298  21.955  0.00  0.00    -0.223 NA
ATOM     26  C   UNL     1       5.649  -4.059  22.131  0.00  0.00    +0.219 A 
ENDBRANCH  21  22
ENDBRANCH   1  21
TORSDOF 6
ENDMDL
MODEL 5
REMARK VINA RESULT:      -6.8      2.750      6.173
REMARK  Name = 
REMARK  7 active torsions:
REMARK  status: ('A' for Active; 'I' for Inactive)
REMARK    1  A    between atoms: C_1  and  C_2
REMARK    2  A    between atoms: C_2  and  N_4
REMARK    3  A    between atoms: C_2  and  C_11
REMARK    4  A    between atoms: C_11  and  O_12
REMARK    5  A    between atoms: C_11  and  C_13
REMARK    6  A    between atoms: C_11  and  C_19
REMARK    7  A    between atoms: C_13  and  N_14
REMARK                            x       y       z     vdW  Elec       q    Type
REMARK                         _______ _______ _______ _____ _____    ______ ____
ROOT
ATOM      1  C   UNL     1       8.657  -2.436  23.685  0.00  0.00    +0.128 C 
ENDROOT
BRANCH   1   2
ATOM      2  C   UNL     1       8.125  -3.052  24.989  0.00  0.00    +0.022 A 
ATOM      3  C   UNL     1       7.094  -2.473  25.746  0.00  0.00    +0.012 A 
ATOM      4  C   UNL     1       6.521  -3.158  26.824  0.00  0.00    +0.039 A 
ATOM      5  C   UNL     1       6.994  -4.414  27.177  0.00  0.00    +0.126 A 
ATOM      6  F   UNL     1       6.402  -5.088  28.170  0.00  0.00    -0.205 F 
ATOM      7  C   UNL     1       8.068  -4.979  26.512  0.00  0.00    +0.077 A 
ATOM      8  C   UNL     1       8.634  -4.285  25.447  0.00  0.00    +0.132 A 
ATOM      9  F   UNL     1       9.673  -4.848  24.815  0.00  0.00    -0.205 F 
ENDBRANCH   1   2
BRANCH   1  11
ATOM     10  C   UNL     1       7.367  -0.284  22.945  0.00  0.00    +0.027 C 
ATOM     11  C   UNL     1       8.665  -0.818  23.592  0.00  0.00    +0.092 C 
BRANCH  11  12
ATOM     12  N   UNL     1       9.167  -0.013  24.737  0.00  0.00    -0.296 NA
ATOM     13  C   UNL     1       8.314   0.966  25.409  0.00  0.00    +0.089 C 
ATOM     14  C   UNL     1       8.159   2.349  24.768  0.00  0.00    +0.045 C 
ATOM     15  C   UNL     1       9.438   2.921  24.216  0.00  0.00    -0.074 C 
ATOM     16  C   UNL     1       9.584   4.247  24.058  0.00  0.00    +0.008 C 
ATOM     17  C   UNL     1      10.522   1.955  23.804  0.00  0.00    +0.045 C 
ATOM     18  C   UNL     1      10.497   0.596  24.530  0.00  0.00    +0.089 C 
ENDBRANCH  11  12
ENDBRANCH   1  11
BRANCH   1  19
ATOM     19  O   UNL     1      10.082  -2.779  23.729  0.00  0.00    -0.380 OA
ATOM     20  H   UNL     1      10.603  -1.987  23.503  0.00  0.00    +0.211 HD
ENDBRANCH   1  19
BRANCH   1  21
ATOM     21  C   UNL     1       8.101  -3.121  22.395  0.00  0.00    +0.186 C 
BRANCH  21  22
ATOM     22  N   UNL     1       6.847  -3.838  22.387  0.00  0.00    -0.249 N 
ATOM     23  N   UNL     1       6.890  -5.190  22.384  0.00  0.00    -0.158 NA
ATOM     24  C   UNL     1       5.598  -5.507  22.394  0.00  0.00    +0.244 A 
ATOM     25  N   UNL     1       4.738  -4.449  22.406  0.00  0.00    -0.223 NA
ATOM     26  C   UNL     1       5.553  -3.414  22.408  0.00  0.00    +0.219 A 
ENDBRANCH  21  22
ENDBRANCH   1  21
TORSDOF 6
ENDMDL
MODEL 6
REMARK VINA RESULT:      -6.8      3.277      4.057
REMARK  Name = 
REMARK  7 active torsions:
REMARK  status: ('A' for Active; 'I' for Inactive)
REMARK    1  A    between atoms: C_1  and  C_2
REMARK    2  A    between atoms: C_2  and  N_4
REMARK    3  A    between atoms: C_2  and  C_11
REMARK    4  A    between atoms: C_11  and  O_12
REMARK    5  A    between atoms: C_11  and  C_13
REMARK    6  A    between atoms: C_11  and  C_19
REMARK    7  A    between atoms: C_13  and  N_14
REMARK                            x       y       z     vdW  Elec       q    Type
REMARK                         _______ _______ _______ _____ _____    ______ ____
ROOT
ATOM      1  C   UNL     1       7.754  -0.514  25.503  0.00  0.00    +0.128 C 
ENDROOT
BRANCH   1   2
ATOM      2  C   UNL     1       8.567   0.413  24.585  0.00  0.00    +0.022 A 
ATOM      3  C   UNL     1       9.912   0.739  24.821  0.00  0.00    +0.012 A 
ATOM      4  C   UNL     1      10.661   1.439  23.868  0.00  0.00    +0.039 A 
ATOM      5  C   UNL     1      10.066   1.848  22.683  0.00  0.00    +0.126 A 
ATOM      6  F   UNL     1      10.803   2.462  21.750  0.00  0.00    -0.205 F 
ATOM      7  C   UNL     1       8.720   1.623  22.453  0.00  0.00    +0.077 A 
ATOM      8  C   UNL     1       7.984   0.934  23.411  0.00  0.00    +0.132 A 
ATOM      9  F   UNL     1       6.681   0.727  23.171  0.00  0.00    -0.205 F 
ENDBRANCH   1   2
BRANCH   1  11
ATOM     10  C   UNL     1       5.811  -2.048  24.658  0.00  0.00    +0.027 C 
ATOM     11  C   UNL     1       7.336  -1.957  24.898  0.00  0.00    +0.092 C 
BRANCH  11  12
ATOM     12  N   UNL     1       8.171  -2.587  23.841  0.00  0.00    -0.296 NA
ATOM     13  C   UNL     1       7.727  -2.634  22.449  0.00  0.00    +0.089 C 
ATOM     14  C   UNL     1       6.744  -3.736  22.042  0.00  0.00    +0.045 C 
ATOM     15  C   UNL     1       7.045  -5.085  22.639  0.00  0.00    -0.074 C 
ATOM     16  C   UNL     1       6.603  -6.209  22.051  0.00  0.00    +0.008 C 
ATOM     17  C   UNL     1       7.812  -5.126  23.938  0.00  0.00    +0.045 C 
ATOM     18  C   UNL     1       8.724  -3.910  24.195  0.00  0.00    +0.089 C 
ENDBRANCH  11  12
ENDBRANCH   1  11
BRANCH   1  19
ATOM     19  O   UNL     1       8.722  -0.854  26.551  0.00  0.00    -0.380 OA
ATOM     20  H   UNL     1       9.052  -0.029  26.952  0.00  0.00    +0.211 HD
ENDBRANCH   1  19
BRANCH   1  21
ATOM     21  C   UNL     1       6.577   0.206  26.237  0.00  0.00    +0.186 C 
BRANCH  21  22
ATOM     22  N   UNL     1       6.804   1.239  27.221  0.00  0.00    -0.249 N 
ATOM     23  N   UNL     1       6.940   0.865  28.514  0.00  0.00    -0.158 NA
ATOM     24  C   UNL     1       7.147   2.030  29.119  0.00  0.00    +0.244 A 
ATOM     25  N   UNL     1       7.154   3.119  28.299  0.00  0.00    -0.223 NA
ATOM     26  C   UNL     1       6.943   2.589  27.112  0.00  0.00    +0.219 A 
ENDBRANCH  21  22
ENDBRANCH   1  21
TORSDOF 6
ENDMDL
MODEL 7
REMARK VINA RESULT:      -6.7      1.830      2.339
REMARK  Name = 
REMARK  7 active torsions:
REMARK  status: ('A' for Active; 'I' for Inactive)
REMARK    1  A    between atoms: C_1  and  C_2
REMARK    2  A    between atoms: C_2  and  N_4
REMARK    3  A    between atoms: C_2  and  C_11
REMARK    4  A    between atoms: C_11  and  O_12
REMARK    5  A    between atoms: C_11  and  C_13
REMARK    6  A    between atoms: C_11  and  C_19
REMARK    7  A    between atoms: C_13  and  N_14
REMARK                            x       y       z     vdW  Elec       q    Type
REMARK                         _______ _______ _______ _____ _____    ______ ____
ROOT
ATOM      1  C   UNL     1       7.794  -1.775  23.484  0.00  0.00    +0.128 C 
ENDROOT
BRANCH   1   2
ATOM      2  C   UNL     1       7.758  -0.313  23.014  0.00  0.00    +0.022 A 
ATOM      3  C   UNL     1       8.663   0.216  22.080  0.00  0.00    +0.012 A 
ATOM      4  C   UNL     1       8.482   1.498  21.548  0.00  0.00    +0.039 A 
ATOM      5  C   UNL     1       7.414   2.278  21.968  0.00  0.00    +0.126 A 
ATOM      6  F   UNL     1       7.213   3.478  21.410  0.00  0.00    -0.205 F 
ATOM      7  C   UNL     1       6.552   1.828  22.952  0.00  0.00    +0.077 A 
ATOM      8  C   UNL     1       6.747   0.555  23.479  0.00  0.00    +0.132 A 
ATOM      9  F   UNL     1       5.902   0.135  24.431  0.00  0.00    -0.205 F 
ENDBRANCH   1   2
BRANCH   1  11
ATOM     10  C   UNL     1       6.065  -2.779  21.798  0.00  0.00    +0.027 C 
ATOM     11  C   UNL     1       6.437  -2.638  23.292  0.00  0.00    +0.092 C 
BRANCH  11  12
ATOM     12  N   UNL     1       6.217  -3.862  24.106  0.00  0.00    -0.296 NA
ATOM     13  C   UNL     1       6.341  -5.197  23.521  0.00  0.00    +0.089 C 
ATOM     14  C   UNL     1       5.150  -5.753  22.734  0.00  0.00    +0.045 C 
ATOM     15  C   UNL     1       3.810  -5.478  23.364  0.00  0.00    -0.074 C 
ATOM     16  C   UNL     1       2.750  -6.256  23.087  0.00  0.00    +0.008 C 
ATOM     17  C   UNL     1       3.690  -4.277  24.270  0.00  0.00    +0.045 C 
ATOM     18  C   UNL     1       5.003  -3.837  24.948  0.00  0.00    +0.089 C 
ENDBRANCH  11  12
ENDBRANCH   1  11
BRANCH   1  19
ATOM     19  O   UNL     1       8.725  -2.392  22.534  0.00  0.00    -0.380 OA
ATOM     20  H   UNL     1       9.635  -2.145  22.782  0.00  0.00    +0.211 HD
ENDBRANCH   1  19
BRANCH   1  21
ATOM     21  C   UNL     1       8.446  -1.964  24.892  0.00  0.00    +0.186 C 
BRANCH  21  22
ATOM     22  N   UNL     1       8.844  -3.262  25.385  0.00  0.00    -0.249 N 
ATOM     23  N   UNL     1       9.686  -3.999  24.624  0.00  0.00    -0.158 NA
ATOM     24  C   UNL     1       9.847  -5.089  25.367  0.00  0.00    +0.244 A 
ATOM     25  N   UNL     1       9.167  -5.095  26.549  0.00  0.00    -0.223 NA
ATOM     26  C   UNL     1       8.553  -3.931  26.534  0.00  0.00    +0.219 A 
ENDBRANCH  21  22
ENDBRANCH   1  21
TORSDOF 6
ENDMDL
MODEL 8
REMARK VINA RESULT:      -6.7      3.459      6.498
REMARK  Name = 
REMARK  7 active torsions:
REMARK  status: ('A' for Active; 'I' for Inactive)
REMARK    1  A    between atoms: C_1  and  C_2
REMARK    2  A    between atoms: C_2  and  N_4
REMARK    3  A    between atoms: C_2  and  C_11
REMARK    4  A    between atoms: C_11  and  O_12
REMARK    5  A    between atoms: C_11  and  C_13
REMARK    6  A    between atoms: C_11  and  C_19
REMARK    7  A    between atoms: C_13  and  N_14
REMARK                            x       y       z     vdW  Elec       q    Type
REMARK                         _______ _______ _______ _____ _____    ______ ____
ROOT
ATOM      1  C   UNL     1       6.422  -1.786  24.895  0.00  0.00    +0.128 C 
ENDROOT
BRANCH   1   2
ATOM      2  C   UNL     1       6.507  -2.946  23.891  0.00  0.00    +0.022 A 
ATOM      3  C   UNL     1       5.846  -2.940  22.653  0.00  0.00    +0.012 A 
ATOM      4  C   UNL     1       6.095  -3.933  21.698  0.00  0.00    +0.039 A 
ATOM      5  C   UNL     1       6.982  -4.961  21.983  0.00  0.00    +0.126 A 
ATOM      6  F   UNL     1       7.261  -5.873  21.044  0.00  0.00    -0.205 F 
ATOM      7  C   UNL     1       7.586  -5.051  23.225  0.00  0.00    +0.077 A 
ATOM      8  C   UNL     1       7.324  -4.063  24.168  0.00  0.00    +0.132 A 
ATOM      9  F   UNL     1       7.917  -4.167  25.366  0.00  0.00    -0.205 F 
ENDBRANCH   1   2
BRANCH   1  11
ATOM     10  C   UNL     1       8.330  -1.054  26.528  0.00  0.00    +0.027 C 
ATOM     11  C   UNL     1       7.761  -0.897  25.099  0.00  0.00    +0.092 C 
BRANCH  11  12
ATOM     12  N   UNL     1       8.786  -0.844  24.023  0.00  0.00    -0.296 NA
ATOM     13  C   UNL     1      10.199  -0.632  24.330  0.00  0.00    +0.089 C 
ATOM     14  C   UNL     1      10.677   0.803  24.574  0.00  0.00    +0.045 C 
ATOM     15  C   UNL     1      10.092   1.819  23.629  0.00  0.00    -0.074 C 
ATOM     16  C   UNL     1      10.723   2.982  23.395  0.00  0.00    +0.008 C 
ATOM     17  C   UNL     1       8.757   1.507  22.998  0.00  0.00    +0.045 C 
ATOM     18  C   UNL     1       8.430   0.007  22.869  0.00  0.00    +0.089 C 
ENDBRANCH  11  12
ENDBRANCH   1  11
BRANCH   1  19
ATOM     19  O   UNL     1       5.498  -0.859  24.233  0.00  0.00    -0.380 OA
ATOM     20  H   UNL     1       4.654  -0.858  24.719  0.00  0.00    +0.211 HD
ENDBRANCH   1  19
BRANCH   1  21
ATOM     21  C   UNL     1       5.733  -2.173  26.243  0.00  0.00    +0.186 C 
BRANCH  21  22
ATOM     22  N   UNL     1       4.416  -1.694  26.597  0.00  0.00    -0.249 N 
ATOM     23  N   UNL     1       4.309  -0.437  27.086  0.00  0.00    -0.158 NA
ATOM     24  C   UNL     1       2.999  -0.328  27.281  0.00  0.00    +0.244 A 
ATOM     25  N   UNL     1       2.266  -1.428  26.947  0.00  0.00    -0.223 NA
ATOM     26  C   UNL     1       3.184  -2.266  26.514  0.00  0.00    +0.219 A 
ENDBRANCH  21  22
ENDBRANCH   1  21
TORSDOF 6
ENDMDL
MODEL 9
REMARK VINA RESULT:      -6.7      2.995      6.636
REMARK  Name = 
REMARK  7 active torsions:
REMARK  status: ('A' for Active; 'I' for Inactive)
REMARK    1  A    between atoms: C_1  and  C_2
REMARK    2  A    between atoms: C_2  and  N_4
REMARK    3  A    between atoms: C_2  and  C_11
REMARK    4  A    between atoms: C_11  and  O_12
REMARK    5  A    between atoms: C_11  and  C_13
REMARK    6  A    between atoms: C_11  and  C_19
REMARK    7  A    between atoms: C_13  and  N_14
REMARK                            x       y       z     vdW  Elec       q    Type
REMARK                         _______ _______ _______ _____ _____    ______ ____
ROOT
ATOM      1  C   UNL     1       7.739  -3.852  25.081  0.00  0.00    +0.128 C 
ENDROOT
BRANCH   1   2
ATOM      2  C   UNL     1       6.424  -4.437  25.620  0.00  0.00    +0.022 A 
ATOM      3  C   UNL     1       6.358  -5.640  26.341  0.00  0.00    +0.012 A 
ATOM      4  C   UNL     1       5.170  -6.041  26.964  0.00  0.00    +0.039 A 
ATOM      5  C   UNL     1       4.028  -5.262  26.847  0.00  0.00    +0.126 A 
ATOM      6  F   UNL     1       2.914  -5.620  27.496  0.00  0.00    -0.205 F 
ATOM      7  C   UNL     1       4.030  -4.116  26.071  0.00  0.00    +0.077 A 
ATOM      8  C   UNL     1       5.214  -3.732  25.450  0.00  0.00    +0.132 A 
ATOM      9  F   UNL     1       5.197  -2.620  24.702  0.00  0.00    -0.205 F 
ENDBRANCH   1   2
BRANCH   1  11
ATOM     10  C   UNL     1       8.237  -1.731  26.527  0.00  0.00    +0.027 C 
ATOM     11  C   UNL     1       7.887  -2.239  25.110  0.00  0.00    +0.092 C 
BRANCH  11  12
ATOM     12  N   UNL     1       8.596  -1.541  24.005  0.00  0.00    -0.296 NA
ATOM     13  C   UNL     1       9.920  -0.955  24.203  0.00  0.00    +0.089 C 
ATOM     14  C   UNL     1      10.008   0.427  24.858  0.00  0.00    +0.045 C 
ATOM     15  C   UNL     1       8.966   1.404  24.382  0.00  0.00    -0.074 C 
ATOM     16  C   UNL     1       9.171   2.728  24.481  0.00  0.00    +0.008 C 
ATOM     17  C   UNL     1       7.672   0.847  23.838  0.00  0.00    +0.045 C 
ATOM     18  C   UNL     1       7.770  -0.575  23.252  0.00  0.00    +0.089 C 
ENDBRANCH  11  12
ENDBRANCH   1  11
BRANCH   1  19
ATOM     19  O   UNL     1       8.718  -4.301  26.076  0.00  0.00    -0.380 OA
ATOM     20  H   UNL     1       9.239  -5.032  25.696  0.00  0.00    +0.211 HD
ENDBRANCH   1  19
BRANCH   1  21
ATOM     21  C   UNL     1       8.197  -4.485  23.727  0.00  0.00    +0.186 C 
BRANCH  21  22
ATOM     22  N   UNL     1       7.287  -4.674  22.621  0.00  0.00    -0.249 N 
ATOM     23  N   UNL     1       7.138  -5.927  22.131  0.00  0.00    -0.158 NA
ATOM     24  C   UNL     1       6.243  -5.739  21.165  0.00  0.00    +0.244 A 
ATOM     25  N   UNL     1       5.813  -4.455  21.010  0.00  0.00    -0.223 NA
ATOM     26  C   UNL     1       6.482  -3.811  21.944  0.00  0.00    +0.219 A 
ENDBRANCH  21  22
ENDBRANCH   1  21
TORSDOF 6
ENDMDL
