MODEL 1
REMARK VINA RESULT:      -7.2      0.000      0.000
REMARK  Name = 
REMARK  14 active torsions:
REMARK  status: ('A' for Active; 'I' for Inactive)
REMARK    1  A    between atoms: C_1  and  C_2
REMARK    2  A    between atoms: C_2  and  C_3
REMARK    3  A    between atoms: C_2  and  N_4
REMARK    4  A    between atoms: N_4  and  C_5
REMARK    5  A    between atoms: C_5  and  C_6
REMARK    6  A    between atoms: C_6  and  C_7
REMARK    7  A    between atoms: C_7  and  C_8
REMARK    8  A    between atoms: C_8  and  O_9
REMARK    9  A    between atoms: O_9  and  C_10
REMARK   10  A    between atoms: C_10  and  C_11
REMARK   11  A    between atoms: N_13  and  S_14
REMARK   12  A    between atoms: S_14  and  C_15
REMARK   13  A    between atoms: C_20  and  C_21
REMARK   14  A    between atoms: C_27  and  C_30
REMARK                            x       y       z     vdW  Elec       q    Type
REMARK                         _______ _______ _______ _____ _____    ______ ____
ROOT
ATOM      1  N   UNL     1       8.219   0.912  23.576  0.00  0.00    -0.311 N 
ATOM      2  C   UNL     1       7.271  -0.066  23.888  0.00  0.00    +0.140 A 
ATOM      3  C   UNL     1       6.210   0.134  24.767  0.00  0.00    +0.155 A 
ATOM      4  N   UNL     1       5.301  -0.813  25.129  0.00  0.00    -0.249 NA
ATOM      5  C   UNL     1       5.436  -2.054  24.565  0.00  0.00    +0.097 A 
ATOM      6  C   UNL     1       6.463  -2.284  23.628  0.00  0.00    +0.099 A 
ATOM      7  N   UNL     1       7.361  -1.289  23.317  0.00  0.00    -0.228 NA
ENDROOT
BRANCH   5   8
ATOM      8  C   UNL     1       4.456  -3.064  25.082  0.00  0.00    +0.002 A 
ATOM      9  C   UNL     1       3.668  -3.832  24.195  0.00  0.00    +0.010 A 
ATOM     10  C   UNL     1       2.755  -4.789  24.657  0.00  0.00    +0.001 A 
ATOM     11  C   UNL     1       2.651  -5.056  26.018  0.00  0.00    +0.000 A 
ATOM     12  C   UNL     1       3.376  -4.289  26.920  0.00  0.00    +0.001 A 
ATOM     13  C   UNL     1       4.206  -3.260  26.457  0.00  0.00    +0.010 A 
ENDBRANCH   5   8
BRANCH   6  14
ATOM     14  C   UNL     1       6.754  -3.576  22.942  0.00  0.00    +0.003 A 
ATOM     15  C   UNL     1       6.178  -3.943  21.712  0.00  0.00    +0.010 A 
ATOM     16  C   UNL     1       6.234  -5.257  21.237  0.00  0.00    +0.001 A 
ATOM     17  C   UNL     1       7.002  -6.202  21.902  0.00  0.00    +0.000 A 
ATOM     18  C   UNL     1       7.725  -5.826  23.028  0.00  0.00    +0.001 A 
ATOM     19  C   UNL     1       7.588  -4.535  23.548  0.00  0.00    +0.010 A 
ENDBRANCH   6  14
BRANCH   1  21
ATOM     20  C   UNL     1       9.757   1.697  21.735  0.00  0.00    +0.028 C 
ATOM     21  C   UNL     1       9.249   0.527  22.582  0.00  0.00    +0.069 C 
ATOM     22  C   UNL     1      10.436  -0.178  23.245  0.00  0.00    +0.028 C 
ENDBRANCH   1  21
BRANCH   1  23
ATOM     23  C   UNL     1       8.277   2.198  24.294  0.00  0.00    +0.107 C 
BRANCH  23  24
ATOM     24  C   UNL     1       7.131   3.145  23.919  0.00  0.00    +0.021 C 
BRANCH  24  25
ATOM     25  C   UNL     1       7.328   3.845  22.561  0.00  0.00    +0.030 C 
BRANCH  25  26
ATOM     26  C   UNL     1       6.794   5.274  22.494  0.00  0.00    +0.160 C 
BRANCH  26  27
ATOM     27  O   UNL     1       7.849   6.150  22.107  0.00  0.00    -0.371 OA
BRANCH  27  28
ATOM     28  C   UNL     1       8.394   6.846  23.227  0.00  0.00    +0.257 C 
BRANCH  28  29
ATOM     29  C   UNL     1       9.588   6.099  23.819  0.00  0.00    +0.257 C 
ATOM     30  N   UNL     1      10.695   5.974  22.965  0.00  0.00    -0.188 N 
ATOM     31  H   UNL     1      10.676   6.393  22.038  0.00  0.00    +0.176 HD
ATOM     32  O   UNL     1       9.547   5.616  24.940  0.00  0.00    -0.272 OA
BRANCH  30  33
ATOM     33  S   UNL     1      12.118   5.257  23.453  0.00  0.00    +0.042 S 
ATOM     34  O   UNL     1      11.921   3.831  23.491  0.00  0.00    -0.155 OA
ATOM     35  O   UNL     1      12.657   6.007  24.572  0.00  0.00    -0.155 OA
ATOM     36  C   UNL     1      13.136   5.607  22.064  0.00  0.00    +0.218 C 
ENDBRANCH  30  33
ENDBRANCH  28  29
ENDBRANCH  27  28
ENDBRANCH  26  27
ENDBRANCH  25  26
ENDBRANCH  24  25
ENDBRANCH  23  24
ENDBRANCH   1  23
TORSDOF 11
ENDMDL
MODEL 2
REMARK VINA RESULT:      -7.0      5.619     10.457
REMARK  Name = 
REMARK  14 active torsions:
REMARK  status: ('A' for Active; 'I' for Inactive)
REMARK    1  A    between atoms: C_1  and  C_2
REMARK    2  A    between atoms: C_2  and  C_3
REMARK    3  A    between atoms: C_2  and  N_4
REMARK    4  A    between atoms: N_4  and  C_5
REMARK    5  A    between atoms: C_5  and  C_6
REMARK    6  A    between atoms: C_6  and  C_7
REMARK    7  A    between atoms: C_7  and  C_8
REMARK    8  A    between atoms: C_8  and  O_9
REMARK    9  A    between atoms: O_9  and  C_10
REMARK   10  A    between atoms: C_10  and  C_11
REMARK   11  A    between atoms: N_13  and  S_14
REMARK   12  A    between atoms: S_14  and  C_15
REMARK   13  A    between atoms: C_20  and  C_21
REMARK   14  A    between atoms: C_27  and  C_30
REMARK                            x       y       z     vdW  Elec       q    Type
REMARK                         _______ _______ _______ _____ _____    ______ ____
ROOT
ATOM      1  N   UNL     1       8.250  -1.371  23.158  0.00  0.00    -0.311 N 
ATOM      2  C   UNL     1       8.777  -0.079  23.232  0.00  0.00    +0.140 A 
ATOM      3  C   UNL     1      10.138   0.199  23.332  0.00  0.00    +0.155 A 
ATOM      4  N   UNL     1      10.678   1.443  23.456  0.00  0.00    -0.249 NA
ATOM      5  C   UNL     1       9.808   2.502  23.465  0.00  0.00    +0.097 A 
ATOM      6  C   UNL     1       8.427   2.268  23.312  0.00  0.00    +0.099 A 
ATOM      7  N   UNL     1       7.942   0.985  23.207  0.00  0.00    -0.228 NA
ENDROOT
BRANCH   5   8
ATOM      8  C   UNL     1      10.470   3.826  23.698  0.00  0.00    +0.002 A 
ATOM      9  C   UNL     1       9.784   4.878  24.346  0.00  0.00    +0.010 A 
ATOM     10  C   UNL     1      10.388   6.119  24.583  0.00  0.00    +0.001 A 
ATOM     11  C   UNL     1      11.720   6.325  24.242  0.00  0.00    +0.000 A 
ATOM     12  C   UNL     1      12.411   5.330  23.563  0.00  0.00    +0.001 A 
ATOM     13  C   UNL     1      11.767   4.130  23.232  0.00  0.00    +0.010 A 
ENDBRANCH   5   8
BRANCH   6  14
ATOM     14  C   UNL     1       7.355   3.305  23.319  0.00  0.00    +0.003 A 
ATOM     15  C   UNL     1       7.134   4.193  22.250  0.00  0.00    +0.010 A 
ATOM     16  C   UNL     1       6.330   5.328  22.393  0.00  0.00    +0.001 A 
ATOM     17  C   UNL     1       5.601   5.519  23.558  0.00  0.00    +0.000 A 
ATOM     18  C   UNL     1       5.663   4.566  24.568  0.00  0.00    +0.001 A 
ATOM     19  C   UNL     1       6.541   3.484  24.454  0.00  0.00    +0.010 A 
ENDBRANCH   6  14
BRANCH   1  21
ATOM     20  C   UNL     1       6.314  -2.712  22.250  0.00  0.00    +0.028 C 
ATOM     21  C   UNL     1       6.778  -1.467  23.009  0.00  0.00    +0.069 C 
ATOM     22  C   UNL     1       6.069  -1.399  24.364  0.00  0.00    +0.028 C 
ENDBRANCH   1  21
BRANCH   1  23
ATOM     23  C   UNL     1       9.088  -2.567  23.356  0.00  0.00    +0.107 C 
BRANCH  23  24
ATOM     24  C   UNL     1       9.162  -3.009  24.822  0.00  0.00    +0.021 C 
BRANCH  24  25
ATOM     25  C   UNL     1       8.618  -4.431  25.066  0.00  0.00    +0.030 C 
BRANCH  25  26
ATOM     26  C   UNL     1       8.677  -4.897  26.519  0.00  0.00    +0.160 C 
BRANCH  26  27
ATOM     27  O   UNL     1       7.550  -5.725  26.791  0.00  0.00    -0.371 OA
BRANCH  27  28
ATOM     28  C   UNL     1       6.398  -5.301  26.064  0.00  0.00    +0.257 C 
BRANCH  28  29
ATOM     29  C   UNL     1       5.240  -6.281  26.237  0.00  0.00    +0.257 C 
ATOM     30  N   UNL     1       4.143  -6.065  25.387  0.00  0.00    -0.188 N 
ATOM     31  H   UNL     1       4.172  -5.319  24.696  0.00  0.00    +0.176 HD
ATOM     32  O   UNL     1       5.265  -7.156  27.090  0.00  0.00    -0.272 OA
BRANCH  30  33
ATOM     33  S   UNL     1       2.816  -7.072  25.374  0.00  0.00    +0.042 S 
ATOM     34  O   UNL     1       2.131  -6.941  26.634  0.00  0.00    -0.155 OA
ATOM     35  O   UNL     1       3.209  -8.355  24.821  0.00  0.00    -0.155 OA
ATOM     36  C   UNL     1       1.830  -6.272  24.159  0.00  0.00    +0.218 C 
ENDBRANCH  30  33
ENDBRANCH  28  29
ENDBRANCH  27  28
ENDBRANCH  26  27
ENDBRANCH  25  26
ENDBRANCH  24  25
ENDBRANCH  23  24
ENDBRANCH   1  23
TORSDOF 11
ENDMDL
MODEL 3
REMARK VINA RESULT:      -6.8      5.425      9.813
REMARK  Name = 
REMARK  14 active torsions:
REMARK  status: ('A' for Active; 'I' for Inactive)
REMARK    1  A    between atoms: C_1  and  C_2
REMARK    2  A    between atoms: C_2  and  C_3
REMARK    3  A    between atoms: C_2  and  N_4
REMARK    4  A    between atoms: N_4  and  C_5
REMARK    5  A    between atoms: C_5  and  C_6
REMARK    6  A    between atoms: C_6  and  C_7
REMARK    7  A    between atoms: C_7  and  C_8
REMARK    8  A    between atoms: C_8  and  O_9
REMARK    9  A    between atoms: O_9  and  C_10
REMARK   10  A    between atoms: C_10  and  C_11
REMARK   11  A    between atoms: N_13  and  S_14
REMARK   12  A    between atoms: S_14  and  C_15
REMARK   13  A    between atoms: C_20  and  C_21
REMARK   14  A    between atoms: C_27  and  C_30
REMARK                            x       y       z     vdW  Elec       q    Type
REMARK                         _______ _______ _______ _____ _____    ______ ____
ROOT
ATOM      1  N   UNL     1       7.811  -1.432  22.938  0.00  0.00    -0.311 N 
ATOM      2  C   UNL     1       7.903  -0.042  23.054  0.00  0.00    +0.140 A 
ATOM      3  C   UNL     1       9.107   0.658  23.061  0.00  0.00    +0.155 A 
ATOM      4  N   UNL     1       9.232   2.004  23.223  0.00  0.00    -0.249 NA
ATOM      5  C   UNL     1       8.076   2.723  23.371  0.00  0.00    +0.097 A 
ATOM      6  C   UNL     1       6.832   2.061  23.316  0.00  0.00    +0.099 A 
ATOM      7  N   UNL     1       6.775   0.695  23.167  0.00  0.00    -0.228 NA
ENDROOT
BRANCH   5   8
ATOM      8  C   UNL     1       8.300   4.182  23.635  0.00  0.00    +0.002 A 
ATOM      9  C   UNL     1       7.880   5.161  22.708  0.00  0.00    +0.010 A 
ATOM     10  C   UNL     1       8.070   6.530  22.940  0.00  0.00    +0.001 A 
ATOM     11  C   UNL     1       8.623   6.964  24.140  0.00  0.00    +0.000 A 
ATOM     12  C   UNL     1       9.089   6.028  25.054  0.00  0.00    +0.001 A 
ATOM     13  C   UNL     1       8.994   4.660  24.767  0.00  0.00    +0.010 A 
ENDBRANCH   5   8
BRANCH   6  14
ATOM     14  C   UNL     1       5.493   2.694  23.478  0.00  0.00    +0.003 A 
ATOM     15  C   UNL     1       4.812   2.756  24.708  0.00  0.00    +0.010 A 
ATOM     16  C   UNL     1       3.455   3.086  24.781  0.00  0.00    +0.001 A 
ATOM     17  C   UNL     1       2.784   3.517  23.646  0.00  0.00    +0.000 A 
ATOM     18  C   UNL     1       3.476   3.635  22.446  0.00  0.00    +0.001 A 
ATOM     19  C   UNL     1       4.807   3.212  22.362  0.00  0.00    +0.010 A 
ENDBRANCH   6  14
BRANCH   1  21
ATOM     20  C   UNL     1       6.314  -3.264  22.061  0.00  0.00    +0.028 C 
ATOM     21  C   UNL     1       6.440  -1.993  22.904  0.00  0.00    +0.069 C 
ATOM     22  C   UNL     1       5.903  -2.258  24.314  0.00  0.00    +0.028 C 
ENDBRANCH   1  21
BRANCH   1  23
ATOM     23  C   UNL     1       9.001  -2.299  22.990  0.00  0.00    +0.107 C 
BRANCH  23  24
ATOM     24  C   UNL     1       9.363  -2.735  24.414  0.00  0.00    +0.021 C 
BRANCH  24  25
ATOM     25  C   UNL     1       9.058  -4.218  24.702  0.00  0.00    +0.030 C 
BRANCH  25  26
ATOM     26  C   UNL     1       9.026  -4.589  26.182  0.00  0.00    +0.160 C 
BRANCH  26  27
ATOM     27  O   UNL     1       8.123  -5.674  26.373  0.00  0.00    -0.371 OA
BRANCH  27  28
ATOM     28  C   UNL     1       6.985  -5.284  27.141  0.00  0.00    +0.257 C 
BRANCH  28  29
ATOM     29  C   UNL     1       5.739  -6.062  26.724  0.00  0.00    +0.257 C 
ATOM     30  N   UNL     1       5.074  -5.560  25.594  0.00  0.00    -0.188 N 
ATOM     31  H   UNL     1       5.447  -4.753  25.098  0.00  0.00    +0.176 HD
ATOM     32  O   UNL     1       5.341  -7.022  27.365  0.00  0.00    -0.272 OA
BRANCH  30  33
ATOM     33  S   UNL     1       3.738  -6.312  24.942  0.00  0.00    +0.042 S 
ATOM     34  O   UNL     1       2.641  -6.176  25.864  0.00  0.00    -0.155 OA
ATOM     35  O   UNL     1       4.147  -7.589  24.387  0.00  0.00    -0.155 OA
ATOM     36  C   UNL     1       3.413  -5.245  23.583  0.00  0.00    +0.218 C 
ENDBRANCH  30  33
ENDBRANCH  28  29
ENDBRANCH  27  28
ENDBRANCH  26  27
ENDBRANCH  25  26
ENDBRANCH  24  25
ENDBRANCH  23  24
ENDBRANCH   1  23
TORSDOF 11
ENDMDL
MODEL 4
REMARK VINA RESULT:      -6.7      2.465      3.668
REMARK  Name = 
REMARK  14 active torsions:
REMARK  status: ('A' for Active; 'I' for Inactive)
REMARK    1  A    between atoms: C_1  and  C_2
REMARK    2  A    between atoms: C_2  and  C_3
REMARK    3  A    between atoms: C_2  and  N_4
REMARK    4  A    between atoms: N_4  and  C_5
REMARK    5  A    between atoms: C_5  and  C_6
REMARK    6  A    between atoms: C_6  and  C_7
REMARK    7  A    between atoms: C_7  and  C_8
REMARK    8  A    between atoms: C_8  and  O_9
REMARK    9  A    between atoms: O_9  and  C_10
REMARK   10  A    between atoms: C_10  and  C_11
REMARK   11  A    between atoms: N_13  and  S_14
REMARK   12  A    between atoms: S_14  and  C_15
REMARK   13  A    between atoms: C_20  and  C_21
REMARK   14  A    between atoms: C_27  and  C_30
REMARK                            x       y       z     vdW  Elec       q    Type
REMARK                         _______ _______ _______ _____ _____    ______ ____
ROOT
ATOM      1  N   UNL     1       8.365   0.894  23.691  0.00  0.00    -0.311 N 
ATOM      2  C   UNL     1       7.900  -0.200  24.425  0.00  0.00    +0.140 A 
ATOM      3  C   UNL     1       7.894  -0.253  25.817  0.00  0.00    +0.155 A 
ATOM      4  N   UNL     1       7.495  -1.322  26.560  0.00  0.00    -0.249 NA
ATOM      5  C   UNL     1       7.049  -2.423  25.878  0.00  0.00    +0.097 A 
ATOM      6  C   UNL     1       6.987  -2.392  24.470  0.00  0.00    +0.099 A 
ATOM      7  N   UNL     1       7.422  -1.286  23.776  0.00  0.00    -0.228 NA
ENDROOT
BRANCH   5   8
ATOM      8  C   UNL     1       6.716  -3.588  26.761  0.00  0.00    +0.002 A 
ATOM      9  C   UNL     1       5.549  -3.587  27.556  0.00  0.00    +0.010 A 
ATOM     10  C   UNL     1       5.213  -4.670  28.379  0.00  0.00    +0.001 A 
ATOM     11  C   UNL     1       5.999  -5.817  28.379  0.00  0.00    +0.000 A 
ATOM     12  C   UNL     1       7.178  -5.835  27.645  0.00  0.00    +0.001 A 
ATOM     13  C   UNL     1       7.563  -4.707  26.909  0.00  0.00    +0.010 A 
ENDBRANCH   5   8
BRANCH   6  14
ATOM     14  C   UNL     1       6.546  -3.507  23.585  0.00  0.00    +0.003 A 
ATOM     15  C   UNL     1       5.198  -3.876  23.423  0.00  0.00    +0.010 A 
ATOM     16  C   UNL     1       4.834  -5.089  22.829  0.00  0.00    +0.001 A 
ATOM     17  C   UNL     1       5.802  -5.889  22.239  0.00  0.00    +0.000 A 
ATOM     18  C   UNL     1       7.126  -5.467  22.229  0.00  0.00    +0.001 A 
ATOM     19  C   UNL     1       7.492  -4.301  22.908  0.00  0.00    +0.010 A 
ENDBRANCH   6  14
BRANCH   1  21
ATOM     20  C   UNL     1       7.861   2.097  21.529  0.00  0.00    +0.028 C 
ATOM     21  C   UNL     1       8.249   0.785  22.217  0.00  0.00    +0.069 C 
ATOM     22  C   UNL     1       9.534   0.238  21.589  0.00  0.00    +0.028 C 
ENDBRANCH   1  21
BRANCH   1  23
ATOM     23  C   UNL     1       9.056   2.027  24.331  0.00  0.00    +0.107 C 
BRANCH  23  24
ATOM     24  C   UNL     1      10.488   2.220  23.819  0.00  0.00    +0.021 C 
BRANCH  24  25
ATOM     25  C   UNL     1      10.834   3.686  23.492  0.00  0.00    +0.030 C 
BRANCH  25  26
ATOM     26  C   UNL     1       9.860   4.715  24.061  0.00  0.00    +0.160 C 
BRANCH  26  27
ATOM     27  O   UNL     1       9.963   5.922  23.310  0.00  0.00    -0.371 OA
BRANCH  27  28
ATOM     28  C   UNL     1       8.858   6.790  23.554  0.00  0.00    +0.257 C 
BRANCH  28  29
ATOM     29  C   UNL     1       7.595   6.292  22.855  0.00  0.00    +0.257 C 
ATOM     30  N   UNL     1       6.501   6.051  23.701  0.00  0.00    -0.188 N 
ATOM     31  H   UNL     1       6.575   6.238  24.698  0.00  0.00    +0.176 HD
ATOM     32  O   UNL     1       7.571   6.083  21.651  0.00  0.00    -0.272 OA
BRANCH  30  33
ATOM     33  S   UNL     1       5.014   5.574  23.118  0.00  0.00    +0.042 S 
ATOM     34  O   UNL     1       5.128   4.226  22.624  0.00  0.00    -0.155 OA
ATOM     35  O   UNL     1       4.453   6.657  22.331  0.00  0.00    -0.155 OA
ATOM     36  C   UNL     1       4.100   5.504  24.618  0.00  0.00    +0.218 C 
ENDBRANCH  30  33
ENDBRANCH  28  29
ENDBRANCH  27  28
ENDBRANCH  26  27
ENDBRANCH  25  26
ENDBRANCH  24  25
ENDBRANCH  23  24
ENDBRANCH   1  23
TORSDOF 11
ENDMDL
MODEL 5
REMARK VINA RESULT:      -6.7      4.812      8.842
REMARK  Name = 
REMARK  14 active torsions:
REMARK  status: ('A' for Active; 'I' for Inactive)
REMARK    1  A    between atoms: C_1  and  C_2
REMARK    2  A    between atoms: C_2  and  C_3
REMARK    3  A    between atoms: C_2  and  N_4
REMARK    4  A    between atoms: N_4  and  C_5
REMARK    5  A    between atoms: C_5  and  C_6
REMARK    6  A    between atoms: C_6  and  C_7
REMARK    7  A    between atoms: C_7  and  C_8
REMARK    8  A    between atoms: C_8  and  O_9
REMARK    9  A    between atoms: O_9  and  C_10
REMARK   10  A    between atoms: C_10  and  C_11
REMARK   11  A    between atoms: N_13  and  S_14
REMARK   12  A    between atoms: S_14  and  C_15
REMARK   13  A    between atoms: C_20  and  C_21
REMARK   14  A    between atoms: C_27  and  C_30
REMARK                            x       y       z     vdW  Elec       q    Type
REMARK                         _______ _______ _______ _____ _____    ______ ____
ROOT
ATOM      1  N   UNL     1       8.058  -1.054  23.552  0.00  0.00    -0.311 N 
ATOM      2  C   UNL     1       7.250   0.036  23.886  0.00  0.00    +0.140 A 
ATOM      3  C   UNL     1       6.011  -0.079  24.513  0.00  0.00    +0.155 A 
ATOM      4  N   UNL     1       5.180   0.958  24.806  0.00  0.00    -0.249 NA
ATOM      5  C   UNL     1       5.611   2.215  24.472  0.00  0.00    +0.097 A 
ATOM      6  C   UNL     1       6.882   2.382  23.886  0.00  0.00    +0.099 A 
ATOM      7  N   UNL     1       7.668   1.290  23.599  0.00  0.00    -0.228 NA
ENDROOT
BRANCH   5   8
ATOM      8  C   UNL     1       4.603   3.292  24.742  0.00  0.00    +0.002 A 
ATOM      9  C   UNL     1       4.682   4.084  25.909  0.00  0.00    +0.010 A 
ATOM     10  C   UNL     1       3.758   5.103  26.174  0.00  0.00    +0.001 A 
ATOM     11  C   UNL     1       2.767   5.407  25.247  0.00  0.00    +0.000 A 
ATOM     12  C   UNL     1       2.632   4.619  24.112  0.00  0.00    +0.001 A 
ATOM     13  C   UNL     1       3.493   3.533  23.905  0.00  0.00    +0.010 A 
ENDBRANCH   5   8
BRANCH   6  14
ATOM     14  C   UNL     1       7.485   3.674  23.449  0.00  0.00    +0.003 A 
ATOM     15  C   UNL     1       8.547   4.298  24.129  0.00  0.00    +0.010 A 
ATOM     16  C   UNL     1       8.899   5.628  23.880  0.00  0.00    +0.001 A 
ATOM     17  C   UNL     1       8.302   6.318  22.834  0.00  0.00    +0.000 A 
ATOM     18  C   UNL     1       7.370   5.671  22.031  0.00  0.00    +0.001 A 
ATOM     19  C   UNL     1       6.957   4.373  22.347  0.00  0.00    +0.010 A 
ENDBRANCH   6  14
BRANCH   1  21
ATOM     20  C   UNL     1      10.423  -1.821  23.114  0.00  0.00    +0.028 C 
ATOM     21  C   UNL     1       9.364  -0.730  22.931  0.00  0.00    +0.069 C 
ATOM     22  C   UNL     1       9.216  -0.406  21.442  0.00  0.00    +0.028 C 
ENDBRANCH   1  21
BRANCH   1  23
ATOM     23  C   UNL     1       7.583  -2.444  23.677  0.00  0.00    +0.107 C 
BRANCH  23  24
ATOM     24  C   UNL     1       6.821  -2.930  22.440  0.00  0.00    +0.021 C 
BRANCH  24  25
ATOM     25  C   UNL     1       7.160  -4.378  22.036  0.00  0.00    +0.030 C 
BRANCH  25  26
ATOM     26  C   UNL     1       5.948  -5.280  21.814  0.00  0.00    +0.160 C 
BRANCH  26  27
ATOM     27  O   UNL     1       5.019  -5.085  22.877  0.00  0.00    -0.371 OA
BRANCH  27  28
ATOM     28  C   UNL     1       5.054  -6.163  23.811  0.00  0.00    +0.257 C 
BRANCH  28  29
ATOM     29  C   UNL     1       5.412  -5.673  25.212  0.00  0.00    +0.257 C 
ATOM     30  N   UNL     1       6.782  -5.464  25.439  0.00  0.00    -0.188 N 
ATOM     31  H   UNL     1       7.452  -5.608  24.687  0.00  0.00    +0.176 HD
ATOM     32  O   UNL     1       4.559  -5.522  26.073  0.00  0.00    -0.272 OA
BRANCH  30  33
ATOM     33  S   UNL     1       7.362  -4.862  26.880  0.00  0.00    +0.042 S 
ATOM     34  O   UNL     1       7.337  -5.916  27.859  0.00  0.00    -0.155 OA
ATOM     35  O   UNL     1       6.771  -3.557  27.112  0.00  0.00    -0.155 OA
ATOM     36  C   UNL     1       9.045  -4.591  26.448  0.00  0.00    +0.218 C 
ENDBRANCH  30  33
ENDBRANCH  28  29
ENDBRANCH  27  28
ENDBRANCH  26  27
ENDBRANCH  25  26
ENDBRANCH  24  25
ENDBRANCH  23  24
ENDBRANCH   1  23
TORSDOF 11
ENDMDL
MODEL 6
REMARK VINA RESULT:      -6.7      3.215      4.420
REMARK  Name = 
REMARK  14 active torsions:
REMARK  status: ('A' for Active; 'I' for Inactive)
REMARK    1  A    between atoms: C_1  and  C_2
REMARK    2  A    between atoms: C_2  and  C_3
REMARK    3  A    between atoms: C_2  and  N_4
REMARK    4  A    between atoms: N_4  and  C_5
REMARK    5  A    between atoms: C_5  and  C_6
REMARK    6  A    between atoms: C_6  and  C_7
REMARK    7  A    between atoms: C_7  and  C_8
REMARK    8  A    between atoms: C_8  and  O_9
REMARK    9  A    between atoms: O_9  and  C_10
REMARK   10  A    between atoms: C_10  and  C_11
REMARK   11  A    between atoms: N_13  and  S_14
REMARK   12  A    between atoms: S_14  and  C_15
REMARK   13  A    between atoms: C_20  and  C_21
REMARK   14  A    between atoms: C_27  and  C_30
REMARK                            x       y       z     vdW  Elec       q    Type
REMARK                         _______ _______ _______ _____ _____    ______ ____
ROOT
ATOM      1  N   UNL     1       9.168  -0.071  23.843  0.00  0.00    -0.311 N 
ATOM      2  C   UNL     1       8.429  -0.986  24.599  0.00  0.00    +0.140 A 
ATOM      3  C   UNL     1       8.195  -0.853  25.966  0.00  0.00    +0.155 A 
ATOM      4  N   UNL     1       7.523  -1.751  26.738  0.00  0.00    -0.249 NA
ATOM      5  C   UNL     1       7.024  -2.862  26.110  0.00  0.00    +0.097 A 
ATOM      6  C   UNL     1       7.191  -3.009  24.718  0.00  0.00    +0.099 A 
ATOM      7  N   UNL     1       7.896  -2.073  23.997  0.00  0.00    -0.228 NA
ENDROOT
BRANCH   5   8
ATOM      8  C   UNL     1       6.380  -3.845  27.041  0.00  0.00    +0.002 A 
ATOM      9  C   UNL     1       5.119  -3.577  27.620  0.00  0.00    +0.010 A 
ATOM     10  C   UNL     1       4.494  -4.487  28.483  0.00  0.00    +0.001 A 
ATOM     11  C   UNL     1       5.079  -5.722  28.739  0.00  0.00    +0.000 A 
ATOM     12  C   UNL     1       6.338  -5.999  28.224  0.00  0.00    +0.001 A 
ATOM     13  C   UNL     1       7.006  -5.041  27.450  0.00  0.00    +0.010 A 
ENDBRANCH   5   8
BRANCH   6  14
ATOM     14  C   UNL     1       6.727  -4.162  23.895  0.00  0.00    +0.003 A 
ATOM     15  C   UNL     1       7.605  -5.059  23.259  0.00  0.00    +0.010 A 
ATOM     16  C   UNL     1       7.163  -5.944  22.270  0.00  0.00    +0.001 A 
ATOM     17  C   UNL     1       5.806  -6.064  22.005  0.00  0.00    +0.000 A 
ATOM     18  C   UNL     1       4.896  -5.315  22.741  0.00  0.00    +0.001 A 
ATOM     19  C   UNL     1       5.353  -4.366  23.660  0.00  0.00    +0.010 A 
ENDBRANCH   6  14
BRANCH   1  21
ATOM     20  C   UNL     1       9.226   0.894  21.512  0.00  0.00    +0.028 C 
ATOM     21  C   UNL     1       9.270  -0.358  22.393  0.00  0.00    +0.069 C 
ATOM     22  C   UNL     1      10.525  -1.171  22.065  0.00  0.00    +0.028 C 
ENDBRANCH   1  21
BRANCH   1  23
ATOM     23  C   UNL     1       9.917   1.032  24.470  0.00  0.00    +0.107 C 
BRANCH  23  24
ATOM     24  C   UNL     1       9.037   2.244  24.796  0.00  0.00    +0.021 C 
BRANCH  24  25
ATOM     25  C   UNL     1       9.421   3.514  24.012  0.00  0.00    +0.030 C 
BRANCH  25  26
ATOM     26  C   UNL     1       8.254   4.217  23.323  0.00  0.00    +0.160 C 
BRANCH  26  27
ATOM     27  O   UNL     1       7.161   3.309  23.211  0.00  0.00    -0.371 OA
BRANCH  27  28
ATOM     28  C   UNL     1       5.945   3.888  23.681  0.00  0.00    +0.257 C 
BRANCH  28  29
ATOM     29  C   UNL     1       5.001   2.825  24.237  0.00  0.00    +0.257 C 
ATOM     30  N   UNL     1       5.457   2.168  25.391  0.00  0.00    -0.188 N 
ATOM     31  H   UNL     1       6.343   2.434  25.814  0.00  0.00    +0.176 HD
ATOM     32  O   UNL     1       3.949   2.550  23.680  0.00  0.00    -0.272 OA
BRANCH  30  33
ATOM     33  S   UNL     1       4.537   1.029  26.188  0.00  0.00    +0.042 S 
ATOM     34  O   UNL     1       4.739  -0.247  25.552  0.00  0.00    -0.155 OA
ATOM     35  O   UNL     1       3.220   1.586  26.437  0.00  0.00    -0.155 OA
ATOM     36  C   UNL     1       5.373   0.981  27.734  0.00  0.00    +0.218 C 
ENDBRANCH  30  33
ENDBRANCH  28  29
ENDBRANCH  27  28
ENDBRANCH  26  27
ENDBRANCH  25  26
ENDBRANCH  24  25
ENDBRANCH  23  24
ENDBRANCH   1  23
TORSDOF 11
ENDMDL
MODEL 7
REMARK VINA RESULT:      -6.7      4.518      9.093
REMARK  Name = 
REMARK  14 active torsions:
REMARK  status: ('A' for Active; 'I' for Inactive)
REMARK    1  A    between atoms: C_1  and  C_2
REMARK    2  A    between atoms: C_2  and  C_3
REMARK    3  A    between atoms: C_2  and  N_4
REMARK    4  A    between atoms: N_4  and  C_5
REMARK    5  A    between atoms: C_5  and  C_6
REMARK    6  A    between atoms: C_6  and  C_7
REMARK    7  A    between atoms: C_7  and  C_8
REMARK    8  A    between atoms: C_8  and  O_9
REMARK    9  A    between atoms: O_9  and  C_10
REMARK   10  A    between atoms: C_10  and  C_11
REMARK   11  A    between atoms: N_13  and  S_14
REMARK   12  A    between atoms: S_14  and  C_15
REMARK   13  A    between atoms: C_20  and  C_21
REMARK   14  A    between atoms: C_27  and  C_30
REMARK                            x       y       z     vdW  Elec       q    Type
REMARK                         _______ _______ _______ _____ _____    ______ ____
ROOT
ATOM      1  N   UNL     1       4.337  -1.941  26.897  0.00  0.00    -0.311 N 
ATOM      2  C   UNL     1       5.239  -1.277  26.061  0.00  0.00    +0.140 A 
ATOM      3  C   UNL     1       6.461  -1.811  25.659  0.00  0.00    +0.155 A 
ATOM      4  N   UNL     1       7.382  -1.170  24.887  0.00  0.00    -0.249 NA
ATOM      5  C   UNL     1       7.066   0.093  24.460  0.00  0.00    +0.097 A 
ATOM      6  C   UNL     1       5.817   0.650  24.799  0.00  0.00    +0.099 A 
ATOM      7  N   UNL     1       4.936  -0.043  25.597  0.00  0.00    -0.228 NA
ENDROOT
BRANCH   5   8
ATOM      8  C   UNL     1       8.166   0.765  23.695  0.00  0.00    +0.002 A 
ATOM      9  C   UNL     1       8.978   1.749  24.303  0.00  0.00    +0.010 A 
ATOM     10  C   UNL     1      10.019   2.380  23.609  0.00  0.00    +0.001 A 
ATOM     11  C   UNL     1      10.324   1.998  22.308  0.00  0.00    +0.000 A 
ATOM     12  C   UNL     1       9.518   1.068  21.664  0.00  0.00    +0.001 A 
ATOM     13  C   UNL     1       8.413   0.520  22.328  0.00  0.00    +0.010 A 
ENDBRANCH   5   8
BRANCH   6  14
ATOM     14  C   UNL     1       5.333   2.011  24.431  0.00  0.00    +0.003 A 
ATOM     15  C   UNL     1       5.336   2.500  23.111  0.00  0.00    +0.010 A 
ATOM     16  C   UNL     1       5.156   3.858  22.830  0.00  0.00    +0.001 A 
ATOM     17  C   UNL     1       4.811   4.736  23.848  0.00  0.00    +0.000 A 
ATOM     18  C   UNL     1       4.628   4.251  25.137  0.00  0.00    +0.001 A 
ATOM     19  C   UNL     1       4.903   2.911  25.425  0.00  0.00    +0.010 A 
ENDBRANCH   6  14
BRANCH   1  21
ATOM     20  C   UNL     1       1.816  -2.044  26.831  0.00  0.00    +0.028 C 
ATOM     21  C   UNL     1       3.066  -1.231  27.178  0.00  0.00    +0.069 C 
ATOM     22  C   UNL     1       2.988  -0.768  28.635  0.00  0.00    +0.028 C 
ENDBRANCH   1  21
BRANCH   1  23
ATOM     23  C   UNL     1       4.684  -3.204  27.572  0.00  0.00    +0.107 C 
BRANCH  23  24
ATOM     24  C   UNL     1       4.407  -4.440  26.709  0.00  0.00    +0.021 C 
BRANCH  24  25
ATOM     25  C   UNL     1       5.022  -5.736  27.272  0.00  0.00    +0.030 C 
BRANCH  25  26
ATOM     26  C   UNL     1       6.388  -5.562  27.931  0.00  0.00    +0.160 C 
BRANCH  26  27
ATOM     27  O   UNL     1       7.398  -6.041  27.047  0.00  0.00    -0.371 OA
BRANCH  27  28
ATOM     28  C   UNL     1       8.273  -4.994  26.630  0.00  0.00    +0.257 C 
BRANCH  28  29
ATOM     29  C   UNL     1       8.404  -4.951  25.109  0.00  0.00    +0.257 C 
ATOM     30  N   UNL     1       7.189  -4.951  24.406  0.00  0.00    -0.188 N 
ATOM     31  H   UNL     1       6.306  -4.948  24.911  0.00  0.00    +0.176 HD
ATOM     32  O   UNL     1       9.496  -4.960  24.562  0.00  0.00    -0.272 OA
BRANCH  30  33
ATOM     33  S   UNL     1       7.123  -4.834  22.745  0.00  0.00    +0.042 S 
ATOM     34  O   UNL     1       7.554  -6.087  22.181  0.00  0.00    -0.155 OA
ATOM     35  O   UNL     1       7.684  -3.556  22.345  0.00  0.00    -0.155 OA
ATOM     36  C   UNL     1       5.385  -4.725  22.509  0.00  0.00    +0.218 C 
ENDBRANCH  30  33
ENDBRANCH  28  29
ENDBRANCH  27  28
ENDBRANCH  26  27
ENDBRANCH  25  26
ENDBRANCH  24  25
ENDBRANCH  23  24
ENDBRANCH   1  23
TORSDOF 11
ENDMDL
MODEL 8
REMARK VINA RESULT:      -6.6      5.076      9.888
REMARK  Name = 
REMARK  14 active torsions:
REMARK  status: ('A' for Active; 'I' for Inactive)
REMARK    1  A    between atoms: C_1  and  C_2
REMARK    2  A    between atoms: C_2  and  C_3
REMARK    3  A    between atoms: C_2  and  N_4
REMARK    4  A    between atoms: N_4  and  C_5
REMARK    5  A    between atoms: C_5  and  C_6
REMARK    6  A    between atoms: C_6  and  C_7
REMARK    7  A    between atoms: C_7  and  C_8
REMARK    8  A    between atoms: C_8  and  O_9
REMARK    9  A    between atoms: O_9  and  C_10
REMARK   10  A    between atoms: C_10  and  C_11
REMARK   11  A    between atoms: N_13  and  S_14
REMARK   12  A    between atoms: S_14  and  C_15
REMARK   13  A    between atoms: C_20  and  C_21
REMARK   14  A    between atoms: C_27  and  C_30
REMARK                            x       y       z     vdW  Elec       q    Type
REMARK                         _______ _______ _______ _____ _____    ______ ____
ROOT
ATOM      1  N   UNL     1       7.458  -1.615  25.846  0.00  0.00    -0.311 N 
ATOM      2  C   UNL     1       8.034  -0.437  25.363  0.00  0.00    +0.140 A 
ATOM      3  C   UNL     1       9.408  -0.215  25.300  0.00  0.00    +0.155 A 
ATOM      4  N   UNL     1       9.998   0.939  24.883  0.00  0.00    -0.249 NA
ATOM      5  C   UNL     1       9.169   1.951  24.477  0.00  0.00    +0.097 A 
ATOM      6  C   UNL     1       7.774   1.749  24.474  0.00  0.00    +0.099 A 
ATOM      7  N   UNL     1       7.239   0.564  24.924  0.00  0.00    -0.228 NA
ENDROOT
BRANCH   5   8
ATOM      8  C   UNL     1       9.889   3.217  24.121  0.00  0.00    +0.002 A 
ATOM      9  C   UNL     1       9.341   4.479  24.441  0.00  0.00    +0.010 A 
ATOM     10  C   UNL     1      10.003   5.674  24.127  0.00  0.00    +0.001 A 
ATOM     11  C   UNL     1      11.266   5.641  23.546  0.00  0.00    +0.000 A 
ATOM     12  C   UNL     1      11.814   4.419  23.176  0.00  0.00    +0.001 A 
ATOM     13  C   UNL     1      11.099   3.235  23.394  0.00  0.00    +0.010 A 
ENDBRANCH   5   8
BRANCH   6  14
ATOM     14  C   UNL     1       6.742   2.751  24.082  0.00  0.00    +0.003 A 
ATOM     15  C   UNL     1       6.482   3.108  22.746  0.00  0.00    +0.010 A 
ATOM     16  C   UNL     1       5.729   4.241  22.421  0.00  0.00    +0.001 A 
ATOM     17  C   UNL     1       5.087   4.956  23.421  0.00  0.00    +0.000 A 
ATOM     18  C   UNL     1       5.182   4.526  24.740  0.00  0.00    +0.001 A 
ATOM     19  C   UNL     1       6.013   3.449  25.064  0.00  0.00    +0.010 A 
ENDBRANCH   6  14
BRANCH   1  21
ATOM     20  C   UNL     1       5.435  -2.267  24.485  0.00  0.00    +0.028 C 
ATOM     21  C   UNL     1       5.978  -1.685  25.793  0.00  0.00    +0.069 C 
ATOM     22  C   UNL     1       5.408  -2.468  26.978  0.00  0.00    +0.028 C 
ENDBRANCH   1  21
BRANCH   1  23
ATOM     23  C   UNL     1       8.260  -2.665  26.498  0.00  0.00    +0.107 C 
BRANCH  23  24
ATOM     24  C   UNL     1       8.406  -3.927  25.639  0.00  0.00    +0.021 C 
BRANCH  24  25
ATOM     25  C   UNL     1       8.956  -3.652  24.226  0.00  0.00    +0.030 C 
BRANCH  25  26
ATOM     26  C   UNL     1       8.035  -4.080  23.087  0.00  0.00    +0.160 C 
BRANCH  26  27
ATOM     27  O   UNL     1       7.810  -5.485  23.169  0.00  0.00    -0.371 OA
BRANCH  27  28
ATOM     28  C   UNL     1       6.950  -5.943  22.127  0.00  0.00    +0.257 C 
BRANCH  28  29
ATOM     29  C   UNL     1       5.497  -5.562  22.396  0.00  0.00    +0.257 C 
ATOM     30  N   UNL     1       4.792  -6.450  23.226  0.00  0.00    -0.188 N 
ATOM     31  H   UNL     1       5.262  -7.259  23.625  0.00  0.00    +0.176 HD
ATOM     32  O   UNL     1       4.989  -4.577  21.883  0.00  0.00    -0.272 OA
BRANCH  30  33
ATOM     33  S   UNL     1       3.218  -6.168  23.694  0.00  0.00    +0.042 S 
ATOM     34  O   UNL     1       2.376  -6.232  22.528  0.00  0.00    -0.155 OA
ATOM     35  O   UNL     1       3.200  -5.050  24.619  0.00  0.00    -0.155 OA
ATOM     36  C   UNL     1       2.911  -7.618  24.639  0.00  0.00    +0.218 C 
ENDBRANCH  30  33
ENDBRANCH  28  29
ENDBRANCH  27  28
ENDBRANCH  26  27
ENDBRANCH  25  26
ENDBRANCH  24  25
ENDBRANCH  23  24
ENDBRANCH   1  23
TORSDOF 11
ENDMDL
MODEL 9
REMARK VINA RESULT:      -6.5      4.308      7.102
REMARK  Name = 
REMARK  14 active torsions:
REMARK  status: ('A' for Active; 'I' for Inactive)
REMARK    1  A    between atoms: C_1  and  C_2
REMARK    2  A    between atoms: C_2  and  C_3
REMARK    3  A    between atoms: C_2  and  N_4
REMARK    4  A    between atoms: N_4  and  C_5
REMARK    5  A    between atoms: C_5  and  C_6
REMARK    6  A    between atoms: C_6  and  C_7
REMARK    7  A    between atoms: C_7  and  C_8
REMARK    8  A    between atoms: C_8  and  O_9
REMARK    9  A    between atoms: O_9  and  C_10
REMARK   10  A    between atoms: C_10  and  C_11
REMARK   11  A    between atoms: N_13  and  S_14
REMARK   12  A    between atoms: S_14  and  C_15
REMARK   13  A    between atoms: C_20  and  C_21
REMARK   14  A    between atoms: C_27  and  C_30
REMARK                            x       y       z     vdW  Elec       q    Type
REMARK                         _______ _______ _______ _____ _____    ______ ____
ROOT
ATOM      1  N   UNL     1       7.396   1.925  23.175  0.00  0.00    -0.311 N 
ATOM      2  C   UNL     1       6.816   0.901  23.928  0.00  0.00    +0.140 A 
ATOM      3  C   UNL     1       6.737  -0.423  23.505  0.00  0.00    +0.155 A 
ATOM      4  N   UNL     1       6.134  -1.433  24.192  0.00  0.00    -0.249 NA
ATOM      5  C   UNL     1       5.579  -1.117  25.404  0.00  0.00    +0.097 A 
ATOM      6  C   UNL     1       5.684   0.200  25.895  0.00  0.00    +0.099 A 
ATOM      7  N   UNL     1       6.292   1.180  25.143  0.00  0.00    -0.228 NA
ENDROOT
BRANCH   5   8
ATOM      8  C   UNL     1       4.857  -2.257  26.054  0.00  0.00    +0.002 A 
ATOM      9  C   UNL     1       3.552  -2.617  25.648  0.00  0.00    +0.010 A 
ATOM     10  C   UNL     1       2.864  -3.688  26.235  0.00  0.00    +0.001 A 
ATOM     11  C   UNL     1       3.486  -4.474  27.198  0.00  0.00    +0.000 A 
ATOM     12  C   UNL     1       4.749  -4.122  27.654  0.00  0.00    +0.001 A 
ATOM     13  C   UNL     1       5.388  -2.986  27.140  0.00  0.00    +0.010 A 
ENDBRANCH   5   8
BRANCH   6  14
ATOM     14  C   UNL     1       5.121   0.706  27.179  0.00  0.00    +0.003 A 
ATOM     15  C   UNL     1       5.792   0.599  28.411  0.00  0.00    +0.010 A 
ATOM     16  C   UNL     1       5.135   0.812  29.627  0.00  0.00    +0.001 A 
ATOM     17  C   UNL     1       3.832   1.291  29.636  0.00  0.00    +0.000 A 
ATOM     18  C   UNL     1       3.199   1.573  28.432  0.00  0.00    +0.001 A 
ATOM     19  C   UNL     1       3.830   1.268  27.222  0.00  0.00    +0.010 A 
ENDBRANCH   6  14
BRANCH   1  21
ATOM     20  C   UNL     1       8.773   3.609  24.456  0.00  0.00    +0.028 C 
ATOM     21  C   UNL     1       7.428   3.264  23.812  0.00  0.00    +0.069 C 
ATOM     22  C   UNL     1       7.033   4.367  22.827  0.00  0.00    +0.028 C 
ENDBRANCH   1  21
BRANCH   1  23
ATOM     23  C   UNL     1       7.823   1.722  21.780  0.00  0.00    +0.107 C 
BRANCH  23  24
ATOM     24  C   UNL     1       9.314   1.391  21.652  0.00  0.00    +0.021 C 
BRANCH  24  25
ATOM     25  C   UNL     1       9.606  -0.121  21.578  0.00  0.00    +0.030 C 
BRANCH  25  26
ATOM     26  C   UNL     1      10.279  -0.703  22.819  0.00  0.00    +0.160 C 
BRANCH  26  27
ATOM     27  O   UNL     1      10.209  -2.126  22.765  0.00  0.00    -0.371 OA
BRANCH  27  28
ATOM     28  C   UNL     1       9.693  -2.674  23.976  0.00  0.00    +0.257 C 
BRANCH  28  29
ATOM     29  C   UNL     1       8.784  -3.870  23.703  0.00  0.00    +0.257 C 
ATOM     30  N   UNL     1       7.741  -3.630  22.793  0.00  0.00    -0.188 N 
ATOM     31  H   UNL     1       7.652  -2.721  22.346  0.00  0.00    +0.176 HD
ATOM     32  O   UNL     1       8.942  -4.937  24.276  0.00  0.00    -0.272 OA
BRANCH  30  33
ATOM     33  S   UNL     1       6.689  -4.829  22.311  0.00  0.00    +0.042 S 
ATOM     34  O   UNL     1       7.447  -6.025  22.051  0.00  0.00    -0.155 OA
ATOM     35  O   UNL     1       5.750  -4.268  21.356  0.00  0.00    -0.155 OA
ATOM     36  C   UNL     1       5.804  -5.086  23.808  0.00  0.00    +0.218 C 
ENDBRANCH  30  33
ENDBRANCH  28  29
ENDBRANCH  27  28
ENDBRANCH  26  27
ENDBRANCH  25  26
ENDBRANCH  24  25
ENDBRANCH  23  24
ENDBRANCH   1  23
TORSDOF 11
ENDMDL
