MODEL 1
REMARK VINA RESULT:      -7.3      0.000      0.000
REMARK  Name = 
REMARK  3 active torsions:
REMARK  status: ('A' for Active; 'I' for Inactive)
REMARK    1  A    between atoms: N_1  and  C_2
REMARK    2  A    between atoms: N_8  and  C_20
REMARK    3  A    between atoms: C_10  and  C_11
REMARK                            x       y       z     vdW  Elec       q    Type
REMARK                         _______ _______ _______ _____ _____    ______ ____
ROOT
ATOM      1  C   UNL     1       8.609  -1.828  26.274  0.00  0.00    +0.131 A 
ATOM      2  N   UNL     1       8.496  -2.958  27.003  0.00  0.00    -0.220 NA
ATOM      3  C   UNL     1       7.963  -4.050  26.427  0.00  0.00    +0.225 A 
ATOM      4  N   UNL     1       7.490  -4.167  25.180  0.00  0.00    -0.216 NA
ATOM      5  C   UNL     1       7.638  -3.027  24.484  0.00  0.00    +0.164 A 
ATOM      6  N   UNL     1       7.256  -2.807  23.192  0.00  0.00    -0.243 N 
ATOM      7  N   UNL     1       7.557  -1.566  22.748  0.00  0.00    -0.168 NA
ATOM      8  C   UNL     1       8.173  -0.970  23.791  0.00  0.00    +0.107 A 
ATOM      9  C   UNL     1       8.200  -1.839  24.933  0.00  0.00    +0.086 A 
ENDROOT
BRANCH   8  10
ATOM     10  C   UNL     1       8.696   0.394  23.639  0.00  0.00    +0.022 A 
ATOM     11  C   UNL     1       9.613   0.727  22.643  0.00  0.00    +0.123 A 
ATOM     12  N   UNL     1      10.204   1.937  22.449  0.00  0.00    -0.237 NA
ATOM     13  C   UNL     1       9.748   2.874  23.297  0.00  0.00    +0.138 A 
ATOM     14  N   UNL     1      10.167   4.175  23.307  0.00  0.00    -0.346 N 
ATOM     15  H   UNL     1      10.880   4.538  22.692  0.00  0.00    +0.167 HD
ATOM     16  C   UNL     1       9.449   4.885  24.236  0.00  0.00    +0.085 A 
ATOM     17  C   UNL     1       8.590   4.006  24.866  0.00  0.00    +0.029 A 
ATOM     18  C   UNL     1       8.788   2.721  24.289  0.00  0.00    +0.019 A 
ATOM     19  C   UNL     1       8.254   1.432  24.479  0.00  0.00    +0.023 A 
ENDBRANCH   8  10
BRANCH   6  20
ATOM     20  C   UNL     1       6.566  -3.754  22.342  0.00  0.00    +0.109 C 
ATOM     21  C   UNL     1       5.191  -4.195  22.857  0.00  0.00    +0.027 C 
ATOM     22  C   UNL     1       5.016  -5.646  22.402  0.00  0.00    +0.002 C 
ATOM     23  C   UNL     1       6.250  -5.988  21.575  0.00  0.00    +0.002 C 
ATOM     24  C   UNL     1       7.329  -5.060  22.110  0.00  0.00    +0.027 C 
ENDBRANCH   6  20
BRANCH   1  25
ATOM     25  N   UNL     1       9.110  -0.727  26.958  0.00  0.00    -0.342 N 
ATOM     26  H   UNL     1       8.371  -0.037  27.064  0.00  0.00    +0.144 HD
ATOM     27  H   UNL     1       9.970  -0.355  26.574  0.00  0.00    +0.144 HD
ENDBRANCH   1  25
TORSDOF 3
ENDMDL
MODEL 2
REMARK VINA RESULT:      -7.2      3.141      7.877
REMARK  Name = 
REMARK  3 active torsions:
REMARK  status: ('A' for Active; 'I' for Inactive)
REMARK    1  A    between atoms: N_1  and  C_2
REMARK    2  A    between atoms: N_8  and  C_20
REMARK    3  A    between atoms: C_10  and  C_11
REMARK                            x       y       z     vdW  Elec       q    Type
REMARK                         _______ _______ _______ _____ _____    ______ ____
ROOT
ATOM      1  C   UNL     1       5.437  -6.002  23.121  0.00  0.00    +0.131 A 
ATOM      2  N   UNL     1       5.481  -6.053  21.774  0.00  0.00    -0.220 NA
ATOM      3  C   UNL     1       6.240  -5.158  21.116  0.00  0.00    +0.225 A 
ATOM      4  N   UNL     1       6.975  -4.169  21.639  0.00  0.00    -0.216 NA
ATOM      5  C   UNL     1       6.917  -4.165  22.982  0.00  0.00    +0.164 A 
ATOM      6  N   UNL     1       7.543  -3.288  23.821  0.00  0.00    -0.243 N 
ATOM      7  N   UNL     1       7.322  -3.547  25.128  0.00  0.00    -0.168 NA
ATOM      8  C   UNL     1       6.537  -4.646  25.132  0.00  0.00    +0.107 A 
ATOM      9  C   UNL     1       6.210  -5.043  23.792  0.00  0.00    +0.086 A 
ENDROOT
BRANCH   8  10
ATOM     10  C   UNL     1       6.142  -5.249  26.412  0.00  0.00    +0.022 A 
ATOM     11  C   UNL     1       7.083  -5.644  27.363  0.00  0.00    +0.123 A 
ATOM     12  N   UNL     1       6.833  -6.263  28.548  0.00  0.00    -0.237 NA
ATOM     13  C   UNL     1       5.518  -6.405  28.788  0.00  0.00    +0.138 A 
ATOM     14  N   UNL     1       4.996  -6.982  29.912  0.00  0.00    -0.346 N 
ATOM     15  H   UNL     1       5.560  -7.379  30.649  0.00  0.00    +0.167 HD
ATOM     16  C   UNL     1       3.628  -6.896  29.884  0.00  0.00    +0.085 A 
ATOM     17  C   UNL     1       3.268  -6.297  28.693  0.00  0.00    +0.029 A 
ATOM     18  C   UNL     1       4.463  -5.999  27.980  0.00  0.00    +0.019 A 
ATOM     19  C   UNL     1       4.786  -5.415  26.741  0.00  0.00    +0.023 A 
ENDBRANCH   8  10
BRANCH   6  20
ATOM     20  C   UNL     1       8.347  -2.156  23.412  0.00  0.00    +0.109 C 
ATOM     21  C   UNL     1       9.728  -2.078  24.075  0.00  0.00    +0.027 C 
ATOM     22  C   UNL     1      10.042  -0.587  24.220  0.00  0.00    +0.002 C 
ATOM     23  C   UNL     1       8.881   0.161  23.576  0.00  0.00    +0.002 C 
ATOM     24  C   UNL     1       7.706  -0.796  23.696  0.00  0.00    +0.027 C 
ENDBRANCH   6  20
BRANCH   1  25
ATOM     25  N   UNL     1       4.582  -6.916  23.723  0.00  0.00    -0.342 N 
ATOM     26  H   UNL     1       4.523  -7.749  23.143  0.00  0.00    +0.144 HD
ATOM     27  H   UNL     1       3.683  -6.533  23.989  0.00  0.00    +0.144 HD
ENDBRANCH   1  25
TORSDOF 3
ENDMDL
MODEL 3
REMARK VINA RESULT:      -7.0      2.094      7.075
REMARK  Name = 
REMARK  3 active torsions:
REMARK  status: ('A' for Active; 'I' for Inactive)
REMARK    1  A    between atoms: N_1  and  C_2
REMARK    2  A    between atoms: N_8  and  C_20
REMARK    3  A    between atoms: C_10  and  C_11
REMARK                            x       y       z     vdW  Elec       q    Type
REMARK                         _______ _______ _______ _____ _____    ______ ____
ROOT
ATOM      1  C   UNL     1       9.567   0.285  22.177  0.00  0.00    +0.131 A 
ATOM      2  N   UNL     1      10.193   1.470  22.025  0.00  0.00    -0.220 NA
ATOM      3  C   UNL     1      10.065   2.399  22.990  0.00  0.00    +0.225 A 
ATOM      4  N   UNL     1       9.353   2.309  24.121  0.00  0.00    -0.216 NA
ATOM      5  C   UNL     1       8.762   1.108  24.240  0.00  0.00    +0.164 A 
ATOM      6  N   UNL     1       7.962   0.694  25.266  0.00  0.00    -0.243 N 
ATOM      7  N   UNL     1       7.528  -0.578  25.128  0.00  0.00    -0.168 NA
ATOM      8  C   UNL     1       8.086  -1.006  23.975  0.00  0.00    +0.107 A 
ATOM      9  C   UNL     1       8.833   0.047  23.348  0.00  0.00    +0.086 A 
ENDROOT
BRANCH   8  10
ATOM     10  C   UNL     1       7.869  -2.391  23.536  0.00  0.00    +0.022 A 
ATOM     11  C   UNL     1       8.464  -3.473  24.185  0.00  0.00    +0.123 A 
ATOM     12  N   UNL     1       8.380  -4.783  23.831  0.00  0.00    -0.237 NA
ATOM     13  C   UNL     1       7.562  -4.982  22.783  0.00  0.00    +0.138 A 
ATOM     14  N   UNL     1       7.293  -6.205  22.235  0.00  0.00    -0.346 N 
ATOM     15  H   UNL     1       7.711  -7.065  22.556  0.00  0.00    +0.167 HD
ATOM     16  C   UNL     1       6.361  -6.070  21.238  0.00  0.00    +0.085 A 
ATOM     17  C   UNL     1       6.068  -4.726  21.114  0.00  0.00    +0.029 A 
ATOM     18  C   UNL     1       6.843  -4.024  22.079  0.00  0.00    +0.019 A 
ATOM     19  C   UNL     1       7.014  -2.679  22.458  0.00  0.00    +0.023 A 
ENDBRANCH   8  10
BRANCH   6  20
ATOM     20  C   UNL     1       7.556   1.498  26.400  0.00  0.00    +0.109 C 
ATOM     21  C   UNL     1       7.193   0.698  27.657  0.00  0.00    +0.027 C 
ATOM     22  C   UNL     1       6.089   1.494  28.357  0.00  0.00    +0.002 C 
ATOM     23  C   UNL     1       5.889   2.764  27.539  0.00  0.00    +0.002 C 
ATOM     24  C   UNL     1       6.334   2.380  26.137  0.00  0.00    +0.027 C 
ENDBRANCH   6  20
BRANCH   1  25
ATOM     25  N   UNL     1       9.695  -0.596  21.110  0.00  0.00    -0.342 N 
ATOM     26  H   UNL     1      10.396  -1.295  21.338  0.00  0.00    +0.144 HD
ATOM     27  H   UNL     1       9.837  -0.146  20.214  0.00  0.00    +0.144 HD
ENDBRANCH   1  25
TORSDOF 3
ENDMDL
MODEL 4
REMARK VINA RESULT:      -6.9      2.479      3.722
REMARK  Name = 
REMARK  3 active torsions:
REMARK  status: ('A' for Active; 'I' for Inactive)
REMARK    1  A    between atoms: N_1  and  C_2
REMARK    2  A    between atoms: N_8  and  C_20
REMARK    3  A    between atoms: C_10  and  C_11
REMARK                            x       y       z     vdW  Elec       q    Type
REMARK                         _______ _______ _______ _____ _____    ______ ____
ROOT
ATOM      1  C   UNL     1       7.682  -4.264  26.491  0.00  0.00    +0.131 A 
ATOM      2  N   UNL     1       7.568  -5.169  27.485  0.00  0.00    -0.220 NA
ATOM      3  C   UNL     1       6.458  -5.926  27.547  0.00  0.00    +0.225 A 
ATOM      4  N   UNL     1       5.396  -5.888  26.731  0.00  0.00    -0.216 NA
ATOM      5  C   UNL     1       5.559  -4.988  25.747  0.00  0.00    +0.164 A 
ATOM      6  N   UNL     1       4.667  -4.696  24.756  0.00  0.00    -0.243 N 
ATOM      7  N   UNL     1       5.115  -3.761  23.889  0.00  0.00    -0.168 NA
ATOM      8  C   UNL     1       6.354  -3.453  24.330  0.00  0.00    +0.107 A 
ATOM      9  C   UNL     1       6.658  -4.167  25.537  0.00  0.00    +0.086 A 
ENDROOT
BRANCH   8  10
ATOM     10  C   UNL     1       7.173  -2.494  23.576  0.00  0.00    +0.022 A 
ATOM     11  C   UNL     1       8.322  -2.883  22.889  0.00  0.00    +0.123 A 
ATOM     12  N   UNL     1       9.180  -2.075  22.212  0.00  0.00    -0.237 NA
ATOM     13  C   UNL     1       8.770  -0.796  22.186  0.00  0.00    +0.138 A 
ATOM     14  N   UNL     1       9.443   0.218  21.562  0.00  0.00    -0.346 N 
ATOM     15  H   UNL     1      10.326   0.095  21.089  0.00  0.00    +0.167 HD
ATOM     16  C   UNL     1       8.718   1.379  21.652  0.00  0.00    +0.085 A 
ATOM     17  C   UNL     1       7.584   1.111  22.393  0.00  0.00    +0.029 A 
ATOM     18  C   UNL     1       7.619  -0.265  22.754  0.00  0.00    +0.019 A 
ATOM     19  C   UNL     1       6.798  -1.141  23.489  0.00  0.00    +0.023 A 
ENDBRANCH   8  10
BRANCH   6  20
ATOM     20  C   UNL     1       3.345  -5.269  24.613  0.00  0.00    +0.109 C 
ATOM     21  C   UNL     1       3.051  -5.865  23.231  0.00  0.00    +0.027 C 
ATOM     22  C   UNL     1       1.557  -5.642  22.985  0.00  0.00    +0.002 C 
ATOM     23  C   UNL     1       1.005  -4.994  24.249  0.00  0.00    +0.002 C 
ATOM     24  C   UNL     1       2.203  -4.281  24.858  0.00  0.00    +0.027 C 
ENDBRANCH   6  20
BRANCH   1  25
ATOM     25  N   UNL     1       8.826  -3.477  26.532  0.00  0.00    -0.342 N 
ATOM     26  H   UNL     1       8.722  -2.705  25.881  0.00  0.00    +0.144 HD
ATOM     27  H   UNL     1       9.690  -3.994  26.425  0.00  0.00    +0.144 HD
ENDBRANCH   1  25
TORSDOF 3
ENDMDL
MODEL 5
REMARK VINA RESULT:      -6.9      2.368      6.919
REMARK  Name = 
REMARK  3 active torsions:
REMARK  status: ('A' for Active; 'I' for Inactive)
REMARK    1  A    between atoms: N_1  and  C_2
REMARK    2  A    between atoms: N_8  and  C_20
REMARK    3  A    between atoms: C_10  and  C_11
REMARK                            x       y       z     vdW  Elec       q    Type
REMARK                         _______ _______ _______ _____ _____    ______ ____
ROOT
ATOM      1  C   UNL     1       9.805  -1.281  23.919  0.00  0.00    +0.131 A 
ATOM      2  N   UNL     1      10.846  -0.520  24.314  0.00  0.00    -0.220 NA
ATOM      3  C   UNL     1      10.664   0.805  24.455  0.00  0.00    +0.225 A 
ATOM      4  N   UNL     1       9.545   1.504  24.228  0.00  0.00    -0.216 NA
ATOM      5  C   UNL     1       8.529   0.707  23.854  0.00  0.00    +0.164 A 
ATOM      6  N   UNL     1       7.259   1.100  23.541  0.00  0.00    -0.243 N 
ATOM      7  N   UNL     1       6.443   0.071  23.225  0.00  0.00    -0.168 NA
ATOM      8  C   UNL     1       7.213  -1.030  23.357  0.00  0.00    +0.107 A 
ATOM      9  C   UNL     1       8.560  -0.672  23.702  0.00  0.00    +0.086 A 
ENDROOT
BRANCH   8  10
ATOM     10  C   UNL     1       6.622  -2.358  23.142  0.00  0.00    +0.022 A 
ATOM     11  C   UNL     1       6.294  -2.823  21.869  0.00  0.00    +0.123 A 
ATOM     12  N   UNL     1       5.693  -4.003  21.562  0.00  0.00    -0.237 NA
ATOM     13  C   UNL     1       5.495  -4.777  22.643  0.00  0.00    +0.138 A 
ATOM     14  N   UNL     1       4.921  -6.017  22.610  0.00  0.00    -0.346 N 
ATOM     15  H   UNL     1       4.568  -6.447  21.768  0.00  0.00    +0.167 HD
ATOM     16  C   UNL     1       4.943  -6.570  23.865  0.00  0.00    +0.085 A 
ATOM     17  C   UNL     1       5.496  -5.642  24.725  0.00  0.00    +0.029 A 
ATOM     18  C   UNL     1       5.832  -4.490  23.960  0.00  0.00    +0.019 A 
ATOM     19  C   UNL     1       6.401  -3.230  24.222  0.00  0.00    +0.023 A 
ENDBRANCH   8  10
BRANCH   6  20
ATOM     20  C   UNL     1       6.783   2.467  23.502  0.00  0.00    +0.109 C 
ATOM     21  C   UNL     1       5.259   2.617  23.590  0.00  0.00    +0.027 C 
ATOM     22  C   UNL     1       4.908   3.848  22.750  0.00  0.00    +0.002 C 
ATOM     23  C   UNL     1       6.231   4.423  22.258  0.00  0.00    +0.002 C 
ATOM     24  C   UNL     1       7.173   3.231  22.235  0.00  0.00    +0.027 C 
ENDBRANCH   6  20
BRANCH   1  25
ATOM     25  N   UNL     1      10.088  -2.628  23.735  0.00  0.00    -0.342 N 
ATOM     26  H   UNL     1       9.854  -3.137  24.583  0.00  0.00    +0.144 HD
ATOM     27  H   UNL     1      11.021  -2.813  23.387  0.00  0.00    +0.144 HD
ENDBRANCH   1  25
TORSDOF 3
ENDMDL
MODEL 6
REMARK VINA RESULT:      -6.8      2.491      4.762
REMARK  Name = 
REMARK  3 active torsions:
REMARK  status: ('A' for Active; 'I' for Inactive)
REMARK    1  A    between atoms: N_1  and  C_2
REMARK    2  A    between atoms: N_8  and  C_20
REMARK    3  A    between atoms: C_10  and  C_11
REMARK                            x       y       z     vdW  Elec       q    Type
REMARK                         _______ _______ _______ _____ _____    ______ ____
ROOT
ATOM      1  C   UNL     1       5.879  -4.456  22.628  0.00  0.00    +0.131 A 
ATOM      2  N   UNL     1       4.857  -5.240  22.228  0.00  0.00    -0.220 NA
ATOM      3  C   UNL     1       4.179  -5.943  23.153  0.00  0.00    +0.225 A 
ATOM      4  N   UNL     1       4.404  -5.987  24.472  0.00  0.00    -0.216 NA
ATOM      5  C   UNL     1       5.417  -5.180  24.829  0.00  0.00    +0.164 A 
ATOM      6  N   UNL     1       5.905  -4.997  26.091  0.00  0.00    -0.243 N 
ATOM      7  N   UNL     1       6.915  -4.102  26.151  0.00  0.00    -0.168 NA
ATOM      8  C   UNL     1       7.071  -3.677  24.879  0.00  0.00    +0.107 A 
ATOM      9  C   UNL     1       6.179  -4.373  23.996  0.00  0.00    +0.086 A 
ENDROOT
BRANCH   8  10
ATOM     10  C   UNL     1       8.064  -2.637  24.579  0.00  0.00    +0.022 A 
ATOM     11  C   UNL     1       9.211  -2.904  23.832  0.00  0.00    +0.123 A 
ATOM     12  N   UNL     1      10.218  -2.036  23.546  0.00  0.00    -0.237 NA
ATOM     13  C   UNL     1       9.974  -0.795  24.001  0.00  0.00    +0.138 A 
ATOM     14  N   UNL     1      10.818   0.268  23.837  0.00  0.00    -0.346 N 
ATOM     15  H   UNL     1      11.716   0.203  23.382  0.00  0.00    +0.167 HD
ATOM     16  C   UNL     1      10.237   1.402  24.344  0.00  0.00    +0.085 A 
ATOM     17  C   UNL     1       9.019   1.045  24.888  0.00  0.00    +0.029 A 
ATOM     18  C   UNL     1       8.852  -0.354  24.692  0.00  0.00    +0.019 A 
ATOM     19  C   UNL     1       7.869  -1.312  25.007  0.00  0.00    +0.023 A 
ENDBRANCH   8  10
BRANCH   6  20
ATOM     20  C   UNL     1       5.453  -5.688  27.281  0.00  0.00    +0.109 C 
ATOM     21  C   UNL     1       4.354  -4.960  28.065  0.00  0.00    +0.027 C 
ATOM     22  C   UNL     1       4.590  -5.303  29.538  0.00  0.00    +0.002 C 
ATOM     23  C   UNL     1       5.764  -6.274  29.570  0.00  0.00    +0.002 C 
ATOM     24  C   UNL     1       6.553  -5.950  28.311  0.00  0.00    +0.027 C 
ENDBRANCH   6  20
BRANCH   1  25
ATOM     25  N   UNL     1       6.569  -3.812  21.609  0.00  0.00    -0.342 N 
ATOM     26  H   UNL     1       7.564  -3.835  21.815  0.00  0.00    +0.144 HD
ATOM     27  H   UNL     1       6.215  -2.891  21.384  0.00  0.00    +0.144 HD
ENDBRANCH   1  25
TORSDOF 3
ENDMDL
MODEL 7
REMARK VINA RESULT:      -6.8      2.268      2.523
REMARK  Name = 
REMARK  3 active torsions:
REMARK  status: ('A' for Active; 'I' for Inactive)
REMARK    1  A    between atoms: N_1  and  C_2
REMARK    2  A    between atoms: N_8  and  C_20
REMARK    3  A    between atoms: C_10  and  C_11
REMARK                            x       y       z     vdW  Elec       q    Type
REMARK                         _______ _______ _______ _____ _____    ______ ____
ROOT
ATOM      1  C   UNL     1       5.050  -0.523  25.997  0.00  0.00    +0.131 A 
ATOM      2  N   UNL     1       4.218  -1.243  26.776  0.00  0.00    -0.220 NA
ATOM      3  C   UNL     1       3.979  -2.528  26.456  0.00  0.00    +0.225 A 
ATOM      4  N   UNL     1       4.462  -3.212  25.412  0.00  0.00    -0.216 NA
ATOM      5  C   UNL     1       5.300  -2.465  24.673  0.00  0.00    +0.164 A 
ATOM      6  N   UNL     1       5.955  -2.855  23.541  0.00  0.00    -0.243 N 
ATOM      7  N   UNL     1       6.753  -1.894  23.025  0.00  0.00    -0.168 NA
ATOM      8  C   UNL     1       6.619  -0.849  23.869  0.00  0.00    +0.107 A 
ATOM      9  C   UNL     1       5.666  -1.145  24.901  0.00  0.00    +0.086 A 
ENDROOT
BRANCH   8  10
ATOM     10  C   UNL     1       7.405   0.371  23.641  0.00  0.00    +0.022 A 
ATOM     11  C   UNL     1       6.817   1.555  23.195  0.00  0.00    +0.123 A 
ATOM     12  N   UNL     1       7.454   2.719  22.897  0.00  0.00    -0.237 NA
ATOM     13  C   UNL     1       8.771   2.667  23.157  0.00  0.00    +0.138 A 
ATOM     14  N   UNL     1       9.639   3.704  22.959  0.00  0.00    -0.346 N 
ATOM     15  H   UNL     1       9.366   4.595  22.571  0.00  0.00    +0.167 HD
ATOM     16  C   UNL     1      10.889   3.352  23.399  0.00  0.00    +0.085 A 
ATOM     17  C   UNL     1      10.828   2.045  23.840  0.00  0.00    +0.029 A 
ATOM     18  C   UNL     1       9.490   1.594  23.671  0.00  0.00    +0.019 A 
ATOM     19  C   UNL     1       8.785   0.398  23.907  0.00  0.00    +0.023 A 
ENDBRANCH   8  10
BRANCH   6  20
ATOM     20  C   UNL     1       5.826  -4.142  22.890  0.00  0.00    +0.109 C 
ATOM     21  C   UNL     1       6.840  -5.197  23.349  0.00  0.00    +0.027 C 
ATOM     22  C   UNL     1       7.125  -6.068  22.123  0.00  0.00    +0.002 C 
ATOM     23  C   UNL     1       6.221  -5.552  21.010  0.00  0.00    +0.002 C 
ATOM     24  C   UNL     1       5.980  -4.094  21.369  0.00  0.00    +0.027 C 
ENDBRANCH   6  20
BRANCH   1  25
ATOM     25  N   UNL     1       5.196   0.811  26.355  0.00  0.00    -0.342 N 
ATOM     26  H   UNL     1       4.495   1.364  25.870  0.00  0.00    +0.144 HD
ATOM     27  H   UNL     1       6.139   1.166  26.263  0.00  0.00    +0.144 HD
ENDBRANCH   1  25
TORSDOF 3
ENDMDL
MODEL 8
REMARK VINA RESULT:      -6.8      2.219      2.663
REMARK  Name = 
REMARK  3 active torsions:
REMARK  status: ('A' for Active; 'I' for Inactive)
REMARK    1  A    between atoms: N_1  and  C_2
REMARK    2  A    between atoms: N_8  and  C_20
REMARK    3  A    between atoms: C_10  and  C_11
REMARK                            x       y       z     vdW  Elec       q    Type
REMARK                         _______ _______ _______ _____ _____    ______ ____
ROOT
ATOM      1  C   UNL     1       9.311  -3.038  24.158  0.00  0.00    +0.131 A 
ATOM      2  N   UNL     1       9.759  -4.264  24.500  0.00  0.00    -0.220 NA
ATOM      3  C   UNL     1       8.862  -5.237  24.740  0.00  0.00    +0.225 A 
ATOM      4  N   UNL     1       7.527  -5.145  24.702  0.00  0.00    -0.216 NA
ATOM      5  C   UNL     1       7.125  -3.914  24.341  0.00  0.00    +0.164 A 
ATOM      6  N   UNL     1       5.835  -3.485  24.213  0.00  0.00    -0.243 N 
ATOM      7  N   UNL     1       5.736  -2.200  23.809  0.00  0.00    -0.168 NA
ATOM      8  C   UNL     1       7.013  -1.791  23.652  0.00  0.00    +0.107 A 
ATOM      9  C   UNL     1       7.931  -2.828  24.030  0.00  0.00    +0.086 A 
ENDROOT
BRANCH   8  10
ATOM     10  C   UNL     1       7.284  -0.435  23.156  0.00  0.00    +0.022 A 
ATOM     11  C   UNL     1       8.262  -0.182  22.194  0.00  0.00    +0.123 A 
ATOM     12  N   UNL     1       8.634   1.033  21.709  0.00  0.00    -0.237 NA
ATOM     13  C   UNL     1       7.885   2.034  22.201  0.00  0.00    +0.138 A 
ATOM     14  N   UNL     1       8.042   3.351  21.867  0.00  0.00    -0.346 N 
ATOM     15  H   UNL     1       8.758   3.687  21.241  0.00  0.00    +0.167 HD
ATOM     16  C   UNL     1       7.069   4.102  22.477  0.00  0.00    +0.085 A 
ATOM     17  C   UNL     1       6.308   3.253  23.256  0.00  0.00    +0.029 A 
ATOM     18  C   UNL     1       6.832   1.939  23.102  0.00  0.00    +0.019 A 
ATOM     19  C   UNL     1       6.531   0.662  23.611  0.00  0.00    +0.023 A 
ENDBRANCH   8  10
BRANCH   6  20
ATOM     20  C   UNL     1       4.651  -4.268  24.499  0.00  0.00    +0.109 C 
ATOM     21  C   UNL     1       4.117  -5.079  23.312  0.00  0.00    +0.027 C 
ATOM     22  C   UNL     1       2.596  -5.121  23.482  0.00  0.00    +0.002 C 
ATOM     23  C   UNL     1       2.289  -4.405  24.791  0.00  0.00    +0.002 C 
ATOM     24  C   UNL     1       3.453  -3.443  24.973  0.00  0.00    +0.027 C 
ENDBRANCH   6  20
BRANCH   1  25
ATOM     25  N   UNL     1      10.295  -2.072  23.989  0.00  0.00    -0.342 N 
ATOM     26  H   UNL     1      10.899  -2.066  24.807  0.00  0.00    +0.144 HD
ATOM     27  H   UNL     1       9.941  -1.159  23.731  0.00  0.00    +0.144 HD
ENDBRANCH   1  25
TORSDOF 3
ENDMDL
MODEL 9
REMARK VINA RESULT:      -6.6      1.813      3.667
REMARK  Name = 
REMARK  3 active torsions:
REMARK  status: ('A' for Active; 'I' for Inactive)
REMARK    1  A    between atoms: N_1  and  C_2
REMARK    2  A    between atoms: N_8  and  C_20
REMARK    3  A    between atoms: C_10  and  C_11
REMARK                            x       y       z     vdW  Elec       q    Type
REMARK                         _______ _______ _______ _____ _____    ______ ____
ROOT
ATOM      1  C   UNL     1       8.856  -1.021  22.067  0.00  0.00    +0.131 A 
ATOM      2  N   UNL     1       8.547  -2.200  21.489  0.00  0.00    -0.220 NA
ATOM      3  C   UNL     1       8.092  -3.201  22.263  0.00  0.00    +0.225 A 
ATOM      4  N   UNL     1       7.914  -3.192  23.590  0.00  0.00    -0.216 NA
ATOM      5  C   UNL     1       8.216  -1.995  24.123  0.00  0.00    +0.164 A 
ATOM      6  N   UNL     1       8.151  -1.653  25.443  0.00  0.00    -0.243 N 
ATOM      7  N   UNL     1       8.492  -0.367  25.680  0.00  0.00    -0.168 NA
ATOM      8  C   UNL     1       8.769   0.144  24.461  0.00  0.00    +0.107 A 
ATOM      9  C   UNL     1       8.660  -0.867  23.448  0.00  0.00    +0.086 A 
ENDROOT
BRANCH   8  10
ATOM     10  C   UNL     1       9.125   1.563  24.334  0.00  0.00    +0.022 A 
ATOM     11  C   UNL     1       8.255   2.581  24.726  0.00  0.00    +0.123 A 
ATOM     12  N   UNL     1       8.458   3.920  24.600  0.00  0.00    -0.237 NA
ATOM     13  C   UNL     1       9.674   4.213  24.110  0.00  0.00    +0.138 A 
ATOM     14  N   UNL     1      10.136   5.482  23.897  0.00  0.00    -0.346 N 
ATOM     15  H   UNL     1       9.586   6.312  24.065  0.00  0.00    +0.167 HD
ATOM     16  C   UNL     1      11.438   5.435  23.470  0.00  0.00    +0.085 A 
ATOM     17  C   UNL     1      11.798   4.107  23.360  0.00  0.00    +0.029 A 
ATOM     18  C   UNL     1      10.676   3.322  23.746  0.00  0.00    +0.019 A 
ATOM     19  C   UNL     1      10.386   1.948  23.846  0.00  0.00    +0.023 A 
ENDBRANCH   8  10
BRANCH   6  20
ATOM     20  C   UNL     1       7.794  -2.540  26.530  0.00  0.00    +0.109 C 
ATOM     21  C   UNL     1       8.546  -3.877  26.540  0.00  0.00    +0.027 C 
ATOM     22  C   UNL     1       7.567  -4.906  27.109  0.00  0.00    +0.002 C 
ATOM     23  C   UNL     1       6.305  -4.138  27.484  0.00  0.00    +0.002 C 
ATOM     24  C   UNL     1       6.315  -2.929  26.562  0.00  0.00    +0.027 C 
ENDBRANCH   6  20
BRANCH   1  25
ATOM     25  N   UNL     1       9.380  -0.059  21.213  0.00  0.00    -0.342 N 
ATOM     26  H   UNL     1      10.394  -0.115  21.230  0.00  0.00    +0.144 HD
ATOM     27  H   UNL     1       9.016   0.874  21.364  0.00  0.00    +0.144 HD
ENDBRANCH   1  25
TORSDOF 3
ENDMDL
