MODEL 1
REMARK VINA RESULT:      -6.6      0.000      0.000
REMARK  Name = 
REMARK  16 active torsions:
REMARK  status: ('A' for Active; 'I' for Inactive)
REMARK    1  A    between atoms: C_1  and  C_2
REMARK    2  A    between atoms: C_2  and  C_3
REMARK    3  A    between atoms: C_3  and  C_4
REMARK    4  A    between atoms: C_4  and  C_5
REMARK    5  A    between atoms: C_5  and  N_6
REMARK    6  A    between atoms: C_7  and  C_9
REMARK    7  A    between atoms: C_9  and  C_11
REMARK    8  A    between atoms: C_9  and  N_37
REMARK    9  A    between atoms: C_11  and  C_12
REMARK   10  A    between atoms: C_15  and  N_16
REMARK   11  A    between atoms: N_16  and  C_22
REMARK   12  A    between atoms: C_17  and  C_19
REMARK   13  A    between atoms: C_19  and  O_20
REMARK   14  A    between atoms: C_27  and  C_28
REMARK   15  A    between atoms: C_28  and  O_29
REMARK   16  A    between atoms: C_38  and  C_39
REMARK                            x       y       z     vdW  Elec       q    Type
REMARK                         _______ _______ _______ _____ _____    ______ ____
ROOT
ATOM      1  C   UNL     1       6.214  -4.253  22.865  0.00  0.00    -0.037 A 
ATOM      2  C   UNL     1       7.425  -4.360  23.605  0.00  0.00    -0.013 A 
ATOM      3  C   UNL     1       7.977  -5.609  23.963  0.00  0.00    +0.009 A 
ATOM      4  C   UNL     1       9.055  -5.736  24.837  0.00  0.00    +0.001 A 
ATOM      5  C   UNL     1       9.636  -4.593  25.354  0.00  0.00    +0.001 A 
ATOM      6  C   UNL     1       9.187  -3.330  24.948  0.00  0.00    +0.010 A 
ATOM      7  C   UNL     1       8.093  -3.162  24.056  0.00  0.00    +0.004 A 
ATOM      8  C   UNL     1       7.569  -1.880  23.689  0.00  0.00    +0.050 A 
ATOM      9  C   UNL     1       6.346  -1.820  23.009  0.00  0.00    +0.025 A 
ATOM     10  C   UNL     1       5.686  -2.981  22.600  0.00  0.00    +0.006 A 
ENDROOT
BRANCH   8  11
ATOM     11  N   UNL     1       8.230  -0.626  23.953  0.00  0.00    -0.230 N 
ATOM     12  C   UNL     1       9.454  -0.237  23.390  0.00  0.00    +0.332 C 
ATOM     13  O   UNL     1      10.320   0.389  24.001  0.00  0.00    -0.262 OA
BRANCH  11  14
ATOM     14  C   UNL     1       7.692   0.202  24.988  0.00  0.00    +0.056 A 
ATOM     15  C   UNL     1       7.070   1.451  24.737  0.00  0.00    +0.081 A 
ATOM     16  C   UNL     1       6.610   2.229  25.818  0.00  0.00    +0.017 A 
ATOM     17  C   UNL     1       6.778   1.792  27.131  0.00  0.00    +0.001 A 
ATOM     18  C   UNL     1       7.430   0.588  27.381  0.00  0.00    +0.002 A 
ATOM     19  C   UNL     1       7.874  -0.206  26.321  0.00  0.00    +0.025 A 
BRANCH  15  20
ATOM     20  C   UNL     1       6.880   1.987  23.356  0.00  0.00    +0.339 C 
ATOM     21  O   UNL     1       7.671   2.714  22.783  0.00  0.00    -0.245 OA
BRANCH  20  22
ATOM     22  O   UNL     1       5.737   1.575  22.757  0.00  0.00    -0.477 OA
ATOM     23  H   UNL     1       5.582   1.896  21.850  0.00  0.00    +0.295 HD
ENDBRANCH  20  22
ENDBRANCH  15  20
ENDBRANCH  11  14
BRANCH  12  24
ATOM     24  C   UNL     1       9.590  -0.442  21.852  0.00  0.00    +0.393 C 
ATOM     25  O   UNL     1       9.209   0.320  20.985  0.00  0.00    -0.240 OA
BRANCH  24  26
ATOM     26  O   UNL     1      10.297  -1.549  21.557  0.00  0.00    -0.474 OA
ATOM     27  H   UNL     1       9.723  -2.067  20.960  0.00  0.00    +0.296 HD
ENDBRANCH  24  26
ENDBRANCH  12  24
ENDBRANCH   8  11
BRANCH   1  28
ATOM     28  C   UNL     1       5.365  -5.465  22.475  0.00  0.00    +0.067 C 
BRANCH  28  29
ATOM     29  C   UNL     1       4.061  -5.713  23.262  0.00  0.00    +0.163 C 
BRANCH  29  30
ATOM     30  N   UNL     1       3.097  -6.612  22.610  0.00  0.00    -0.304 N 
ATOM     31  H   UNL     1       3.464  -7.513  22.327  0.00  0.00    +0.149 HD
ATOM     32  C   UNL     1       1.734  -6.482  22.657  0.00  0.00    +0.211 C 
ATOM     33  O   UNL     1       1.166  -5.513  23.154  0.00  0.00    -0.276 OA
ATOM     34  C   UNL     1       0.970  -7.601  22.003  0.00  0.00    +0.109 C 
ENDBRANCH  29  30
BRANCH  29  37
ATOM     35  N   UNL     1       4.319  -5.135  25.661  0.00  0.00    -0.314 N 
ATOM     36  H   UNL     1       4.206  -4.175  25.324  0.00  0.00    +0.149 HD
ATOM     37  C   UNL     1       4.432  -6.129  24.718  0.00  0.00    +0.234 C 
ATOM     38  O   UNL     1       4.664  -7.303  25.005  0.00  0.00    -0.274 OA
BRANCH  35  39
ATOM     39  C   UNL     1       4.487  -5.325  27.086  0.00  0.00    +0.104 C 
BRANCH  39  40
ATOM     40  C   UNL     1       5.839  -4.779  27.557  0.00  0.00    +0.019 C 
BRANCH  40  41
ATOM     41  C   UNL     1       6.115  -3.377  27.004  0.00  0.00    +0.001 C 
BRANCH  41  43
ATOM     42  C   UNL     1       4.519  -1.583  26.267  0.00  0.00    +0.004 C 
ATOM     43  C   UNL     1       5.067  -2.359  27.455  0.00  0.00    -0.003 C 
ENDBRANCH  41  43
ENDBRANCH  40  41
ENDBRANCH  39  40
ENDBRANCH  35  39
ENDBRANCH  29  37
ENDBRANCH  28  29
ENDBRANCH   1  28
TORSDOF 14
ENDMDL
MODEL 2
REMARK VINA RESULT:      -5.9      2.147      7.612
REMARK  Name = 
REMARK  16 active torsions:
REMARK  status: ('A' for Active; 'I' for Inactive)
REMARK    1  A    between atoms: C_1  and  C_2
REMARK    2  A    between atoms: C_2  and  C_3
REMARK    3  A    between atoms: C_3  and  C_4
REMARK    4  A    between atoms: C_4  and  C_5
REMARK    5  A    between atoms: C_5  and  N_6
REMARK    6  A    between atoms: C_7  and  C_9
REMARK    7  A    between atoms: C_9  and  C_11
REMARK    8  A    between atoms: C_9  and  N_37
REMARK    9  A    between atoms: C_11  and  C_12
REMARK   10  A    between atoms: C_15  and  N_16
REMARK   11  A    between atoms: N_16  and  C_22
REMARK   12  A    between atoms: C_17  and  C_19
REMARK   13  A    between atoms: C_19  and  O_20
REMARK   14  A    between atoms: C_27  and  C_28
REMARK   15  A    between atoms: C_28  and  O_29
REMARK   16  A    between atoms: C_38  and  C_39
REMARK                            x       y       z     vdW  Elec       q    Type
REMARK                         _______ _______ _______ _____ _____    ______ ____
ROOT
ATOM      1  C   UNL     1       6.813  -1.480  26.255  0.00  0.00    -0.037 A 
ATOM      2  C   UNL     1       7.211  -2.846  26.225  0.00  0.00    -0.013 A 
ATOM      3  C   UNL     1       8.489  -3.264  26.657  0.00  0.00    +0.009 A 
ATOM      4  C   UNL     1       8.962  -4.561  26.469  0.00  0.00    +0.001 A 
ATOM      5  C   UNL     1       8.140  -5.493  25.864  0.00  0.00    +0.001 A 
ATOM      6  C   UNL     1       6.828  -5.151  25.511  0.00  0.00    +0.010 A 
ATOM      7  C   UNL     1       6.310  -3.839  25.690  0.00  0.00    +0.004 A 
ATOM      8  C   UNL     1       4.999  -3.448  25.266  0.00  0.00    +0.050 A 
ATOM      9  C   UNL     1       4.670  -2.087  25.259  0.00  0.00    +0.025 A 
ATOM     10  C   UNL     1       5.555  -1.124  25.749  0.00  0.00    +0.006 A 
ENDROOT
BRANCH   8  11
ATOM     11  N   UNL     1       3.968  -4.370  24.859  0.00  0.00    -0.230 N 
ATOM     12  C   UNL     1       3.701  -4.732  23.530  0.00  0.00    +0.332 C 
ATOM     13  O   UNL     1       2.568  -4.916  23.085  0.00  0.00    -0.262 OA
BRANCH  11  14
ATOM     14  C   UNL     1       3.044  -4.812  25.857  0.00  0.00    +0.056 A 
ATOM     15  C   UNL     1       3.066  -6.117  26.410  0.00  0.00    +0.081 A 
ATOM     16  C   UNL     1       2.087  -6.490  27.354  0.00  0.00    +0.017 A 
ATOM     17  C   UNL     1       1.089  -5.594  27.733  0.00  0.00    +0.001 A 
ATOM     18  C   UNL     1       1.038  -4.329  27.157  0.00  0.00    +0.002 A 
ATOM     19  C   UNL     1       2.012  -3.936  26.235  0.00  0.00    +0.025 A 
BRANCH  15  20
ATOM     20  C   UNL     1       4.095  -7.131  26.029  0.00  0.00    +0.339 C 
ATOM     21  O   UNL     1       4.131  -7.708  24.958  0.00  0.00    -0.245 OA
BRANCH  20  22
ATOM     22  O   UNL     1       5.028  -7.354  26.984  0.00  0.00    -0.477 OA
ATOM     23  H   UNL     1       5.748  -7.969  26.753  0.00  0.00    +0.295 HD
ENDBRANCH  20  22
ENDBRANCH  15  20
ENDBRANCH  11  14
BRANCH  12  24
ATOM     24  C   UNL     1       4.941  -5.118  22.670  0.00  0.00    +0.393 C 
ATOM     25  O   UNL     1       5.615  -4.366  21.993  0.00  0.00    -0.240 OA
BRANCH  24  26
ATOM     26  O   UNL     1       5.280  -6.410  22.836  0.00  0.00    -0.474 OA
ATOM     27  H   UNL     1       4.845  -6.684  23.667  0.00  0.00    +0.296 HD
ENDBRANCH  24  26
ENDBRANCH  12  24
ENDBRANCH   8  11
BRANCH   1  28
ATOM     28  C   UNL     1       7.756  -0.345  26.666  0.00  0.00    +0.067 C 
BRANCH  28  29
ATOM     29  C   UNL     1       7.533   1.042  26.027  0.00  0.00    +0.163 C 
BRANCH  29  30
ATOM     30  N   UNL     1       7.508   2.170  26.972  0.00  0.00    -0.304 N 
ATOM     31  H   UNL     1       8.243   2.857  26.848  0.00  0.00    +0.149 HD
ATOM     32  C   UNL     1       6.437   2.534  27.744  0.00  0.00    +0.211 C 
ATOM     33  O   UNL     1       5.406   1.870  27.822  0.00  0.00    -0.276 OA
ATOM     34  C   UNL     1       6.632   3.795  28.540  0.00  0.00    +0.109 C 
ENDBRANCH  29  30
BRANCH  29  37
ATOM     35  N   UNL     1       9.644   0.389  24.900  0.00  0.00    -0.314 N 
ATOM     36  H   UNL     1       9.819  -0.118  25.772  0.00  0.00    +0.149 HD
ATOM     37  C   UNL     1       8.547   1.217  24.857  0.00  0.00    +0.234 C 
ATOM     38  O   UNL     1       8.292   1.944  23.897  0.00  0.00    -0.274 OA
BRANCH  35  39
ATOM     39  C   UNL     1      10.644   0.288  23.858  0.00  0.00    +0.104 C 
BRANCH  39  40
ATOM     40  C   UNL     1      10.253  -0.770  22.821  0.00  0.00    +0.019 C 
BRANCH  40  41
ATOM     41  C   UNL     1       9.948  -2.124  23.471  0.00  0.00    +0.001 C 
BRANCH  41  43
ATOM     42  C   UNL     1       7.641  -1.607  22.624  0.00  0.00    +0.004 C 
ATOM     43  C   UNL     1       8.621  -2.712  22.990  0.00  0.00    -0.003 C 
ENDBRANCH  41  43
ENDBRANCH  40  41
ENDBRANCH  39  40
ENDBRANCH  35  39
ENDBRANCH  29  37
ENDBRANCH  28  29
ENDBRANCH   1  28
TORSDOF 14
ENDMDL
MODEL 3
REMARK VINA RESULT:      -5.9      2.636      7.846
REMARK  Name = 
REMARK  16 active torsions:
REMARK  status: ('A' for Active; 'I' for Inactive)
REMARK    1  A    between atoms: C_1  and  C_2
REMARK    2  A    between atoms: C_2  and  C_3
REMARK    3  A    between atoms: C_3  and  C_4
REMARK    4  A    between atoms: C_4  and  C_5
REMARK    5  A    between atoms: C_5  and  N_6
REMARK    6  A    between atoms: C_7  and  C_9
REMARK    7  A    between atoms: C_9  and  C_11
REMARK    8  A    between atoms: C_9  and  N_37
REMARK    9  A    between atoms: C_11  and  C_12
REMARK   10  A    between atoms: C_15  and  N_16
REMARK   11  A    between atoms: N_16  and  C_22
REMARK   12  A    between atoms: C_17  and  C_19
REMARK   13  A    between atoms: C_19  and  O_20
REMARK   14  A    between atoms: C_27  and  C_28
REMARK   15  A    between atoms: C_28  and  O_29
REMARK   16  A    between atoms: C_38  and  C_39
REMARK                            x       y       z     vdW  Elec       q    Type
REMARK                         _______ _______ _______ _____ _____    ______ ____
ROOT
ATOM      1  C   UNL     1       6.181   1.228  24.060  0.00  0.00    -0.037 A 
ATOM      2  C   UNL     1       6.115   1.015  25.466  0.00  0.00    -0.013 A 
ATOM      3  C   UNL     1       6.052   2.087  26.384  0.00  0.00    +0.009 A 
ATOM      4  C   UNL     1       6.170   1.909  27.761  0.00  0.00    +0.001 A 
ATOM      5  C   UNL     1       6.323   0.629  28.260  0.00  0.00    +0.001 A 
ATOM      6  C   UNL     1       6.290  -0.472  27.396  0.00  0.00    +0.010 A 
ATOM      7  C   UNL     1       6.168  -0.330  25.987  0.00  0.00    +0.004 A 
ATOM      8  C   UNL     1       6.210  -1.437  25.079  0.00  0.00    +0.050 A 
ATOM      9  C   UNL     1       6.330  -1.182  23.707  0.00  0.00    +0.025 A 
ATOM     10  C   UNL     1       6.309   0.121  23.208  0.00  0.00    +0.006 A 
ENDROOT
BRANCH   8  11
ATOM     11  N   UNL     1       6.113  -2.819  25.479  0.00  0.00    -0.230 N 
ATOM     12  C   UNL     1       4.991  -3.394  26.094  0.00  0.00    +0.332 C 
ATOM     13  O   UNL     1       5.058  -4.240  26.986  0.00  0.00    -0.262 OA
BRANCH  11  14
ATOM     14  C   UNL     1       7.299  -3.616  25.403  0.00  0.00    +0.056 A 
ATOM     15  C   UNL     1       7.544  -4.544  24.360  0.00  0.00    +0.081 A 
ATOM     16  C   UNL     1       8.716  -5.327  24.386  0.00  0.00    +0.017 A 
ATOM     17  C   UNL     1       9.625  -5.210  25.436  0.00  0.00    +0.001 A 
ATOM     18  C   UNL     1       9.364  -4.333  26.484  0.00  0.00    +0.002 A 
ATOM     19  C   UNL     1       8.217  -3.535  26.464  0.00  0.00    +0.025 A 
BRANCH  15  20
ATOM     20  C   UNL     1       6.599  -4.734  23.219  0.00  0.00    +0.339 C 
ATOM     21  O   UNL     1       5.568  -5.379  23.277  0.00  0.00    -0.245 OA
BRANCH  20  22
ATOM     22  O   UNL     1       6.971  -4.097  22.083  0.00  0.00    -0.477 OA
ATOM     23  H   UNL     1       6.252  -3.788  21.503  0.00  0.00    +0.295 HD
ENDBRANCH  20  22
ENDBRANCH  15  20
ENDBRANCH  11  14
BRANCH  12  24
ATOM     24  C   UNL     1       3.617  -3.075  25.434  0.00  0.00    +0.393 C 
ATOM     25  O   UNL     1       2.845  -2.195  25.761  0.00  0.00    -0.240 OA
BRANCH  24  26
ATOM     26  O   UNL     1       3.399  -3.835  24.344  0.00  0.00    -0.474 OA
ATOM     27  H   UNL     1       3.108  -3.211  23.652  0.00  0.00    +0.296 HD
ENDBRANCH  24  26
ENDBRANCH  12  24
ENDBRANCH   8  11
BRANCH   1  28
ATOM     28  C   UNL     1       6.280   2.620  23.431  0.00  0.00    +0.067 C 
BRANCH  28  29
ATOM     29  C   UNL     1       7.600   2.999  22.726  0.00  0.00    +0.163 C 
BRANCH  29  30
ATOM     30  N   UNL     1       7.627   4.343  22.129  0.00  0.00    -0.304 N 
ATOM     31  H   UNL     1       7.854   4.375  21.142  0.00  0.00    +0.149 HD
ATOM     32  C   UNL     1       7.067   5.466  22.677  0.00  0.00    +0.211 C 
ATOM     33  O   UNL     1       6.581   5.495  23.805  0.00  0.00    -0.276 OA
ATOM     34  C   UNL     1       7.133   6.693  21.810  0.00  0.00    +0.109 C 
ENDBRANCH  29  30
BRANCH  29  37
ATOM     35  N   UNL     1       9.646   1.721  23.304  0.00  0.00    -0.314 N 
ATOM     36  H   UNL     1       9.350   1.118  22.532  0.00  0.00    +0.149 HD
ATOM     37  C   UNL     1       8.781   2.714  23.702  0.00  0.00    +0.234 C 
ATOM     38  O   UNL     1       8.990   3.435  24.677  0.00  0.00    -0.274 OA
BRANCH  35  39
ATOM     39  C   UNL     1      10.876   1.376  23.986  0.00  0.00    +0.104 C 
BRANCH  39  40
ATOM     40  C   UNL     1      10.634   0.292  25.040  0.00  0.00    +0.019 C 
BRANCH  40  41
ATOM     41  C   UNL     1       9.638  -0.767  24.556  0.00  0.00    +0.001 C 
BRANCH  41  43
ATOM     42  C   UNL     1       9.624  -1.727  22.235  0.00  0.00    +0.004 C 
ATOM     43  C   UNL     1      10.283  -1.777  23.606  0.00  0.00    -0.003 C 
ENDBRANCH  41  43
ENDBRANCH  40  41
ENDBRANCH  39  40
ENDBRANCH  35  39
ENDBRANCH  29  37
ENDBRANCH  28  29
ENDBRANCH   1  28
TORSDOF 14
ENDMDL
MODEL 4
REMARK VINA RESULT:      -5.8      3.213      8.274
REMARK  Name = 
REMARK  16 active torsions:
REMARK  status: ('A' for Active; 'I' for Inactive)
REMARK    1  A    between atoms: C_1  and  C_2
REMARK    2  A    between atoms: C_2  and  C_3
REMARK    3  A    between atoms: C_3  and  C_4
REMARK    4  A    between atoms: C_4  and  C_5
REMARK    5  A    between atoms: C_5  and  N_6
REMARK    6  A    between atoms: C_7  and  C_9
REMARK    7  A    between atoms: C_9  and  C_11
REMARK    8  A    between atoms: C_9  and  N_37
REMARK    9  A    between atoms: C_11  and  C_12
REMARK   10  A    between atoms: C_15  and  N_16
REMARK   11  A    between atoms: N_16  and  C_22
REMARK   12  A    between atoms: C_17  and  C_19
REMARK   13  A    between atoms: C_19  and  O_20
REMARK   14  A    between atoms: C_27  and  C_28
REMARK   15  A    between atoms: C_28  and  O_29
REMARK   16  A    between atoms: C_38  and  C_39
REMARK                            x       y       z     vdW  Elec       q    Type
REMARK                         _______ _______ _______ _____ _____    ______ ____
ROOT
ATOM      1  C   UNL     1       6.898   0.067  23.866  0.00  0.00    -0.037 A 
ATOM      2  C   UNL     1       6.277  -0.523  25.003  0.00  0.00    -0.013 A 
ATOM      3  C   UNL     1       5.586   0.247  25.963  0.00  0.00    +0.009 A 
ATOM      4  C   UNL     1       5.131  -0.283  27.169  0.00  0.00    +0.001 A 
ATOM      5  C   UNL     1       5.331  -1.626  27.429  0.00  0.00    +0.001 A 
ATOM      6  C   UNL     1       5.922  -2.449  26.462  0.00  0.00    +0.010 A 
ATOM      7  C   UNL     1       6.396  -1.945  25.220  0.00  0.00    +0.004 A 
ATOM      8  C   UNL     1       7.072  -2.755  24.251  0.00  0.00    +0.050 A 
ATOM      9  C   UNL     1       7.715  -2.126  23.177  0.00  0.00    +0.025 A 
ATOM     10  C   UNL     1       7.626  -0.746  22.985  0.00  0.00    +0.006 A 
ENDROOT
BRANCH   8  11
ATOM     11  N   UNL     1       7.120  -4.195  24.287  0.00  0.00    -0.230 N 
ATOM     12  C   UNL     1       8.300  -4.954  24.289  0.00  0.00    +0.332 C 
ATOM     13  O   UNL     1       8.430  -6.019  23.686  0.00  0.00    -0.262 OA
BRANCH  11  14
ATOM     14  C   UNL     1       5.885  -4.903  24.135  0.00  0.00    +0.056 A 
ATOM     15  C   UNL     1       5.285  -5.152  22.875  0.00  0.00    +0.081 A 
ATOM     16  C   UNL     1       4.042  -5.813  22.816  0.00  0.00    +0.017 A 
ATOM     17  C   UNL     1       3.390  -6.208  23.983  0.00  0.00    +0.001 A 
ATOM     18  C   UNL     1       3.956  -5.923  25.222  0.00  0.00    +0.002 A 
ATOM     19  C   UNL     1       5.197  -5.286  25.299  0.00  0.00    +0.025 A 
BRANCH  15  20
ATOM     20  C   UNL     1       5.920  -4.735  21.589  0.00  0.00    +0.339 C 
ATOM     21  O   UNL     1       5.658  -3.707  20.992  0.00  0.00    -0.245 OA
BRANCH  20  22
ATOM     22  O   UNL     1       6.854  -5.600  21.130  0.00  0.00    -0.477 OA
ATOM     23  H   UNL     1       7.288  -5.365  20.290  0.00  0.00    +0.295 HD
ENDBRANCH  20  22
ENDBRANCH  15  20
ENDBRANCH  11  14
BRANCH  12  24
ATOM     24  C   UNL     1       9.399  -4.495  25.292  0.00  0.00    +0.393 C 
ATOM     25  O   UNL     1       9.245  -3.762  26.250  0.00  0.00    -0.240 OA
BRANCH  24  26
ATOM     26  O   UNL     1      10.578  -5.099  25.050  0.00  0.00    -0.474 OA
ATOM     27  H   UNL     1      11.197  -4.375  24.834  0.00  0.00    +0.296 HD
ENDBRANCH  24  26
ENDBRANCH  12  24
ENDBRANCH   8  11
BRANCH   1  28
ATOM     28  C   UNL     1       6.949   1.580  23.635  0.00  0.00    +0.067 C 
BRANCH  28  29
ATOM     29  C   UNL     1       7.938   2.404  24.486  0.00  0.00    +0.163 C 
BRANCH  29  30
ATOM     30  N   UNL     1       9.147   1.685  24.915  0.00  0.00    -0.304 N 
ATOM     31  H   UNL     1       9.063   1.170  25.784  0.00  0.00    +0.149 HD
ATOM     32  C   UNL     1      10.216   1.383  24.113  0.00  0.00    +0.211 C 
ATOM     33  O   UNL     1      10.334   1.797  22.962  0.00  0.00    -0.276 OA
ATOM     34  C   UNL     1      11.276   0.538  24.765  0.00  0.00    +0.109 C 
ENDBRANCH  29  30
BRANCH  29  37
ATOM     35  N   UNL     1       9.193   4.538  24.324  0.00  0.00    -0.314 N 
ATOM     36  H   UNL     1       9.495   4.300  25.272  0.00  0.00    +0.149 HD
ATOM     37  C   UNL     1       8.226   3.747  23.749  0.00  0.00    +0.234 C 
ATOM     38  O   UNL     1       7.722   3.993  22.654  0.00  0.00    -0.274 OA
BRANCH  35  39
ATOM     39  C   UNL     1       9.711   5.760  23.746  0.00  0.00    +0.104 C 
BRANCH  39  40
ATOM     40  C   UNL     1      10.683   6.453  24.706  0.00  0.00    +0.019 C 
BRANCH  40  41
ATOM     41  C   UNL     1      12.145   6.225  24.306  0.00  0.00    +0.001 C 
BRANCH  41  43
ATOM     42  C   UNL     1      13.265   5.582  22.152  0.00  0.00    +0.004 C 
ATOM     43  C   UNL     1      12.291   5.144  23.235  0.00  0.00    -0.003 C 
ENDBRANCH  41  43
ENDBRANCH  40  41
ENDBRANCH  39  40
ENDBRANCH  35  39
ENDBRANCH  29  37
ENDBRANCH  28  29
ENDBRANCH   1  28
TORSDOF 14
ENDMDL
MODEL 5
REMARK VINA RESULT:      -5.8      1.214      2.057
REMARK  Name = 
REMARK  16 active torsions:
REMARK  status: ('A' for Active; 'I' for Inactive)
REMARK    1  A    between atoms: C_1  and  C_2
REMARK    2  A    between atoms: C_2  and  C_3
REMARK    3  A    between atoms: C_3  and  C_4
REMARK    4  A    between atoms: C_4  and  C_5
REMARK    5  A    between atoms: C_5  and  N_6
REMARK    6  A    between atoms: C_7  and  C_9
REMARK    7  A    between atoms: C_9  and  C_11
REMARK    8  A    between atoms: C_9  and  N_37
REMARK    9  A    between atoms: C_11  and  C_12
REMARK   10  A    between atoms: C_15  and  N_16
REMARK   11  A    between atoms: N_16  and  C_22
REMARK   12  A    between atoms: C_17  and  C_19
REMARK   13  A    between atoms: C_19  and  O_20
REMARK   14  A    between atoms: C_27  and  C_28
REMARK   15  A    between atoms: C_28  and  O_29
REMARK   16  A    between atoms: C_38  and  C_39
REMARK                            x       y       z     vdW  Elec       q    Type
REMARK                         _______ _______ _______ _____ _____    ______ ____
ROOT
ATOM      1  C   UNL     1       6.106  -4.430  22.928  0.00  0.00    -0.037 A 
ATOM      2  C   UNL     1       7.361  -4.395  23.599  0.00  0.00    -0.013 A 
ATOM      3  C   UNL     1       8.026  -5.572  24.004  0.00  0.00    +0.009 A 
ATOM      4  C   UNL     1       9.158  -5.557  24.817  0.00  0.00    +0.001 A 
ATOM      5  C   UNL     1       9.676  -4.341  25.221  0.00  0.00    +0.001 A 
ATOM      6  C   UNL     1       9.109  -3.146  24.761  0.00  0.00    +0.010 A 
ATOM      7  C   UNL     1       7.957  -3.123  23.929  0.00  0.00    +0.004 A 
ATOM      8  C   UNL     1       7.315  -1.912  23.511  0.00  0.00    +0.050 A 
ATOM      9  C   UNL     1       6.056  -1.990  22.904  0.00  0.00    +0.025 A 
ATOM     10  C   UNL     1       5.466  -3.222  22.613  0.00  0.00    +0.006 A 
ENDROOT
BRANCH   8  11
ATOM     11  N   UNL     1       7.891  -0.597  23.650  0.00  0.00    -0.230 N 
ATOM     12  C   UNL     1       9.203  -0.259  23.288  0.00  0.00    +0.332 C 
ATOM     13  O   UNL     1       9.911   0.518  23.929  0.00  0.00    -0.262 OA
BRANCH  11  14
ATOM     14  C   UNL     1       7.134   0.385  24.365  0.00  0.00    +0.056 A 
ATOM     15  C   UNL     1       7.044   0.415  25.779  0.00  0.00    +0.081 A 
ATOM     16  C   UNL     1       6.236   1.387  26.404  0.00  0.00    +0.017 A 
ATOM     17  C   UNL     1       5.512   2.304  25.644  0.00  0.00    +0.001 A 
ATOM     18  C   UNL     1       5.564   2.246  24.255  0.00  0.00    +0.002 A 
ATOM     19  C   UNL     1       6.375   1.302  23.620  0.00  0.00    +0.025 A 
BRANCH  15  20
ATOM     20  C   UNL     1       7.776  -0.553  26.649  0.00  0.00    +0.339 C 
ATOM     21  O   UNL     1       7.283  -1.558  27.130  0.00  0.00    -0.245 OA
BRANCH  20  22
ATOM     22  O   UNL     1       9.076  -0.236  26.855  0.00  0.00    -0.477 OA
ATOM     23  H   UNL     1       9.258   0.667  27.172  0.00  0.00    +0.295 HD
ENDBRANCH  20  22
ENDBRANCH  15  20
ENDBRANCH  11  14
BRANCH  12  24
ATOM     24  C   UNL     1       9.667  -0.749  21.884  0.00  0.00    +0.393 C 
ATOM     25  O   UNL     1       9.306  -0.310  20.810  0.00  0.00    -0.240 OA
BRANCH  24  26
ATOM     26  O   UNL     1      10.634  -1.681  21.976  0.00  0.00    -0.474 OA
ATOM     27  H   UNL     1      10.345  -2.280  22.691  0.00  0.00    +0.296 HD
ENDBRANCH  24  26
ENDBRANCH  12  24
ENDBRANCH   8  11
BRANCH   1  28
ATOM     28  C   UNL     1       5.332  -5.726  22.672  0.00  0.00    +0.067 C 
BRANCH  28  29
ATOM     29  C   UNL     1       3.911  -5.845  23.262  0.00  0.00    +0.163 C 
BRANCH  29  30
ATOM     30  N   UNL     1       3.036  -6.821  22.595  0.00  0.00    -0.304 N 
ATOM     31  H   UNL     1       3.483  -7.686  22.314  0.00  0.00    +0.149 HD
ATOM     32  C   UNL     1       1.666  -6.808  22.625  0.00  0.00    +0.211 C 
ATOM     33  O   UNL     1       1.011  -5.893  23.118  0.00  0.00    -0.276 OA
ATOM     34  C   UNL     1       1.009  -7.986  21.958  0.00  0.00    +0.109 C 
ENDBRANCH  29  30
BRANCH  29  37
ATOM     35  N   UNL     1       3.100  -5.373  25.558  0.00  0.00    -0.314 N 
ATOM     36  H   UNL     1       2.549  -4.647  25.091  0.00  0.00    +0.149 HD
ATOM     37  C   UNL     1       4.030  -6.048  24.802  0.00  0.00    +0.234 C 
ATOM     38  O   UNL     1       4.811  -6.872  25.278  0.00  0.00    -0.274 OA
BRANCH  35  39
ATOM     39  C   UNL     1       2.941  -5.513  26.990  0.00  0.00    +0.104 C 
BRANCH  39  40
ATOM     40  C   UNL     1       3.138  -4.169  27.698  0.00  0.00    +0.019 C 
BRANCH  40  41
ATOM     41  C   UNL     1       4.603  -3.719  27.680  0.00  0.00    +0.001 C 
BRANCH  41  43
ATOM     42  C   UNL     1       6.729  -5.039  27.464  0.00  0.00    +0.004 C 
ATOM     43  C   UNL     1       5.529  -4.736  28.349  0.00  0.00    -0.003 C 
ENDBRANCH  41  43
ENDBRANCH  40  41
ENDBRANCH  39  40
ENDBRANCH  35  39
ENDBRANCH  29  37
ENDBRANCH  28  29
ENDBRANCH   1  28
TORSDOF 14
ENDMDL
MODEL 6
REMARK VINA RESULT:      -5.8      3.028      7.925
REMARK  Name = 
REMARK  16 active torsions:
REMARK  status: ('A' for Active; 'I' for Inactive)
REMARK    1  A    between atoms: C_1  and  C_2
REMARK    2  A    between atoms: C_2  and  C_3
REMARK    3  A    between atoms: C_3  and  C_4
REMARK    4  A    between atoms: C_4  and  C_5
REMARK    5  A    between atoms: C_5  and  N_6
REMARK    6  A    between atoms: C_7  and  C_9
REMARK    7  A    between atoms: C_9  and  C_11
REMARK    8  A    between atoms: C_9  and  N_37
REMARK    9  A    between atoms: C_11  and  C_12
REMARK   10  A    between atoms: C_15  and  N_16
REMARK   11  A    between atoms: N_16  and  C_22
REMARK   12  A    between atoms: C_17  and  C_19
REMARK   13  A    between atoms: C_19  and  O_20
REMARK   14  A    between atoms: C_27  and  C_28
REMARK   15  A    between atoms: C_28  and  O_29
REMARK   16  A    between atoms: C_38  and  C_39
REMARK                            x       y       z     vdW  Elec       q    Type
REMARK                         _______ _______ _______ _____ _____    ______ ____
ROOT
ATOM      1  C   UNL     1       6.885   0.178  24.829  0.00  0.00    -0.037 A 
ATOM      2  C   UNL     1       8.097  -0.235  24.207  0.00  0.00    -0.013 A 
ATOM      3  C   UNL     1       9.062   0.693  23.757  0.00  0.00    +0.009 A 
ATOM      4  C   UNL     1      10.164   0.322  22.988  0.00  0.00    +0.001 A 
ATOM      5  C   UNL     1      10.345  -1.013  22.677  0.00  0.00    +0.001 A 
ATOM      6  C   UNL     1       9.469  -1.980  23.187  0.00  0.00    +0.010 A 
ATOM      7  C   UNL     1       8.337  -1.639  23.977  0.00  0.00    +0.004 A 
ATOM      8  C   UNL     1       7.387  -2.605  24.443  0.00  0.00    +0.050 A 
ATOM      9  C   UNL     1       6.182  -2.153  24.998  0.00  0.00    +0.025 A 
ATOM     10  C   UNL     1       5.939  -0.792  25.192  0.00  0.00    +0.006 A 
ENDROOT
BRANCH   8  11
ATOM     11  N   UNL     1       7.591  -4.031  24.403  0.00  0.00    -0.230 N 
ATOM     12  C   UNL     1       8.593  -4.712  25.110  0.00  0.00    +0.332 C 
ATOM     13  O   UNL     1       9.214  -5.676  24.660  0.00  0.00    -0.262 OA
BRANCH  11  14
ATOM     14  C   UNL     1       6.836  -4.783  23.448  0.00  0.00    +0.056 A 
ATOM     15  C   UNL     1       5.747  -5.617  23.805  0.00  0.00    +0.081 A 
ATOM     16  C   UNL     1       5.087  -6.363  22.808  0.00  0.00    +0.017 A 
ATOM     17  C   UNL     1       5.507  -6.303  21.480  0.00  0.00    +0.001 A 
ATOM     18  C   UNL     1       6.604  -5.521  21.136  0.00  0.00    +0.002 A 
ATOM     19  C   UNL     1       7.258  -4.759  22.108  0.00  0.00    +0.025 A 
BRANCH  15  20
ATOM     20  C   UNL     1       5.263  -5.744  25.212  0.00  0.00    +0.339 C 
ATOM     21  O   UNL     1       5.781  -6.447  26.059  0.00  0.00    -0.245 OA
BRANCH  20  22
ATOM     22  O   UNL     1       4.182  -4.978  25.494  0.00  0.00    -0.477 OA
ATOM     23  H   UNL     1       3.501  -4.916  24.801  0.00  0.00    +0.295 HD
ENDBRANCH  20  22
ENDBRANCH  15  20
ENDBRANCH  11  14
BRANCH  12  24
ATOM     24  C   UNL     1       8.742  -4.332  26.612  0.00  0.00    +0.393 C 
ATOM     25  O   UNL     1       9.157  -3.278  27.054  0.00  0.00    -0.240 OA
BRANCH  24  26
ATOM     26  O   UNL     1       8.246  -5.287  27.420  0.00  0.00    -0.474 OA
ATOM     27  H   UNL     1       8.020  -4.827  28.252  0.00  0.00    +0.296 HD
ENDBRANCH  24  26
ENDBRANCH  12  24
ENDBRANCH   8  11
BRANCH   1  28
ATOM     28  C   UNL     1       6.483   1.647  24.979  0.00  0.00    +0.067 C 
BRANCH  28  29
ATOM     29  C   UNL     1       5.660   2.288  23.841  0.00  0.00    +0.163 C 
BRANCH  29  30
ATOM     30  N   UNL     1       4.371   2.867  24.250  0.00  0.00    -0.304 N 
ATOM     31  H   UNL     1       4.318   3.175  25.215  0.00  0.00    +0.149 HD
ATOM     32  C   UNL     1       3.398   3.319  23.398  0.00  0.00    +0.211 C 
ATOM     33  O   UNL     1       3.449   3.172  22.179  0.00  0.00    -0.276 OA
ATOM     34  C   UNL     1       2.223   3.973  24.070  0.00  0.00    +0.109 C 
ENDBRANCH  29  30
BRANCH  29  37
ATOM     35  N   UNL     1       7.060   4.335  23.790  0.00  0.00    -0.314 N 
ATOM     36  H   UNL     1       6.630   4.513  24.702  0.00  0.00    +0.149 HD
ATOM     37  C   UNL     1       6.579   3.274  23.059  0.00  0.00    +0.234 C 
ATOM     38  O   UNL     1       6.953   3.023  21.914  0.00  0.00    -0.274 OA
BRANCH  35  39
ATOM     39  C   UNL     1       8.026   5.299  23.308  0.00  0.00    +0.104 C 
BRANCH  39  40
ATOM     40  C   UNL     1       9.435   4.962  23.807  0.00  0.00    +0.019 C 
BRANCH  40  41
ATOM     41  C   UNL     1      10.333   6.202  23.869  0.00  0.00    +0.001 C 
BRANCH  41  43
ATOM     42  C   UNL     1      12.116   4.547  23.243  0.00  0.00    +0.004 C 
ATOM     43  C   UNL     1      11.814   5.839  23.988  0.00  0.00    -0.003 C 
ENDBRANCH  41  43
ENDBRANCH  40  41
ENDBRANCH  39  40
ENDBRANCH  35  39
ENDBRANCH  29  37
ENDBRANCH  28  29
ENDBRANCH   1  28
TORSDOF 14
ENDMDL
MODEL 7
REMARK VINA RESULT:      -5.8      3.016      7.936
REMARK  Name = 
REMARK  16 active torsions:
REMARK  status: ('A' for Active; 'I' for Inactive)
REMARK    1  A    between atoms: C_1  and  C_2
REMARK    2  A    between atoms: C_2  and  C_3
REMARK    3  A    between atoms: C_3  and  C_4
REMARK    4  A    between atoms: C_4  and  C_5
REMARK    5  A    between atoms: C_5  and  N_6
REMARK    6  A    between atoms: C_7  and  C_9
REMARK    7  A    between atoms: C_9  and  C_11
REMARK    8  A    between atoms: C_9  and  N_37
REMARK    9  A    between atoms: C_11  and  C_12
REMARK   10  A    between atoms: C_15  and  N_16
REMARK   11  A    between atoms: N_16  and  C_22
REMARK   12  A    between atoms: C_17  and  C_19
REMARK   13  A    between atoms: C_19  and  O_20
REMARK   14  A    between atoms: C_27  and  C_28
REMARK   15  A    between atoms: C_28  and  O_29
REMARK   16  A    between atoms: C_38  and  C_39
REMARK                            x       y       z     vdW  Elec       q    Type
REMARK                         _______ _______ _______ _____ _____    ______ ____
ROOT
ATOM      1  C   UNL     1       8.184   0.230  25.440  0.00  0.00    -0.037 A 
ATOM      2  C   UNL     1       8.635  -0.290  24.195  0.00  0.00    -0.013 A 
ATOM      3  C   UNL     1       9.338   0.503  23.262  0.00  0.00    +0.009 A 
ATOM      4  C   UNL     1       9.627   0.069  21.969  0.00  0.00    +0.001 A 
ATOM      5  C   UNL     1       9.243  -1.203  21.588  0.00  0.00    +0.001 A 
ATOM      6  C   UNL     1       8.633  -2.061  22.512  0.00  0.00    +0.010 A 
ATOM      7  C   UNL     1       8.325  -1.654  23.839  0.00  0.00    +0.004 A 
ATOM      8  C   UNL     1       7.633  -2.489  24.775  0.00  0.00    +0.050 A 
ATOM      9  C   UNL     1       7.158  -1.921  25.964  0.00  0.00    +0.025 A 
ATOM     10  C   UNL     1       7.433  -0.592  26.292  0.00  0.00    +0.006 A 
ENDROOT
BRANCH   8  11
ATOM     11  N   UNL     1       7.404  -3.900  24.590  0.00  0.00    -0.230 N 
ATOM     12  C   UNL     1       8.418  -4.863  24.470  0.00  0.00    +0.332 C 
ATOM     13  O   UNL     1       8.357  -5.830  23.711  0.00  0.00    -0.262 OA
BRANCH  11  14
ATOM     14  C   UNL     1       6.062  -4.327  24.339  0.00  0.00    +0.056 A 
ATOM     15  C   UNL     1       5.284  -5.038  25.287  0.00  0.00    +0.081 A 
ATOM     16  C   UNL     1       3.986  -5.466  24.942  0.00  0.00    +0.017 A 
ATOM     17  C   UNL     1       3.469  -5.214  23.673  0.00  0.00    +0.001 A 
ATOM     18  C   UNL     1       4.248  -4.557  22.726  0.00  0.00    +0.002 A 
ATOM     19  C   UNL     1       5.529  -4.108  23.057  0.00  0.00    +0.025 A 
BRANCH  15  20
ATOM     20  C   UNL     1       5.788  -5.360  26.656  0.00  0.00    +0.339 C 
ATOM     21  O   UNL     1       6.460  -6.337  26.931  0.00  0.00    -0.245 OA
BRANCH  20  22
ATOM     22  O   UNL     1       5.452  -4.446  27.596  0.00  0.00    -0.477 OA
ATOM     23  H   UNL     1       4.874  -3.718  27.307  0.00  0.00    +0.295 HD
ENDBRANCH  20  22
ENDBRANCH  15  20
ENDBRANCH  11  14
BRANCH  12  24
ATOM     24  C   UNL     1       9.560  -4.780  25.525  0.00  0.00    +0.393 C 
ATOM     25  O   UNL     1       9.439  -4.500  26.702  0.00  0.00    -0.240 OA
BRANCH  24  26
ATOM     26  O   UNL     1      10.742  -5.171  25.012  0.00  0.00    -0.474 OA
ATOM     27  H   UNL     1      10.559  -6.020  24.566  0.00  0.00    +0.296 HD
ENDBRANCH  24  26
ENDBRANCH  12  24
ENDBRANCH   8  11
BRANCH   1  28
ATOM     28  C   UNL     1       8.338   1.702  25.834  0.00  0.00    +0.067 C 
BRANCH  28  29
ATOM     29  C   UNL     1       7.199   2.672  25.455  0.00  0.00    +0.163 C 
BRANCH  29  30
ATOM     30  N   UNL     1       5.948   2.494  26.209  0.00  0.00    -0.304 N 
ATOM     31  H   UNL     1       5.839   3.094  27.018  0.00  0.00    +0.149 HD
ATOM     32  C   UNL     1       4.824   1.865  25.742  0.00  0.00    +0.211 C 
ATOM     33  O   UNL     1       4.784   1.263  24.672  0.00  0.00    -0.276 OA
ATOM     34  C   UNL     1       3.640   1.920  26.668  0.00  0.00    +0.109 C 
ENDBRANCH  29  30
BRANCH  29  37
ATOM     35  N   UNL     1       7.734   4.790  24.281  0.00  0.00    -0.314 N 
ATOM     36  H   UNL     1       7.555   4.236  23.440  0.00  0.00    +0.149 HD
ATOM     37  C   UNL     1       7.757   4.126  25.485  0.00  0.00    +0.234 C 
ATOM     38  O   UNL     1       8.054   4.673  26.547  0.00  0.00    -0.274 OA
BRANCH  35  39
ATOM     39  C   UNL     1       8.081   6.184  24.100  0.00  0.00    +0.104 C 
BRANCH  39  40
ATOM     40  C   UNL     1       9.389   6.327  23.316  0.00  0.00    +0.019 C 
BRANCH  40  41
ATOM     41  C   UNL     1      10.617   6.089  24.202  0.00  0.00    +0.001 C 
BRANCH  41  43
ATOM     42  C   UNL     1      11.201   3.776  23.415  0.00  0.00    +0.004 C 
ATOM     43  C   UNL     1      11.670   5.221  23.512  0.00  0.00    -0.003 C 
ENDBRANCH  41  43
ENDBRANCH  40  41
ENDBRANCH  39  40
ENDBRANCH  35  39
ENDBRANCH  29  37
ENDBRANCH  28  29
ENDBRANCH   1  28
TORSDOF 14
ENDMDL
MODEL 8
REMARK VINA RESULT:      -5.8      2.433      7.620
REMARK  Name = 
REMARK  16 active torsions:
REMARK  status: ('A' for Active; 'I' for Inactive)
REMARK    1  A    between atoms: C_1  and  C_2
REMARK    2  A    between atoms: C_2  and  C_3
REMARK    3  A    between atoms: C_3  and  C_4
REMARK    4  A    between atoms: C_4  and  C_5
REMARK    5  A    between atoms: C_5  and  N_6
REMARK    6  A    between atoms: C_7  and  C_9
REMARK    7  A    between atoms: C_9  and  C_11
REMARK    8  A    between atoms: C_9  and  N_37
REMARK    9  A    between atoms: C_11  and  C_12
REMARK   10  A    between atoms: C_15  and  N_16
REMARK   11  A    between atoms: N_16  and  C_22
REMARK   12  A    between atoms: C_17  and  C_19
REMARK   13  A    between atoms: C_19  and  O_20
REMARK   14  A    between atoms: C_27  and  C_28
REMARK   15  A    between atoms: C_28  and  O_29
REMARK   16  A    between atoms: C_38  and  C_39
REMARK                            x       y       z     vdW  Elec       q    Type
REMARK                         _______ _______ _______ _____ _____    ______ ____
ROOT
ATOM      1  C   UNL     1       7.791  -1.608  26.200  0.00  0.00    -0.037 A 
ATOM      2  C   UNL     1       8.097  -2.986  26.021  0.00  0.00    -0.013 A 
ATOM      3  C   UNL     1       9.405  -3.431  25.726  0.00  0.00    +0.009 A 
ATOM      4  C   UNL     1       9.691  -4.748  25.370  0.00  0.00    +0.001 A 
ATOM      5  C   UNL     1       8.662  -5.671  25.333  0.00  0.00    +0.001 A 
ATOM      6  C   UNL     1       7.368  -5.298  25.716  0.00  0.00    +0.010 A 
ATOM      7  C   UNL     1       7.039  -3.965  26.088  0.00  0.00    +0.004 A 
ATOM      8  C   UNL     1       5.707  -3.546  26.408  0.00  0.00    +0.050 A 
ATOM      9  C   UNL     1       5.440  -2.176  26.521  0.00  0.00    +0.025 A 
ATOM     10  C   UNL     1       6.460  -1.228  26.425  0.00  0.00    +0.006 A 
ENDROOT
BRANCH   8  11
ATOM     11  N   UNL     1       4.608  -4.446  26.650  0.00  0.00    -0.230 N 
ATOM     12  C   UNL     1       4.490  -5.276  27.775  0.00  0.00    +0.332 C 
ATOM     13  O   UNL     1       4.037  -6.420  27.737  0.00  0.00    -0.262 OA
BRANCH  11  14
ATOM     14  C   UNL     1       3.662  -4.636  25.593  0.00  0.00    +0.056 A 
ATOM     15  C   UNL     1       2.368  -4.058  25.598  0.00  0.00    +0.081 A 
ATOM     16  C   UNL     1       1.478  -4.335  24.541  0.00  0.00    +0.017 A 
ATOM     17  C   UNL     1       1.851  -5.187  23.503  0.00  0.00    +0.001 A 
ATOM     18  C   UNL     1       3.104  -5.792  23.520  0.00  0.00    +0.002 A 
ATOM     19  C   UNL     1       4.006  -5.512  24.550  0.00  0.00    +0.025 A 
BRANCH  15  20
ATOM     20  C   UNL     1       1.898  -3.156  26.692  0.00  0.00    +0.339 C 
ATOM     21  O   UNL     1       1.477  -3.538  27.768  0.00  0.00    -0.245 OA
BRANCH  20  22
ATOM     22  O   UNL     1       1.998  -1.837  26.400  0.00  0.00    -0.477 OA
ATOM     23  H   UNL     1       1.512  -1.528  25.615  0.00  0.00    +0.295 HD
ENDBRANCH  20  22
ENDBRANCH  15  20
ENDBRANCH  11  14
BRANCH  12  24
ATOM     24  C   UNL     1       4.755  -4.596  29.151  0.00  0.00    +0.393 C 
ATOM     25  O   UNL     1       5.680  -4.825  29.905  0.00  0.00    -0.240 OA
BRANCH  24  26
ATOM     26  O   UNL     1       3.878  -3.603  29.393  0.00  0.00    -0.474 OA
ATOM     27  H   UNL     1       3.403  -3.470  28.551  0.00  0.00    +0.296 HD
ENDBRANCH  24  26
ENDBRANCH  12  24
ENDBRANCH   8  11
BRANCH   1  28
ATOM     28  C   UNL     1       8.820  -0.492  26.000  0.00  0.00    +0.067 C 
BRANCH  28  29
ATOM     29  C   UNL     1       8.532   0.567  24.916  0.00  0.00    +0.163 C 
BRANCH  29  30
ATOM     30  N   UNL     1       9.632   1.506  24.648  0.00  0.00    -0.304 N 
ATOM     31  H   UNL     1      10.563   1.152  24.839  0.00  0.00    +0.149 HD
ATOM     32  C   UNL     1       9.541   2.636  23.879  0.00  0.00    +0.211 C 
ATOM     33  O   UNL     1       8.481   3.059  23.425  0.00  0.00    -0.276 OA
ATOM     34  C   UNL     1      10.841   3.362  23.667  0.00  0.00    +0.109 C 
ENDBRANCH  29  30
BRANCH  29  37
ATOM     35  N   UNL     1       8.853  -1.070  23.080  0.00  0.00    -0.314 N 
ATOM     36  H   UNL     1       9.827  -1.059  23.394  0.00  0.00    +0.149 HD
ATOM     37  C   UNL     1       7.993  -0.158  23.646  0.00  0.00    +0.234 C 
ATOM     38  O   UNL     1       6.827  -0.019  23.280  0.00  0.00    -0.274 OA
BRANCH  35  39
ATOM     39  C   UNL     1       8.518  -1.948  21.978  0.00  0.00    +0.104 C 
BRANCH  39  40
ATOM     40  C   UNL     1       7.964  -3.282  22.487  0.00  0.00    +0.019 C 
BRANCH  40  41
ATOM     41  C   UNL     1       6.462  -3.420  22.216  0.00  0.00    +0.001 C 
BRANCH  41  43
ATOM     42  C   UNL     1       7.118  -5.826  21.923  0.00  0.00    +0.004 C 
ATOM     43  C   UNL     1       6.114  -4.749  21.544  0.00  0.00    -0.003 C 
ENDBRANCH  41  43
ENDBRANCH  40  41
ENDBRANCH  39  40
ENDBRANCH  35  39
ENDBRANCH  29  37
ENDBRANCH  28  29
ENDBRANCH   1  28
TORSDOF 14
ENDMDL
MODEL 9
REMARK VINA RESULT:      -5.8      2.878      7.644
REMARK  Name = 
REMARK  16 active torsions:
REMARK  status: ('A' for Active; 'I' for Inactive)
REMARK    1  A    between atoms: C_1  and  C_2
REMARK    2  A    between atoms: C_2  and  C_3
REMARK    3  A    between atoms: C_3  and  C_4
REMARK    4  A    between atoms: C_4  and  C_5
REMARK    5  A    between atoms: C_5  and  N_6
REMARK    6  A    between atoms: C_7  and  C_9
REMARK    7  A    between atoms: C_9  and  C_11
REMARK    8  A    between atoms: C_9  and  N_37
REMARK    9  A    between atoms: C_11  and  C_12
REMARK   10  A    between atoms: C_15  and  N_16
REMARK   11  A    between atoms: N_16  and  C_22
REMARK   12  A    between atoms: C_17  and  C_19
REMARK   13  A    between atoms: C_19  and  O_20
REMARK   14  A    between atoms: C_27  and  C_28
REMARK   15  A    between atoms: C_28  and  O_29
REMARK   16  A    between atoms: C_38  and  C_39
REMARK                            x       y       z     vdW  Elec       q    Type
REMARK                         _______ _______ _______ _____ _____    ______ ____
ROOT
ATOM      1  C   UNL     1       6.209   1.896  24.181  0.00  0.00    -0.037 A 
ATOM      2  C   UNL     1       6.598   1.167  25.340  0.00  0.00    -0.013 A 
ATOM      3  C   UNL     1       6.629   1.759  26.622  0.00  0.00    +0.009 A 
ATOM      4  C   UNL     1       7.177   1.121  27.733  0.00  0.00    +0.001 A 
ATOM      5  C   UNL     1       7.683  -0.157  27.591  0.00  0.00    +0.001 A 
ATOM      6  C   UNL     1       7.582  -0.822  26.362  0.00  0.00    +0.010 A 
ATOM      7  C   UNL     1       7.027  -0.204  25.208  0.00  0.00    +0.004 A 
ATOM      8  C   UNL     1       6.985  -0.838  23.923  0.00  0.00    +0.050 A 
ATOM      9  C   UNL     1       6.650  -0.068  22.802  0.00  0.00    +0.025 A 
ATOM     10  C   UNL     1       6.265   1.268  22.928  0.00  0.00    +0.006 A 
ENDROOT
BRANCH   8  11
ATOM     11  N   UNL     1       7.244  -2.238  23.699  0.00  0.00    -0.230 N 
ATOM     12  C   UNL     1       8.154  -2.740  22.757  0.00  0.00    +0.332 C 
ATOM     13  O   UNL     1       7.956  -3.753  22.087  0.00  0.00    -0.262 OA
BRANCH  11  14
ATOM     14  C   UNL     1       6.393  -3.183  24.356  0.00  0.00    +0.056 A 
ATOM     15  C   UNL     1       6.885  -4.232  25.173  0.00  0.00    +0.081 A 
ATOM     16  C   UNL     1       5.981  -5.151  25.743  0.00  0.00    +0.017 A 
ATOM     17  C   UNL     1       4.613  -5.049  25.497  0.00  0.00    +0.001 A 
ATOM     18  C   UNL     1       4.134  -4.047  24.659  0.00  0.00    +0.002 A 
ATOM     19  C   UNL     1       5.013  -3.116  24.101  0.00  0.00    +0.025 A 
BRANCH  15  20
ATOM     20  C   UNL     1       8.340  -4.410  25.456  0.00  0.00    +0.339 C 
ATOM     21  O   UNL     1       8.923  -3.922  26.407  0.00  0.00    -0.245 OA
BRANCH  20  22
ATOM     22  O   UNL     1       8.983  -5.199  24.563  0.00  0.00    -0.477 OA
ATOM     23  H   UNL     1       9.955  -5.216  24.619  0.00  0.00    +0.295 HD
ENDBRANCH  20  22
ENDBRANCH  15  20
ENDBRANCH  11  14
BRANCH  12  24
ATOM     24  C   UNL     1       9.560  -2.070  22.749  0.00  0.00    +0.393 C 
ATOM     25  O   UNL     1      10.334  -2.001  23.683  0.00  0.00    -0.240 OA
BRANCH  24  26
ATOM     26  O   UNL     1       9.902  -1.644  21.518  0.00  0.00    -0.474 OA
ATOM     27  H   UNL     1       9.240  -0.962  21.291  0.00  0.00    +0.296 HD
ENDBRANCH  24  26
ENDBRANCH  12  24
ENDBRANCH   8  11
BRANCH   1  28
ATOM     28  C   UNL     1       5.883   3.392  24.207  0.00  0.00    +0.067 C 
BRANCH  28  29
ATOM     29  C   UNL     1       5.861   4.147  22.861  0.00  0.00    +0.163 C 
BRANCH  29  30
ATOM     30  N   UNL     1       4.665   4.970  22.624  0.00  0.00    -0.304 N 
ATOM     31  H   UNL     1       4.828   5.969  22.567  0.00  0.00    +0.149 HD
ATOM     32  C   UNL     1       3.464   4.507  22.155  0.00  0.00    +0.211 C 
ATOM     33  O   UNL     1       3.216   3.314  21.998  0.00  0.00    -0.276 OA
ATOM     34  C   UNL     1       2.436   5.573  21.890  0.00  0.00    +0.109 C 
ENDBRANCH  29  30
BRANCH  29  37
ATOM     35  N   UNL     1       8.158   4.642  23.656  0.00  0.00    -0.314 N 
ATOM     36  H   UNL     1       7.859   4.126  24.488  0.00  0.00    +0.149 HD
ATOM     37  C   UNL     1       7.205   4.921  22.705  0.00  0.00    +0.234 C 
ATOM     38  O   UNL     1       7.430   5.613  21.713  0.00  0.00    -0.274 OA
BRANCH  35  39
ATOM     39  C   UNL     1       9.516   5.144  23.636  0.00  0.00    +0.104 C 
BRANCH  39  40
ATOM     40  C   UNL     1      10.527   3.995  23.704  0.00  0.00    +0.019 C 
BRANCH  40  41
ATOM     41  C   UNL     1       9.904   2.715  24.273  0.00  0.00    +0.001 C 
BRANCH  41  43
ATOM     42  C   UNL     1       9.854   1.777  21.944  0.00  0.00    +0.004 C 
ATOM     43  C   UNL     1      10.191   1.493  23.400  0.00  0.00    -0.003 C 
ENDBRANCH  41  43
ENDBRANCH  40  41
ENDBRANCH  39  40
ENDBRANCH  35  39
ENDBRANCH  29  37
ENDBRANCH  28  29
ENDBRANCH   1  28
TORSDOF 14
ENDMDL
