MODEL 1
REMARK VINA RESULT:      -4.8      0.000      0.000
REMARK  Name = 
REMARK  2 active torsions:
REMARK  status: ('A' for Active; 'I' for Inactive)
REMARK    1  A    between atoms: C_1  and  N_2
REMARK    2  A    between atoms: C_5  and  N_6
REMARK                            x       y       z     vdW  Elec       q    Type
REMARK                         _______ _______ _______ _____ _____    ______ ____
ROOT
ATOM      1  C   UNL     1       5.037  -5.057  23.572  0.00  0.00    +0.152 C 
ATOM      2  N   UNL     1       6.344  -5.108  24.192  0.00  0.00    -0.318 N 
ATOM      3  C   UNL     1       6.454  -5.297  25.543  0.00  0.00    +0.165 A 
ATOM      4  C   UNL     1       7.792  -5.405  26.133  0.00  0.00    +0.147 A 
ATOM      5  N   UNL     1       7.653  -5.582  27.482  0.00  0.00    -0.229 NA
ATOM      6  C   UNL     1       6.360  -5.585  27.634  0.00  0.00    +0.224 A 
ATOM      7  C   UNL     1       8.857  -5.325  25.308  0.00  0.00    +0.147 A 
ATOM      8  N   UNL     1       8.717  -5.099  23.942  0.00  0.00    -0.221 NA
ATOM      9  N   UNL     1       5.579  -5.413  26.497  0.00  0.00    -0.216 NA
ATOM     10  C   UNL     1       7.510  -5.015  23.465  0.00  0.00    +0.202 A 
ENDROOT
BRANCH   7  11
ATOM     11  N   UNL     1      10.136  -5.449  25.820  0.00  0.00    -0.341 N 
ATOM     12  H   UNL     1      10.444  -4.587  26.265  0.00  0.00    +0.144 HD
ATOM     13  H   UNL     1      10.764  -5.798  25.105  0.00  0.00    +0.144 HD
ENDBRANCH   7  11
TORSDOF 1
ENDMDL
MODEL 2
REMARK VINA RESULT:      -4.6      1.717      1.799
REMARK  Name = 
REMARK  2 active torsions:
REMARK  status: ('A' for Active; 'I' for Inactive)
REMARK    1  A    between atoms: C_1  and  N_2
REMARK    2  A    between atoms: C_5  and  N_6
REMARK                            x       y       z     vdW  Elec       q    Type
REMARK                         _______ _______ _______ _____ _____    ______ ____
ROOT
ATOM      1  C   UNL     1       6.478  -2.159  23.386  0.00  0.00    +0.152 C 
ATOM      2  N   UNL     1       7.451  -3.007  24.039  0.00  0.00    -0.318 N 
ATOM      3  C   UNL     1       7.039  -3.979  24.911  0.00  0.00    +0.165 A 
ATOM      4  C   UNL     1       8.045  -4.861  25.510  0.00  0.00    +0.147 A 
ATOM      5  N   UNL     1       7.405  -5.737  26.342  0.00  0.00    -0.229 NA
ATOM      6  C   UNL     1       6.158  -5.388  26.214  0.00  0.00    +0.224 A 
ATOM      7  C   UNL     1       9.336  -4.680  25.160  0.00  0.00    +0.147 A 
ATOM      8  N   UNL     1       9.732  -3.663  24.297  0.00  0.00    -0.221 NA
ATOM      9  N   UNL     1       5.872  -4.326  25.364  0.00  0.00    -0.216 NA
ATOM     10  C   UNL     1       8.802  -2.909  23.787  0.00  0.00    +0.202 A 
ENDROOT
BRANCH   7  11
ATOM     11  N   UNL     1      10.313  -5.509  25.681  0.00  0.00    -0.341 N 
ATOM     12  H   UNL     1       9.909  -6.334  26.118  0.00  0.00    +0.144 HD
ATOM     13  H   UNL     1      10.933  -4.979  26.284  0.00  0.00    +0.144 HD
ENDBRANCH   7  11
TORSDOF 1
ENDMDL
MODEL 3
REMARK VINA RESULT:      -4.5      2.102      3.424
REMARK  Name = 
REMARK  2 active torsions:
REMARK  status: ('A' for Active; 'I' for Inactive)
REMARK    1  A    between atoms: C_1  and  N_2
REMARK    2  A    between atoms: C_5  and  N_6
REMARK                            x       y       z     vdW  Elec       q    Type
REMARK                         _______ _______ _______ _____ _____    ______ ____
ROOT
ATOM      1  C   UNL     1       5.435  -3.002  23.719  0.00  0.00    +0.152 C 
ATOM      2  N   UNL     1       6.660  -3.631  24.161  0.00  0.00    -0.318 N 
ATOM      3  C   UNL     1       7.870  -3.080  23.837  0.00  0.00    +0.165 A 
ATOM      4  C   UNL     1       9.091  -3.707  24.351  0.00  0.00    +0.147 A 
ATOM      5  N   UNL     1      10.164  -2.993  23.896  0.00  0.00    -0.229 NA
ATOM      6  C   UNL     1       9.600  -2.047  23.202  0.00  0.00    +0.224 A 
ATOM      7  C   UNL     1       8.962  -4.798  25.136  0.00  0.00    +0.147 A 
ATOM      8  N   UNL     1       7.720  -5.359  25.422  0.00  0.00    -0.221 NA
ATOM      9  N   UNL     1       8.212  -2.048  23.125  0.00  0.00    -0.216 NA
ATOM     10  C   UNL     1       6.666  -4.763  24.947  0.00  0.00    +0.202 A 
ENDROOT
BRANCH   7  11
ATOM     11  N   UNL     1      10.087  -5.404  25.663  0.00  0.00    -0.341 N 
ATOM     12  H   UNL     1      10.805  -4.722  25.895  0.00  0.00    +0.144 HD
ATOM     13  H   UNL     1      10.401  -6.148  25.049  0.00  0.00    +0.144 HD
ENDBRANCH   7  11
TORSDOF 1
ENDMDL
MODEL 4
REMARK VINA RESULT:      -4.4      5.732      7.016
REMARK  Name = 
REMARK  2 active torsions:
REMARK  status: ('A' for Active; 'I' for Inactive)
REMARK    1  A    between atoms: C_1  and  N_2
REMARK    2  A    between atoms: C_5  and  N_6
REMARK                            x       y       z     vdW  Elec       q    Type
REMARK                         _______ _______ _______ _____ _____    ______ ____
ROOT
ATOM      1  C   UNL     1       9.046  -0.790  26.064  0.00  0.00    +0.152 C 
ATOM      2  N   UNL     1       9.367  -0.049  24.863  0.00  0.00    -0.318 N 
ATOM      3  C   UNL     1       9.294  -0.660  23.640  0.00  0.00    +0.165 A 
ATOM      4  C   UNL     1       9.566   0.133  22.438  0.00  0.00    +0.147 A 
ATOM      5  N   UNL     1       9.441  -0.684  21.348  0.00  0.00    -0.229 NA
ATOM      6  C   UNL     1       9.117  -1.824  21.886  0.00  0.00    +0.224 A 
ATOM      7  C   UNL     1       9.865   1.440  22.595  0.00  0.00    +0.147 A 
ATOM      8  N   UNL     1       9.966   2.029  23.852  0.00  0.00    -0.221 NA
ATOM      9  N   UNL     1       9.016  -1.875  23.272  0.00  0.00    -0.216 NA
ATOM     10  C   UNL     1       9.710   1.285  24.888  0.00  0.00    +0.202 A 
ENDROOT
BRANCH   7  11
ATOM     11  N   UNL     1      10.103   2.230  21.485  0.00  0.00    -0.341 N 
ATOM     12  H   UNL     1       9.832   1.757  20.626  0.00  0.00    +0.144 HD
ATOM     13  H   UNL     1      11.060   2.564  21.495  0.00  0.00    +0.144 HD
ENDBRANCH   7  11
TORSDOF 1
ENDMDL
MODEL 5
REMARK VINA RESULT:      -4.4      1.064      2.849
REMARK  Name = 
REMARK  2 active torsions:
REMARK  status: ('A' for Active; 'I' for Inactive)
REMARK    1  A    between atoms: C_1  and  N_2
REMARK    2  A    between atoms: C_5  and  N_6
REMARK                            x       y       z     vdW  Elec       q    Type
REMARK                         _______ _______ _______ _____ _____    ______ ____
ROOT
ATOM      1  C   UNL     1       4.734  -4.150  26.287  0.00  0.00    +0.152 C 
ATOM      2  N   UNL     1       6.115  -4.542  26.102  0.00  0.00    -0.318 N 
ATOM      3  C   UNL     1       6.591  -4.802  24.845  0.00  0.00    +0.165 A 
ATOM      4  C   UNL     1       8.009  -5.137  24.684  0.00  0.00    +0.147 A 
ATOM      5  N   UNL     1       8.249  -5.360  23.357  0.00  0.00    -0.229 NA
ATOM      6  C   UNL     1       7.080  -5.158  22.821  0.00  0.00    +0.224 A 
ATOM      7  C   UNL     1       8.785  -5.160  25.789  0.00  0.00    +0.147 A 
ATOM      8  N   UNL     1       8.267  -4.924  27.059  0.00  0.00    -0.221 NA
ATOM      9  N   UNL     1       6.033  -4.821  23.672  0.00  0.00    -0.216 NA
ATOM     10  C   UNL     1       7.005  -4.626  27.150  0.00  0.00    +0.202 A 
ENDROOT
BRANCH   7  11
ATOM     11  N   UNL     1      10.133  -5.445  25.677  0.00  0.00    -0.341 N 
ATOM     12  H   UNL     1      10.337  -6.401  25.961  0.00  0.00    +0.144 HD
ATOM     13  H   UNL     1      10.679  -4.740  26.161  0.00  0.00    +0.144 HD
ENDBRANCH   7  11
TORSDOF 1
ENDMDL
MODEL 6
REMARK VINA RESULT:      -4.4      5.551      6.407
REMARK  Name = 
REMARK  2 active torsions:
REMARK  status: ('A' for Active; 'I' for Inactive)
REMARK    1  A    between atoms: C_1  and  N_2
REMARK    2  A    between atoms: C_5  and  N_6
REMARK                            x       y       z     vdW  Elec       q    Type
REMARK                         _______ _______ _______ _____ _____    ______ ____
ROOT
ATOM      1  C   UNL     1       9.417  -2.914  24.118  0.00  0.00    +0.152 C 
ATOM      2  N   UNL     1       9.406  -1.632  23.448  0.00  0.00    -0.318 N 
ATOM      3  C   UNL     1       9.017  -0.508  24.125  0.00  0.00    +0.165 A 
ATOM      4  C   UNL     1       9.075   0.785  23.437  0.00  0.00    +0.147 A 
ATOM      5  N   UNL     1       8.637   1.750  24.301  0.00  0.00    -0.229 NA
ATOM      6  C   UNL     1       8.370   1.066  25.376  0.00  0.00    +0.224 A 
ATOM      7  C   UNL     1       9.524   0.807  22.164  0.00  0.00    +0.147 A 
ATOM      8  N   UNL     1       9.881  -0.356  21.488  0.00  0.00    -0.221 NA
ATOM      9  N   UNL     1       8.576  -0.308  25.331  0.00  0.00    -0.216 NA
ATOM     10  C   UNL     1       9.818  -1.478  22.143  0.00  0.00    +0.202 A 
ENDROOT
BRANCH   7  11
ATOM     11  N   UNL     1       9.619   2.009  21.488  0.00  0.00    -0.341 N 
ATOM     12  H   UNL     1       8.836   2.143  20.852  0.00  0.00    +0.144 HD
ATOM     13  H   UNL     1      10.530   2.091  21.051  0.00  0.00    +0.144 HD
ENDBRANCH   7  11
TORSDOF 1
ENDMDL
MODEL 7
REMARK VINA RESULT:      -4.3      2.146      3.456
REMARK  Name = 
REMARK  2 active torsions:
REMARK  status: ('A' for Active; 'I' for Inactive)
REMARK    1  A    between atoms: C_1  and  N_2
REMARK    2  A    between atoms: C_5  and  N_6
REMARK                            x       y       z     vdW  Elec       q    Type
REMARK                         _______ _______ _______ _____ _____    ______ ____
ROOT
ATOM      1  C   UNL     1       8.419  -1.308  22.173  0.00  0.00    +0.152 C 
ATOM      2  N   UNL     1       8.603  -2.460  23.029  0.00  0.00    -0.318 N 
ATOM      3  C   UNL     1       7.653  -3.444  23.069  0.00  0.00    +0.165 A 
ATOM      4  C   UNL     1       7.896  -4.627  23.900  0.00  0.00    +0.147 A 
ATOM      5  N   UNL     1       6.818  -5.460  23.786  0.00  0.00    -0.229 NA
ATOM      6  C   UNL     1       6.047  -4.813  22.961  0.00  0.00    +0.224 A 
ATOM      7  C   UNL     1       9.060  -4.694  24.581  0.00  0.00    +0.147 A 
ATOM      8  N   UNL     1       9.995  -3.664  24.550  0.00  0.00    -0.221 NA
ATOM      9  N   UNL     1       6.496  -3.583  22.493  0.00  0.00    -0.216 NA
ATOM     10  C   UNL     1       9.735  -2.638  23.793  0.00  0.00    +0.202 A 
ENDROOT
BRANCH   7  11
ATOM     11  N   UNL     1       9.340  -5.805  25.356  0.00  0.00    -0.341 N 
ATOM     12  H   UNL     1      10.297  -6.123  25.220  0.00  0.00    +0.144 HD
ATOM     13  H   UNL     1       8.638  -6.521  25.205  0.00  0.00    +0.144 HD
ENDBRANCH   7  11
TORSDOF 1
ENDMDL
MODEL 8
REMARK VINA RESULT:      -4.2      4.005      5.112
REMARK  Name = 
REMARK  2 active torsions:
REMARK  status: ('A' for Active; 'I' for Inactive)
REMARK    1  A    between atoms: C_1  and  N_2
REMARK    2  A    between atoms: C_5  and  N_6
REMARK                            x       y       z     vdW  Elec       q    Type
REMARK                         _______ _______ _______ _____ _____    ______ ____
ROOT
ATOM      1  C   UNL     1       8.779  -0.868  26.828  0.00  0.00    +0.152 C 
ATOM      2  N   UNL     1       9.103  -1.015  25.425  0.00  0.00    -0.318 N 
ATOM      3  C   UNL     1       8.470  -1.964  24.670  0.00  0.00    +0.165 A 
ATOM      4  C   UNL     1       8.777  -2.048  23.239  0.00  0.00    +0.147 A 
ATOM      5  N   UNL     1       8.036  -3.063  22.701  0.00  0.00    -0.229 NA
ATOM      6  C   UNL     1       7.368  -3.501  23.729  0.00  0.00    +0.224 A 
ATOM      7  C   UNL     1       9.665  -1.169  22.729  0.00  0.00    +0.147 A 
ATOM      8  N   UNL     1      10.321  -0.235  23.526  0.00  0.00    -0.221 NA
ATOM      9  N   UNL     1       7.590  -2.878  24.952  0.00  0.00    -0.216 NA
ATOM     10  C   UNL     1      10.011  -0.197  24.789  0.00  0.00    +0.202 A 
ENDROOT
BRANCH   7  11
ATOM     11  N   UNL     1       9.963  -1.196  21.379  0.00  0.00    -0.341 N 
ATOM     12  H   UNL     1       9.129  -1.345  20.816  0.00  0.00    +0.144 HD
ATOM     13  H   UNL     1      10.711  -1.858  21.201  0.00  0.00    +0.144 HD
ENDBRANCH   7  11
TORSDOF 1
ENDMDL
MODEL 9
REMARK VINA RESULT:      -4.1      2.211      2.355
REMARK  Name = 
REMARK  2 active torsions:
REMARK  status: ('A' for Active; 'I' for Inactive)
REMARK    1  A    between atoms: C_1  and  N_2
REMARK    2  A    between atoms: C_5  and  N_6
REMARK                            x       y       z     vdW  Elec       q    Type
REMARK                         _______ _______ _______ _____ _____    ______ ____
ROOT
ATOM      1  C   UNL     1       5.943  -2.829  22.495  0.00  0.00    +0.152 C 
ATOM      2  N   UNL     1       6.933  -3.540  23.276  0.00  0.00    -0.318 N 
ATOM      3  C   UNL     1       7.310  -3.063  24.502  0.00  0.00    +0.165 A 
ATOM      4  C   UNL     1       8.271  -3.837  25.295  0.00  0.00    +0.147 A 
ATOM      5  N   UNL     1       8.498  -3.168  26.465  0.00  0.00    -0.229 NA
ATOM      6  C   UNL     1       7.729  -2.124  26.347  0.00  0.00    +0.224 A 
ATOM      7  C   UNL     1       8.729  -4.997  24.779  0.00  0.00    +0.147 A 
ATOM      8  N   UNL     1       8.355  -5.442  23.514  0.00  0.00    -0.221 NA
ATOM      9  N   UNL     1       6.987  -2.001  25.178  0.00  0.00    -0.216 NA
ATOM     10  C   UNL     1       7.497  -4.723  22.852  0.00  0.00    +0.202 A 
ENDROOT
BRANCH   7  11
ATOM     11  N   UNL     1       9.616  -5.770  25.505  0.00  0.00    -0.341 N 
ATOM     12  H   UNL     1       9.310  -5.883  26.469  0.00  0.00    +0.144 HD
ATOM     13  H   UNL     1      10.557  -5.406  25.406  0.00  0.00    +0.144 HD
ENDBRANCH   7  11
TORSDOF 1
ENDMDL
