MODEL 1
REMARK VINA RESULT:      -7.2      0.000      0.000
REMARK  Name = 
REMARK  14 active torsions:
REMARK  status: ('A' for Active; 'I' for Inactive)
REMARK    1  A    between atoms: C_1  and  C_2
REMARK    2  A    between atoms: N_4  and  C_5
REMARK    3  A    between atoms: C_7  and  O_9
REMARK    4  A    between atoms: C_11  and  O_12
REMARK    5  A    between atoms: C_11  and  C_36
REMARK    6  A    between atoms: O_12  and  C_13
REMARK    7  A    between atoms: C_17  and  C_18
REMARK    8  A    between atoms: C_26  and  C_28
REMARK    9  A    between atoms: C_28  and  O_30
REMARK   10  A    between atoms: C_28  and  C_31
REMARK   11  A    between atoms: C_31  and  O_33
REMARK   12  A    between atoms: C_31  and  C_34
REMARK   13  A    between atoms: C_34  and  O_35
REMARK   14  A    between atoms: C_36  and  O_37
REMARK                            x       y       z     vdW  Elec       q    Type
REMARK                         _______ _______ _______ _____ _____    ______ ____
ROOT
ATOM      1  C   UNL     1       7.835   2.880  25.064  0.00  0.00    +0.133 C 
ATOM      2  C   UNL     1       7.075   2.003  24.030  0.00  0.00    +0.177 C 
ATOM      3  O   UNL     1       7.839   0.823  23.662  0.00  0.00    -0.323 OA
ATOM      4  C   UNL     1       9.215   0.971  23.316  0.00  0.00    +0.314 C 
ATOM      5  C   UNL     1      10.033   1.895  24.226  0.00  0.00    +0.124 C 
ATOM      6  C   UNL     1       9.285   3.163  24.628  0.00  0.00    +0.144 C 
ENDROOT
BRANCH   1   9
ATOM      7  C   UNL     1       7.076   1.642  28.605  0.00  0.00    +0.109 C 
ATOM      8  C   UNL     1       6.819   2.357  27.301  0.00  0.00    +0.210 C 
ATOM      9  N   UNL     1       7.854   2.234  26.400  0.00  0.00    -0.308 N 
ATOM     10  H   UNL     1       8.706   1.804  26.737  0.00  0.00    +0.149 HD
ATOM     11  O   UNL     1       5.797   2.990  27.074  0.00  0.00    -0.276 OA
ENDBRANCH   1   9
BRANCH   4  12
ATOM     12  C   UNL     1       9.376   1.416  21.834  0.00  0.00    +0.378 C 
ATOM     13  O   UNL     1       8.747   0.944  20.899  0.00  0.00    -0.244 OA
BRANCH  12  14
ATOM     14  O   UNL     1      10.365   2.335  21.649  0.00  0.00    -0.476 OA
ATOM     15  H   UNL     1       9.993   3.149  21.256  0.00  0.00    +0.295 HD
ENDBRANCH  12  14
ENDBRANCH   4  12
BRANCH   6  16
ATOM     16  O   UNL     1       9.373   4.178  23.641  0.00  0.00    -0.390 OA
ATOM     17  H   UNL     1       9.392   5.075  24.030  0.00  0.00    +0.210 HD
ENDBRANCH   6  16
BRANCH   2  18
ATOM     18  C   UNL     1       6.533   2.660  22.728  0.00  0.00    +0.176 C 
BRANCH  18  19
ATOM     19  O   UNL     1       5.868   1.644  21.949  0.00  0.00    -0.387 OA
ATOM     20  H   UNL     1       6.021   0.791  22.390  0.00  0.00    +0.210 HD
ENDBRANCH  18  19
BRANCH  18  21
ATOM     21  C   UNL     1       5.594   3.866  22.834  0.00  0.00    +0.171 C 
BRANCH  21  22
ATOM     22  O   UNL     1       4.476   3.704  21.960  0.00  0.00    -0.387 OA
ATOM     23  H   UNL     1       4.715   4.148  21.128  0.00  0.00    +0.210 HD
ENDBRANCH  21  22
BRANCH  21  24
ATOM     24  C   UNL     1       6.253   5.222  22.594  0.00  0.00    +0.189 C 
BRANCH  24  25
ATOM     25  O   UNL     1       7.387   5.033  21.739  0.00  0.00    -0.392 OA
ATOM     26  H   UNL     1       7.400   4.084  21.519  0.00  0.00    +0.210 HD
ENDBRANCH  24  25
ENDBRANCH  21  24
ENDBRANCH  18  21
ENDBRANCH   2  18
BRANCH   4  27
ATOM     27  O   UNL     1       9.874  -0.335  23.243  0.00  0.00    -0.451 OA
BRANCH  27  28
ATOM     28  C   UNL     1       9.146  -1.452  23.534  0.00  0.00    +0.128 A 
ATOM     29  C   UNL     1       9.015  -2.005  24.798  0.00  0.00    +0.092 A 
ATOM     30  C   UNL     1       8.224  -3.131  24.990  0.00  0.00    +0.143 A 
ATOM     31  C   UNL     1       7.554  -3.765  23.948  0.00  0.00    +0.021 A 
ATOM     32  C   UNL     1       6.744  -4.947  24.271  0.00  0.00    -0.033 A 
ATOM     33  C   UNL     1       6.650  -5.327  25.555  0.00  0.00    +0.096 A 
ATOM     34  C   UNL     1       7.324  -4.638  26.663  0.00  0.00    +0.337 A 
ATOM     35  O   UNL     1       7.187  -5.008  27.823  0.00  0.00    -0.245 OA
ATOM     36  C   UNL     1       6.033  -5.744  23.219  0.00  0.00    +0.045 C 
ATOM     37  C   UNL     1       7.708  -3.211  22.670  0.00  0.00    +0.015 A 
ATOM     38  O   UNL     1       8.133  -3.572  26.323  0.00  0.00    -0.422 OA
ATOM     39  C   UNL     1       8.506  -2.074  22.464  0.00  0.00    +0.046 A 
ENDBRANCH  27  28
ENDBRANCH   4  27
TORSDOF 12
ENDMDL
MODEL 2
REMARK VINA RESULT:      -7.2      1.357      1.950
REMARK  Name = 
REMARK  14 active torsions:
REMARK  status: ('A' for Active; 'I' for Inactive)
REMARK    1  A    between atoms: C_1  and  C_2
REMARK    2  A    between atoms: N_4  and  C_5
REMARK    3  A    between atoms: C_7  and  O_9
REMARK    4  A    between atoms: C_11  and  O_12
REMARK    5  A    between atoms: C_11  and  C_36
REMARK    6  A    between atoms: O_12  and  C_13
REMARK    7  A    between atoms: C_17  and  C_18
REMARK    8  A    between atoms: C_26  and  C_28
REMARK    9  A    between atoms: C_28  and  O_30
REMARK   10  A    between atoms: C_28  and  C_31
REMARK   11  A    between atoms: C_31  and  O_33
REMARK   12  A    between atoms: C_31  and  C_34
REMARK   13  A    between atoms: C_34  and  O_35
REMARK   14  A    between atoms: C_36  and  O_37
REMARK                            x       y       z     vdW  Elec       q    Type
REMARK                         _______ _______ _______ _____ _____    ______ ____
ROOT
ATOM      1  C   UNL     1       7.836   2.960  25.038  0.00  0.00    +0.133 C 
ATOM      2  C   UNL     1       7.050   2.082  24.025  0.00  0.00    +0.177 C 
ATOM      3  O   UNL     1       7.785   0.878  23.674  0.00  0.00    -0.323 OA
ATOM      4  C   UNL     1       9.161   0.988  23.317  0.00  0.00    +0.314 C 
ATOM      5  C   UNL     1      10.006   1.910  24.206  0.00  0.00    +0.124 C 
ATOM      6  C   UNL     1       9.289   3.202  24.588  0.00  0.00    +0.144 C 
ENDROOT
BRANCH   1   9
ATOM      7  C   UNL     1       7.090   1.835  28.619  0.00  0.00    +0.109 C 
ATOM      8  C   UNL     1       6.845   2.539  27.307  0.00  0.00    +0.210 C 
ATOM      9  N   UNL     1       7.849   2.339  26.386  0.00  0.00    -0.308 N 
ATOM     10  H   UNL     1       8.682   1.866  26.712  0.00  0.00    +0.149 HD
ATOM     11  O   UNL     1       5.856   3.227  27.091  0.00  0.00    -0.276 OA
ENDBRANCH   1   9
BRANCH   4  12
ATOM     12  C   UNL     1       9.323   1.402  21.827  0.00  0.00    +0.378 C 
ATOM     13  O   UNL     1       8.690   0.915  20.902  0.00  0.00    -0.244 OA
BRANCH  12  14
ATOM     14  O   UNL     1      10.318   2.310  21.622  0.00  0.00    -0.476 OA
ATOM     15  H   UNL     1      10.305   2.614  20.692  0.00  0.00    +0.295 HD
ENDBRANCH  12  14
ENDBRANCH   4  12
BRANCH   6  16
ATOM     16  O   UNL     1       9.393   4.197  23.582  0.00  0.00    -0.390 OA
ATOM     17  H   UNL     1       9.965   4.943  23.854  0.00  0.00    +0.210 HD
ENDBRANCH   6  16
BRANCH   2  18
ATOM     18  C   UNL     1       6.515   2.726  22.714  0.00  0.00    +0.176 C 
BRANCH  18  19
ATOM     19  O   UNL     1       5.849   1.704  21.943  0.00  0.00    -0.387 OA
ATOM     20  H   UNL     1       6.523   1.265  21.397  0.00  0.00    +0.210 HD
ENDBRANCH  18  19
BRANCH  18  21
ATOM     21  C   UNL     1       5.579   3.936  22.804  0.00  0.00    +0.171 C 
BRANCH  21  22
ATOM     22  O   UNL     1       4.473   3.777  21.914  0.00  0.00    -0.387 OA
ATOM     23  H   UNL     1       3.742   3.420  22.449  0.00  0.00    +0.210 HD
ENDBRANCH  21  22
BRANCH  21  24
ATOM     24  C   UNL     1       6.247   5.289  22.571  0.00  0.00    +0.189 C 
BRANCH  24  25
ATOM     25  O   UNL     1       7.378   5.097  21.712  0.00  0.00    -0.392 OA
ATOM     26  H   UNL     1       7.013   4.895  20.832  0.00  0.00    +0.210 HD
ENDBRANCH  24  25
ENDBRANCH  21  24
ENDBRANCH  18  21
ENDBRANCH   2  18
BRANCH   4  27
ATOM     27  O   UNL     1       9.791  -0.334  23.266  0.00  0.00    -0.451 OA
BRANCH  27  28
ATOM     28  C   UNL     1       9.026  -1.433  23.527  0.00  0.00    +0.128 A 
ATOM     29  C   UNL     1       8.301  -2.137  22.579  0.00  0.00    +0.092 A 
ATOM     30  C   UNL     1       7.575  -3.263  22.948  0.00  0.00    +0.143 A 
ATOM     31  C   UNL     1       7.520  -3.725  24.260  0.00  0.00    +0.021 A 
ATOM     32  C   UNL     1       6.723  -4.928  24.531  0.00  0.00    -0.033 A 
ATOM     33  C   UNL     1       6.132  -5.550  23.499  0.00  0.00    +0.096 A 
ATOM     34  C   UNL     1       6.219  -5.088  22.107  0.00  0.00    +0.337 A 
ATOM     35  O   UNL     1       5.682  -5.705  21.195  0.00  0.00    -0.245 OA
ATOM     36  C   UNL     1       6.542  -5.475  25.915  0.00  0.00    +0.045 C 
ATOM     37  C   UNL     1       8.240  -2.995  25.216  0.00  0.00    +0.015 A 
ATOM     38  O   UNL     1       6.917  -3.917  21.891  0.00  0.00    -0.422 OA
ATOM     39  C   UNL     1       8.976  -1.855  24.855  0.00  0.00    +0.046 A 
ENDBRANCH  27  28
ENDBRANCH   4  27
TORSDOF 12
ENDMDL
MODEL 3
REMARK VINA RESULT:      -7.1      1.988      3.020
REMARK  Name = 
REMARK  14 active torsions:
REMARK  status: ('A' for Active; 'I' for Inactive)
REMARK    1  A    between atoms: C_1  and  C_2
REMARK    2  A    between atoms: N_4  and  C_5
REMARK    3  A    between atoms: C_7  and  O_9
REMARK    4  A    between atoms: C_11  and  O_12
REMARK    5  A    between atoms: C_11  and  C_36
REMARK    6  A    between atoms: O_12  and  C_13
REMARK    7  A    between atoms: C_17  and  C_18
REMARK    8  A    between atoms: C_26  and  C_28
REMARK    9  A    between atoms: C_28  and  O_30
REMARK   10  A    between atoms: C_28  and  C_31
REMARK   11  A    between atoms: C_31  and  O_33
REMARK   12  A    between atoms: C_31  and  C_34
REMARK   13  A    between atoms: C_34  and  O_35
REMARK   14  A    between atoms: C_36  and  O_37
REMARK                            x       y       z     vdW  Elec       q    Type
REMARK                         _______ _______ _______ _____ _____    ______ ____
ROOT
ATOM      1  C   UNL     1       7.376   0.634  24.887  0.00  0.00    +0.133 C 
ATOM      2  C   UNL     1       7.448   0.710  23.337  0.00  0.00    +0.177 C 
ATOM      3  O   UNL     1       7.664  -0.599  22.744  0.00  0.00    -0.323 OA
ATOM      4  C   UNL     1       8.686  -1.439  23.278  0.00  0.00    +0.314 C 
ATOM      5  C   UNL     1       8.757  -1.509  24.808  0.00  0.00    +0.124 C 
ATOM      6  C   UNL     1       8.557  -0.155  25.484  0.00  0.00    +0.144 C 
ENDROOT
BRANCH   1   9
ATOM      7  C   UNL     1       4.218  -0.439  26.764  0.00  0.00    +0.109 C 
ATOM      8  C   UNL     1       5.473   0.357  26.503  0.00  0.00    +0.210 C 
ATOM      9  N   UNL     1       6.106   0.005  25.333  0.00  0.00    -0.308 N 
ATOM     10  H   UNL     1       5.754  -0.810  24.848  0.00  0.00    +0.149 HD
ATOM     11  O   UNL     1       5.888   1.222  27.264  0.00  0.00    -0.276 OA
ENDBRANCH   1   9
BRANCH   4  12
ATOM     12  C   UNL     1      10.081  -1.059  22.704  0.00  0.00    +0.378 C 
ATOM     13  O   UNL     1      10.907  -0.375  23.291  0.00  0.00    -0.244 OA
BRANCH  12  14
ATOM     14  O   UNL     1      10.275  -1.487  21.425  0.00  0.00    -0.476 OA
ATOM     15  H   UNL     1      10.513  -0.730  20.853  0.00  0.00    +0.295 HD
ENDBRANCH  12  14
ENDBRANCH   4  12
BRANCH   6  16
ATOM     16  O   UNL     1       9.753   0.605  25.536  0.00  0.00    -0.390 OA
ATOM     17  H   UNL     1      10.460   0.226  24.977  0.00  0.00    +0.210 HD
ENDBRANCH   6  16
BRANCH   2  18
ATOM     18  C   UNL     1       8.430   1.716  22.670  0.00  0.00    +0.176 C 
BRANCH  18  19
ATOM     19  O   UNL     1       8.188   1.712  21.248  0.00  0.00    -0.387 OA
ATOM     20  H   UNL     1       9.048   1.612  20.805  0.00  0.00    +0.210 HD
ENDBRANCH  18  19
BRANCH  18  21
ATOM     21  C   UNL     1       8.443   3.173  23.144  0.00  0.00    +0.171 C 
BRANCH  21  22
ATOM     22  O   UNL     1       7.979   4.038  22.106  0.00  0.00    -0.387 OA
ATOM     23  H   UNL     1       8.289   3.650  21.269  0.00  0.00    +0.210 HD
ENDBRANCH  21  22
BRANCH  21  24
ATOM     24  C   UNL     1       9.786   3.668  23.675  0.00  0.00    +0.189 C 
BRANCH  24  25
ATOM     25  O   UNL     1      10.704   2.568  23.691  0.00  0.00    -0.392 OA
ATOM     26  H   UNL     1      10.764   2.285  24.621  0.00  0.00    +0.210 HD
ENDBRANCH  24  25
ENDBRANCH  21  24
ENDBRANCH  18  21
ENDBRANCH   2  18
BRANCH   4  27
ATOM     27  O   UNL     1       8.573  -2.798  22.742  0.00  0.00    -0.451 OA
BRANCH  27  28
ATOM     28  C   UNL     1       7.501  -3.558  23.109  0.00  0.00    +0.128 A 
ATOM     29  C   UNL     1       7.443  -4.349  24.245  0.00  0.00    +0.092 A 
ATOM     30  C   UNL     1       6.289  -5.064  24.543  0.00  0.00    +0.143 A 
ATOM     31  C   UNL     1       5.161  -5.043  23.726  0.00  0.00    +0.021 A 
ATOM     32  C   UNL     1       3.998  -5.836  24.143  0.00  0.00    -0.033 A 
ATOM     33  C   UNL     1       4.059  -6.498  25.309  0.00  0.00    +0.096 A 
ATOM     34  C   UNL     1       5.232  -6.492  26.193  0.00  0.00    +0.337 A 
ATOM     35  O   UNL     1       5.231  -7.092  27.261  0.00  0.00    -0.245 OA
ATOM     36  C   UNL     1       2.756  -5.937  23.309  0.00  0.00    +0.045 C 
ATOM     37  C   UNL     1       5.235  -4.256  22.569  0.00  0.00    +0.015 A 
ATOM     38  O   UNL     1       6.336  -5.794  25.744  0.00  0.00    -0.422 OA
ATOM     39  C   UNL     1       6.397  -3.530  22.258  0.00  0.00    +0.046 A 
ENDBRANCH  27  28
ENDBRANCH   4  27
TORSDOF 12
ENDMDL
MODEL 4
REMARK VINA RESULT:      -7.0      2.273      7.409
REMARK  Name = 
REMARK  14 active torsions:
REMARK  status: ('A' for Active; 'I' for Inactive)
REMARK    1  A    between atoms: C_1  and  C_2
REMARK    2  A    between atoms: N_4  and  C_5
REMARK    3  A    between atoms: C_7  and  O_9
REMARK    4  A    between atoms: C_11  and  O_12
REMARK    5  A    between atoms: C_11  and  C_36
REMARK    6  A    between atoms: O_12  and  C_13
REMARK    7  A    between atoms: C_17  and  C_18
REMARK    8  A    between atoms: C_26  and  C_28
REMARK    9  A    between atoms: C_28  and  O_30
REMARK   10  A    between atoms: C_28  and  C_31
REMARK   11  A    between atoms: C_31  and  O_33
REMARK   12  A    between atoms: C_31  and  C_34
REMARK   13  A    between atoms: C_34  and  O_35
REMARK   14  A    between atoms: C_36  and  O_37
REMARK                            x       y       z     vdW  Elec       q    Type
REMARK                         _______ _______ _______ _____ _____    ______ ____
ROOT
ATOM      1  C   UNL     1       7.348  -1.377  25.865  0.00  0.00    +0.133 C 
ATOM      2  C   UNL     1       8.733  -1.806  25.307  0.00  0.00    +0.177 C 
ATOM      3  O   UNL     1       9.124  -1.002  24.162  0.00  0.00    -0.323 OA
ATOM      4  C   UNL     1       8.180  -0.786  23.115  0.00  0.00    +0.314 C 
ATOM      5  C   UNL     1       6.754  -0.446  23.567  0.00  0.00    +0.124 C 
ATOM      6  C   UNL     1       6.283  -1.277  24.756  0.00  0.00    +0.144 C 
ENDROOT
BRANCH   1   9
ATOM      7  C   UNL     1       6.826   1.682  28.105  0.00  0.00    +0.109 C 
ATOM      8  C   UNL     1       6.565   0.297  27.567  0.00  0.00    +0.210 C 
ATOM      9  N   UNL     1       7.435  -0.070  26.564  0.00  0.00    -0.308 N 
ATOM     10  H   UNL     1       8.055   0.647  26.211  0.00  0.00    +0.149 HD
ATOM     11  O   UNL     1       5.663  -0.422  27.976  0.00  0.00    -0.276 OA
ENDBRANCH   1   9
BRANCH   4  12
ATOM     12  C   UNL     1       8.147  -1.991  22.132  0.00  0.00    +0.378 C 
ATOM     13  O   UNL     1       7.193  -2.742  21.992  0.00  0.00    -0.244 OA
BRANCH  12  14
ATOM     14  O   UNL     1       9.330  -2.198  21.490  0.00  0.00    -0.476 OA
ATOM     15  H   UNL     1       9.733  -1.339  21.251  0.00  0.00    +0.295 HD
ENDBRANCH  12  14
ENDBRANCH   4  12
BRANCH   6  16
ATOM     16  O   UNL     1       5.779  -2.544  24.365  0.00  0.00    -0.390 OA
ATOM     17  H   UNL     1       5.277  -2.983  25.081  0.00  0.00    +0.210 HD
ENDBRANCH   6  16
BRANCH   2  18
ATOM     18  C   UNL     1       8.984  -3.302  24.961  0.00  0.00    +0.176 C 
BRANCH  18  19
ATOM     19  O   UNL     1      10.210  -3.396  24.208  0.00  0.00    -0.387 OA
ATOM     20  H   UNL     1      10.853  -2.794  24.620  0.00  0.00    +0.210 HD
ENDBRANCH  18  19
BRANCH  18  21
ATOM     21  C   UNL     1       9.046  -4.331  26.096  0.00  0.00    +0.171 C 
BRANCH  21  22
ATOM     22  O   UNL     1      10.095  -5.271  25.858  0.00  0.00    -0.387 OA
ATOM     23  H   UNL     1       9.836  -5.772  25.065  0.00  0.00    +0.210 HD
ENDBRANCH  21  22
BRANCH  21  24
ATOM     24  C   UNL     1       7.737  -5.067  26.373  0.00  0.00    +0.189 C 
BRANCH  24  25
ATOM     25  O   UNL     1       7.907  -5.873  27.545  0.00  0.00    -0.392 OA
ATOM     26  H   UNL     1       8.804  -5.681  27.874  0.00  0.00    +0.210 HD
ENDBRANCH  24  25
ENDBRANCH  21  24
ENDBRANCH  18  21
ENDBRANCH   2  18
BRANCH   4  27
ATOM     27  O   UNL     1       8.652   0.254  22.198  0.00  0.00    -0.451 OA
BRANCH  27  28
ATOM     28  C   UNL     1       8.949   1.486  22.704  0.00  0.00    +0.128 A 
ATOM     29  C   UNL     1      10.222   2.031  22.766  0.00  0.00    +0.092 A 
ATOM     30  C   UNL     1      10.412   3.309  23.275  0.00  0.00    +0.143 A 
ATOM     31  C   UNL     1       9.364   4.088  23.760  0.00  0.00    +0.021 A 
ATOM     32  C   UNL     1       9.685   5.427  24.271  0.00  0.00    -0.033 A 
ATOM     33  C   UNL     1      10.956   5.852  24.202  0.00  0.00    +0.096 A 
ATOM     34  C   UNL     1      12.058   5.048  23.656  0.00  0.00    +0.337 A 
ATOM     35  O   UNL     1      13.199   5.490  23.591  0.00  0.00    -0.245 OA
ATOM     36  C   UNL     1       8.646   6.325  24.874  0.00  0.00    +0.045 C 
ATOM     37  C   UNL     1       8.083   3.522  23.711  0.00  0.00    +0.015 A 
ATOM     38  O   UNL     1      11.741   3.768  23.245  0.00  0.00    -0.422 OA
ATOM     39  C   UNL     1       7.880   2.230  23.199  0.00  0.00    +0.046 A 
ENDBRANCH  27  28
ENDBRANCH   4  27
TORSDOF 12
ENDMDL
MODEL 5
REMARK VINA RESULT:      -6.8      2.413      7.661
REMARK  Name = 
REMARK  14 active torsions:
REMARK  status: ('A' for Active; 'I' for Inactive)
REMARK    1  A    between atoms: C_1  and  C_2
REMARK    2  A    between atoms: N_4  and  C_5
REMARK    3  A    between atoms: C_7  and  O_9
REMARK    4  A    between atoms: C_11  and  O_12
REMARK    5  A    between atoms: C_11  and  C_36
REMARK    6  A    between atoms: O_12  and  C_13
REMARK    7  A    between atoms: C_17  and  C_18
REMARK    8  A    between atoms: C_26  and  C_28
REMARK    9  A    between atoms: C_28  and  O_30
REMARK   10  A    between atoms: C_28  and  C_31
REMARK   11  A    between atoms: C_31  and  O_33
REMARK   12  A    between atoms: C_31  and  C_34
REMARK   13  A    between atoms: C_34  and  O_35
REMARK   14  A    between atoms: C_36  and  O_37
REMARK                            x       y       z     vdW  Elec       q    Type
REMARK                         _______ _______ _______ _____ _____    ______ ____
ROOT
ATOM      1  C   UNL     1       5.643  -3.058  25.960  0.00  0.00    +0.133 C 
ATOM      2  C   UNL     1       7.052  -3.651  26.239  0.00  0.00    +0.177 C 
ATOM      3  O   UNL     1       7.975  -3.378  25.150  0.00  0.00    -0.323 OA
ATOM      4  C   UNL     1       7.555  -3.627  23.810  0.00  0.00    +0.314 C 
ATOM      5  C   UNL     1       6.137  -3.159  23.461  0.00  0.00    +0.124 C 
ATOM      6  C   UNL     1       5.120  -3.441  24.563  0.00  0.00    +0.144 C 
ENDROOT
BRANCH   1   9
ATOM      7  C   UNL     1       4.766   0.642  26.393  0.00  0.00    +0.109 C 
ATOM      8  C   UNL     1       4.519  -0.846  26.353  0.00  0.00    +0.210 C 
ATOM      9  N   UNL     1       5.653  -1.578  26.079  0.00  0.00    -0.308 N 
ATOM     10  H   UNL     1       6.480  -1.060  25.812  0.00  0.00    +0.149 HD
ATOM     11  O   UNL     1       3.418  -1.347  26.537  0.00  0.00    -0.276 OA
ENDBRANCH   1   9
BRANCH   4  12
ATOM     12  C   UNL     1       7.720  -5.129  23.440  0.00  0.00    +0.378 C 
ATOM     13  O   UNL     1       6.865  -5.801  22.882  0.00  0.00    -0.244 OA
BRANCH  12  14
ATOM     14  O   UNL     1       8.890  -5.669  23.881  0.00  0.00    -0.476 OA
ATOM     15  H   UNL     1       8.805  -6.642  23.942  0.00  0.00    +0.295 HD
ENDBRANCH  12  14
ENDBRANCH   4  12
BRANCH   6  16
ATOM     16  O   UNL     1       4.617  -4.767  24.510  0.00  0.00    -0.390 OA
ATOM     17  H   UNL     1       3.974  -4.950  25.223  0.00  0.00    +0.210 HD
ENDBRANCH   6  16
BRANCH   2  18
ATOM     18  C   UNL     1       7.183  -5.153  26.624  0.00  0.00    +0.176 C 
BRANCH  18  19
ATOM     19  O   UNL     1       8.581  -5.454  26.811  0.00  0.00    -0.387 OA
ATOM     20  H   UNL     1       8.676  -6.422  26.797  0.00  0.00    +0.210 HD
ENDBRANCH  18  19
BRANCH  18  21
ATOM     21  C   UNL     1       6.418  -5.681  27.843  0.00  0.00    +0.171 C 
BRANCH  21  22
ATOM     22  O   UNL     1       7.274  -6.480  28.659  0.00  0.00    -0.387 OA
ATOM     23  H   UNL     1       8.181  -6.313  28.349  0.00  0.00    +0.210 HD
ENDBRANCH  21  22
BRANCH  21  24
ATOM     24  C   UNL     1       5.138  -6.448  27.520  0.00  0.00    +0.189 C 
BRANCH  24  25
ATOM     25  O   UNL     1       5.128  -7.660  28.284  0.00  0.00    -0.392 OA
ATOM     26  H   UNL     1       5.914  -8.160  28.001  0.00  0.00    +0.210 HD
ENDBRANCH  24  25
ENDBRANCH  21  24
ENDBRANCH  18  21
ENDBRANCH   2  18
BRANCH   4  27
ATOM     27  O   UNL     1       8.500  -3.043  22.854  0.00  0.00    -0.451 OA
BRANCH  27  28
ATOM     28  C   UNL     1       8.704  -1.694  22.877  0.00  0.00    +0.128 A 
ATOM     29  C   UNL     1       7.751  -0.743  22.550  0.00  0.00    +0.092 A 
ATOM     30  C   UNL     1       8.054   0.610  22.634  0.00  0.00    +0.143 A 
ATOM     31  C   UNL     1       9.308   1.076  23.022  0.00  0.00    +0.021 A 
ATOM     32  C   UNL     1       9.512   2.529  23.078  0.00  0.00    -0.033 A 
ATOM     33  C   UNL     1       8.473   3.333  22.803  0.00  0.00    +0.096 A 
ATOM     34  C   UNL     1       7.138   2.845  22.431  0.00  0.00    +0.337 A 
ATOM     35  O   UNL     1       6.213   3.619  22.214  0.00  0.00    -0.245 OA
ATOM     36  C   UNL     1      10.838   3.139  23.420  0.00  0.00    +0.045 C 
ATOM     37  C   UNL     1      10.272   0.107  23.332  0.00  0.00    +0.015 A 
ATOM     38  O   UNL     1       6.992   1.477  22.319  0.00  0.00    -0.422 OA
ATOM     39  C   UNL     1       9.976  -1.264  23.249  0.00  0.00    +0.046 A 
ENDBRANCH  27  28
ENDBRANCH   4  27
TORSDOF 12
ENDMDL
MODEL 6
REMARK VINA RESULT:      -6.7      2.453      7.039
REMARK  Name = 
REMARK  14 active torsions:
REMARK  status: ('A' for Active; 'I' for Inactive)
REMARK    1  A    between atoms: C_1  and  C_2
REMARK    2  A    between atoms: N_4  and  C_5
REMARK    3  A    between atoms: C_7  and  O_9
REMARK    4  A    between atoms: C_11  and  O_12
REMARK    5  A    between atoms: C_11  and  C_36
REMARK    6  A    between atoms: O_12  and  C_13
REMARK    7  A    between atoms: C_17  and  C_18
REMARK    8  A    between atoms: C_26  and  C_28
REMARK    9  A    between atoms: C_28  and  O_30
REMARK   10  A    between atoms: C_28  and  C_31
REMARK   11  A    between atoms: C_31  and  O_33
REMARK   12  A    between atoms: C_31  and  C_34
REMARK   13  A    between atoms: C_34  and  O_35
REMARK   14  A    between atoms: C_36  and  O_37
REMARK                            x       y       z     vdW  Elec       q    Type
REMARK                         _______ _______ _______ _____ _____    ______ ____
ROOT
ATOM      1  C   UNL     1       6.870  -1.877  24.691  0.00  0.00    +0.133 C 
ATOM      2  C   UNL     1       8.282  -2.471  24.956  0.00  0.00    +0.177 C 
ATOM      3  O   UNL     1       9.327  -1.482  24.753  0.00  0.00    -0.323 OA
ATOM      4  C   UNL     1       9.305  -0.685  23.570  0.00  0.00    +0.314 C 
ATOM      5  C   UNL     1       7.933  -0.127  23.171  0.00  0.00    +0.124 C 
ATOM      6  C   UNL     1       6.799  -1.132  23.345  0.00  0.00    +0.144 C 
ENDROOT
BRANCH   1   9
ATOM      7  C   UNL     1       4.999   0.210  27.297  0.00  0.00    +0.109 C 
ATOM      8  C   UNL     1       5.170  -0.822  26.210  0.00  0.00    +0.210 C 
ATOM      9  N   UNL     1       6.471  -0.945  25.776  0.00  0.00    -0.308 N 
ATOM     10  H   UNL     1       7.135  -0.264  26.122  0.00  0.00    +0.149 HD
ATOM     11  O   UNL     1       4.241  -1.477  25.756  0.00  0.00    -0.276 OA
ENDBRANCH   1   9
BRANCH   4  12
ATOM     12  C   UNL     1       9.931  -1.448  22.368  0.00  0.00    +0.378 C 
ATOM     13  O   UNL     1      10.886  -2.207  22.453  0.00  0.00    -0.244 OA
BRANCH  12  14
ATOM     14  O   UNL     1       9.371  -1.124  21.170  0.00  0.00    -0.476 OA
ATOM     15  H   UNL     1       9.394  -1.898  20.571  0.00  0.00    +0.295 HD
ENDBRANCH  12  14
ENDBRANCH   4  12
BRANCH   6  16
ATOM     16  O   UNL     1       6.681  -2.012  22.237  0.00  0.00    -0.390 OA
ATOM     17  H   UNL     1       6.044  -2.735  22.402  0.00  0.00    +0.210 HD
ENDBRANCH   6  16
BRANCH   2  18
ATOM     18  C   UNL     1       8.703  -3.782  24.232  0.00  0.00    +0.176 C 
BRANCH  18  19
ATOM     19  O   UNL     1      10.029  -4.140  24.675  0.00  0.00    -0.387 OA
ATOM     20  H   UNL     1      10.085  -5.110  24.674  0.00  0.00    +0.210 HD
ENDBRANCH  18  19
BRANCH  18  21
ATOM     21  C   UNL     1       7.812  -5.022  24.355  0.00  0.00    +0.171 C 
BRANCH  21  22
ATOM     22  O   UNL     1       6.717  -4.941  23.442  0.00  0.00    -0.387 OA
ATOM     23  H   UNL     1       6.021  -5.519  23.800  0.00  0.00    +0.210 HD
ENDBRANCH  21  22
BRANCH  21  24
ATOM     24  C   UNL     1       7.298  -5.311  25.764  0.00  0.00    +0.189 C 
BRANCH  24  25
ATOM     25  O   UNL     1       8.386  -5.808  26.554  0.00  0.00    -0.392 OA
ATOM     26  H   UNL     1       9.158  -5.264  26.316  0.00  0.00    +0.210 HD
ENDBRANCH  24  25
ENDBRANCH  21  24
ENDBRANCH  18  21
ENDBRANCH   2  18
BRANCH   4  27
ATOM     27  O   UNL     1      10.260   0.421  23.672  0.00  0.00    -0.451 OA
BRANCH  27  28
ATOM     28  C   UNL     1       9.794   1.658  24.009  0.00  0.00    +0.128 A 
ATOM     29  C   UNL     1       8.822   1.905  24.965  0.00  0.00    +0.092 A 
ATOM     30  C   UNL     1       8.438   3.209  25.254  0.00  0.00    +0.143 A 
ATOM     31  C   UNL     1       8.981   4.313  24.601  0.00  0.00    +0.021 A 
ATOM     32  C   UNL     1       8.501   5.644  24.991  0.00  0.00    -0.033 A 
ATOM     33  C   UNL     1       7.606   5.736  25.987  0.00  0.00    +0.096 A 
ATOM     34  C   UNL     1       7.059   4.576  26.705  0.00  0.00    +0.337 A 
ATOM     35  O   UNL     1       6.262   4.712  27.625  0.00  0.00    -0.245 OA
ATOM     36  C   UNL     1       8.969   6.896  24.312  0.00  0.00    +0.045 C 
ATOM     37  C   UNL     1       9.950   4.053  23.622  0.00  0.00    +0.015 A 
ATOM     38  O   UNL     1       7.476   3.333  26.271  0.00  0.00    -0.422 OA
ATOM     39  C   UNL     1      10.344   2.739  23.321  0.00  0.00    +0.046 A 
ENDBRANCH  27  28
ENDBRANCH   4  27
TORSDOF 12
ENDMDL
MODEL 7
REMARK VINA RESULT:      -6.7      2.178      7.292
REMARK  Name = 
REMARK  14 active torsions:
REMARK  status: ('A' for Active; 'I' for Inactive)
REMARK    1  A    between atoms: C_1  and  C_2
REMARK    2  A    between atoms: N_4  and  C_5
REMARK    3  A    between atoms: C_7  and  O_9
REMARK    4  A    between atoms: C_11  and  O_12
REMARK    5  A    between atoms: C_11  and  C_36
REMARK    6  A    between atoms: O_12  and  C_13
REMARK    7  A    between atoms: C_17  and  C_18
REMARK    8  A    between atoms: C_26  and  C_28
REMARK    9  A    between atoms: C_28  and  O_30
REMARK   10  A    between atoms: C_28  and  C_31
REMARK   11  A    between atoms: C_31  and  O_33
REMARK   12  A    between atoms: C_31  and  C_34
REMARK   13  A    between atoms: C_34  and  O_35
REMARK   14  A    between atoms: C_36  and  O_37
REMARK                            x       y       z     vdW  Elec       q    Type
REMARK                         _______ _______ _______ _____ _____    ______ ____
ROOT
ATOM      1  C   UNL     1       7.231  -1.328  26.432  0.00  0.00    +0.133 C 
ATOM      2  C   UNL     1       8.452  -1.793  25.589  0.00  0.00    +0.177 C 
ATOM      3  O   UNL     1       8.563  -1.044  24.348  0.00  0.00    -0.323 OA
ATOM      4  C   UNL     1       7.401  -0.870  23.540  0.00  0.00    +0.314 C 
ATOM      5  C   UNL     1       6.118  -0.499  24.293  0.00  0.00    +0.124 C 
ATOM      6  C   UNL     1       5.939  -1.272  25.597  0.00  0.00    +0.144 C 
ENDROOT
BRANCH   1   9
ATOM      7  C   UNL     1       7.063   1.945  28.408  0.00  0.00    +0.109 C 
ATOM      8  C   UNL     1       6.634   0.566  27.969  0.00  0.00    +0.210 C 
ATOM      9  N   UNL     1       7.474   0.008  27.031  0.00  0.00    -0.308 N 
ATOM     10  H   UNL     1       8.193   0.607  26.646  0.00  0.00    +0.149 HD
ATOM     11  O   UNL     1       5.634   0.008  28.399  0.00  0.00    -0.276 OA
ENDBRANCH   1   9
BRANCH   4  12
ATOM     12  C   UNL     1       7.145  -2.118  22.648  0.00  0.00    +0.378 C 
ATOM     13  O   UNL     1       8.025  -2.782  22.120  0.00  0.00    -0.244 OA
BRANCH  12  14
ATOM     14  O   UNL     1       5.823  -2.362  22.425  0.00  0.00    -0.476 OA
ATOM     15  H   UNL     1       5.582  -2.084  21.518  0.00  0.00    +0.295 HD
ENDBRANCH  12  14
ENDBRANCH   4  12
BRANCH   6  16
ATOM     16  O   UNL     1       5.362  -2.552  25.391  0.00  0.00    -0.390 OA
ATOM     17  H   UNL     1       4.806  -2.585  24.588  0.00  0.00    +0.210 HD
ENDBRANCH   6  16
BRANCH   2  18
ATOM     18  C   UNL     1       8.620  -3.305  25.263  0.00  0.00    +0.176 C 
BRANCH  18  19
ATOM     19  O   UNL     1       9.788  -3.463  24.431  0.00  0.00    -0.387 OA
ATOM     20  H   UNL     1      10.538  -3.056  24.898  0.00  0.00    +0.210 HD
ENDBRANCH  18  19
BRANCH  18  21
ATOM     21  C   UNL     1       8.721  -4.310  26.416  0.00  0.00    +0.171 C 
BRANCH  21  22
ATOM     22  O   UNL     1       9.850  -5.166  26.232  0.00  0.00    -0.387 OA
ATOM     23  H   UNL     1       9.923  -5.318  25.274  0.00  0.00    +0.210 HD
ENDBRANCH  21  22
BRANCH  21  24
ATOM     24  C   UNL     1       7.465  -5.145  26.657  0.00  0.00    +0.189 C 
BRANCH  24  25
ATOM     25  O   UNL     1       7.721  -6.052  27.736  0.00  0.00    -0.392 OA
ATOM     26  H   UNL     1       7.613  -6.946  27.364  0.00  0.00    +0.210 HD
ENDBRANCH  24  25
ENDBRANCH  21  24
ENDBRANCH  18  21
ENDBRANCH   2  18
BRANCH   4  27
ATOM     27  O   UNL     1       7.644   0.125  22.491  0.00  0.00    -0.451 OA
BRANCH  27  28
ATOM     28  C   UNL     1       8.337   1.256  22.810  0.00  0.00    +0.128 A 
ATOM     29  C   UNL     1       7.819   2.329  23.518  0.00  0.00    +0.092 A 
ATOM     30  C   UNL     1       8.622   3.423  23.816  0.00  0.00    +0.143 A 
ATOM     31  C   UNL     1       9.951   3.512  23.411  0.00  0.00    +0.021 A 
ATOM     32  C   UNL     1      10.703   4.716  23.786  0.00  0.00    -0.033 A 
ATOM     33  C   UNL     1      10.092   5.644  24.539  0.00  0.00    +0.096 A 
ATOM     34  C   UNL     1       8.701   5.537  25.000  0.00  0.00    +0.337 A 
ATOM     35  O   UNL     1       8.195   6.400  25.707  0.00  0.00    -0.245 OA
ATOM     36  C   UNL     1      12.119   4.946  23.350  0.00  0.00    +0.045 C 
ATOM     37  C   UNL     1      10.461   2.432  22.679  0.00  0.00    +0.015 A 
ATOM     38  O   UNL     1       7.997   4.428  24.576  0.00  0.00    -0.422 OA
ATOM     39  C   UNL     1       9.658   1.320  22.371  0.00  0.00    +0.046 A 
ENDBRANCH  27  28
ENDBRANCH   4  27
TORSDOF 12
ENDMDL
MODEL 8
REMARK VINA RESULT:      -6.5      2.433      3.456
REMARK  Name = 
REMARK  14 active torsions:
REMARK  status: ('A' for Active; 'I' for Inactive)
REMARK    1  A    between atoms: C_1  and  C_2
REMARK    2  A    between atoms: N_4  and  C_5
REMARK    3  A    between atoms: C_7  and  O_9
REMARK    4  A    between atoms: C_11  and  O_12
REMARK    5  A    between atoms: C_11  and  C_36
REMARK    6  A    between atoms: O_12  and  C_13
REMARK    7  A    between atoms: C_17  and  C_18
REMARK    8  A    between atoms: C_26  and  C_28
REMARK    9  A    between atoms: C_28  and  O_30
REMARK   10  A    between atoms: C_28  and  C_31
REMARK   11  A    between atoms: C_31  and  O_33
REMARK   12  A    between atoms: C_31  and  C_34
REMARK   13  A    between atoms: C_34  and  O_35
REMARK   14  A    between atoms: C_36  and  O_37
REMARK                            x       y       z     vdW  Elec       q    Type
REMARK                         _______ _______ _______ _____ _____    ______ ____
ROOT
ATOM      1  C   UNL     1       7.977   0.805  24.880  0.00  0.00    +0.133 C 
ATOM      2  C   UNL     1       7.867   0.905  23.333  0.00  0.00    +0.177 C 
ATOM      3  O   UNL     1       7.649  -0.397  22.725  0.00  0.00    -0.323 OA
ATOM      4  C   UNL     1       8.470  -1.492  23.124  0.00  0.00    +0.314 C 
ATOM      5  C   UNL     1       8.716  -1.623  24.633  0.00  0.00    +0.124 C 
ATOM      6  C   UNL     1       8.972  -0.285  25.320  0.00  0.00    +0.144 C 
ENDROOT
BRANCH   1   9
ATOM      7  C   UNL     1       4.549   0.987  26.572  0.00  0.00    +0.109 C 
ATOM      8  C   UNL     1       5.824   1.515  25.961  0.00  0.00    +0.210 C 
ATOM      9  N   UNL     1       6.655   0.522  25.493  0.00  0.00    -0.308 N 
ATOM     10  H   UNL     1       6.399  -0.432  25.714  0.00  0.00    +0.149 HD
ATOM     11  O   UNL     1       6.093   2.707  25.899  0.00  0.00    -0.276 OA
ENDBRANCH   1   9
BRANCH   4  12
ATOM     12  C   UNL     1       9.830  -1.478  22.369  0.00  0.00    +0.378 C 
ATOM     13  O   UNL     1      10.915  -1.676  22.896  0.00  0.00    -0.244 OA
BRANCH  12  14
ATOM     14  O   UNL     1       9.716  -1.131  21.057  0.00  0.00    -0.476 OA
ATOM     15  H   UNL     1       9.908  -1.905  20.490  0.00  0.00    +0.295 HD
ENDBRANCH  12  14
ENDBRANCH   4  12
BRANCH   6  16
ATOM     16  O   UNL     1      10.325   0.130  25.210  0.00  0.00    -0.390 OA
ATOM     17  H   UNL     1      10.531   0.495  24.326  0.00  0.00    +0.210 HD
ENDBRANCH   6  16
BRANCH   2  18
ATOM     18  C   UNL     1       8.986   1.634  22.536  0.00  0.00    +0.176 C 
BRANCH  18  19
ATOM     19  O   UNL     1       8.596   1.688  21.149  0.00  0.00    -0.387 OA
ATOM     20  H   UNL     1       9.296   2.158  20.666  0.00  0.00    +0.210 HD
ENDBRANCH  18  19
BRANCH  18  21
ATOM     21  C   UNL     1       9.410   3.043  22.963  0.00  0.00    +0.171 C 
BRANCH  21  22
ATOM     22  O   UNL     1      10.303   2.979  24.076  0.00  0.00    -0.387 OA
ATOM     23  H   UNL     1       9.804   3.306  24.845  0.00  0.00    +0.210 HD
ENDBRANCH  21  22
BRANCH  21  24
ATOM     24  C   UNL     1       8.259   3.999  23.272  0.00  0.00    +0.189 C 
BRANCH  24  25
ATOM     25  O   UNL     1       7.711   4.467  22.034  0.00  0.00    -0.392 OA
ATOM     26  H   UNL     1       6.758   4.265  22.070  0.00  0.00    +0.210 HD
ENDBRANCH  24  25
ENDBRANCH  21  24
ENDBRANCH  18  21
ENDBRANCH   2  18
BRANCH   4  27
ATOM     27  O   UNL     1       7.931  -2.757  22.617  0.00  0.00    -0.451 OA
BRANCH  27  28
ATOM     28  C   UNL     1       6.946  -3.379  23.326  0.00  0.00    +0.128 A 
ATOM     29  C   UNL     1       5.785  -2.768  23.773  0.00  0.00    +0.092 A 
ATOM     30  C   UNL     1       4.829  -3.503  24.465  0.00  0.00    +0.143 A 
ATOM     31  C   UNL     1       4.989  -4.854  24.759  0.00  0.00    +0.021 A 
ATOM     32  C   UNL     1       3.911  -5.528  25.493  0.00  0.00    -0.033 A 
ATOM     33  C   UNL     1       2.808  -4.826  25.799  0.00  0.00    +0.096 A 
ATOM     34  C   UNL     1       2.619  -3.410  25.456  0.00  0.00    +0.337 A 
ATOM     35  O   UNL     1       1.583  -2.819  25.735  0.00  0.00    -0.245 OA
ATOM     36  C   UNL     1       4.005  -6.963  25.919  0.00  0.00    +0.045 C 
ATOM     37  C   UNL     1       6.175  -5.459  24.321  0.00  0.00    +0.015 A 
ATOM     38  O   UNL     1       3.677  -2.784  24.827  0.00  0.00    -0.422 OA
ATOM     39  C   UNL     1       7.148  -4.726  23.622  0.00  0.00    +0.046 A 
ENDBRANCH  27  28
ENDBRANCH   4  27
TORSDOF 12
ENDMDL
MODEL 9
REMARK VINA RESULT:      -6.3      2.610      7.682
REMARK  Name = 
REMARK  14 active torsions:
REMARK  status: ('A' for Active; 'I' for Inactive)
REMARK    1  A    between atoms: C_1  and  C_2
REMARK    2  A    between atoms: N_4  and  C_5
REMARK    3  A    between atoms: C_7  and  O_9
REMARK    4  A    between atoms: C_11  and  O_12
REMARK    5  A    between atoms: C_11  and  C_36
REMARK    6  A    between atoms: O_12  and  C_13
REMARK    7  A    between atoms: C_17  and  C_18
REMARK    8  A    between atoms: C_26  and  C_28
REMARK    9  A    between atoms: C_28  and  O_30
REMARK   10  A    between atoms: C_28  and  C_31
REMARK   11  A    between atoms: C_31  and  O_33
REMARK   12  A    between atoms: C_31  and  C_34
REMARK   13  A    between atoms: C_34  and  O_35
REMARK   14  A    between atoms: C_36  and  O_37
REMARK                            x       y       z     vdW  Elec       q    Type
REMARK                         _______ _______ _______ _____ _____    ______ ____
ROOT
ATOM      1  C   UNL     1       8.011  -3.142  23.072  0.00  0.00    +0.133 C 
ATOM      2  C   UNL     1       6.584  -3.223  23.682  0.00  0.00    +0.177 C 
ATOM      3  O   UNL     1       6.456  -2.384  24.862  0.00  0.00    -0.323 OA
ATOM      4  C   UNL     1       7.464  -2.450  25.869  0.00  0.00    +0.314 C 
ATOM      5  C   UNL     1       8.911  -2.469  25.361  0.00  0.00    +0.124 C 
ATOM      6  C   UNL     1       9.107  -3.353  24.133  0.00  0.00    +0.144 C 
ENDROOT
BRANCH   1   9
ATOM      7  C   UNL     1       9.469  -0.012  21.421  0.00  0.00    +0.109 C 
ATOM      8  C   UNL     1       9.486  -1.382  22.052  0.00  0.00    +0.210 C 
ATOM      9  N   UNL     1       8.233  -1.833  22.407  0.00  0.00    -0.308 N 
ATOM     10  H   UNL     1       7.471  -1.172  22.332  0.00  0.00    +0.149 HD
ATOM     11  O   UNL     1      10.512  -2.021  22.238  0.00  0.00    -0.276 OA
ENDBRANCH   1   9
BRANCH   4  12
ATOM     12  C   UNL     1       7.226  -3.656  26.823  0.00  0.00    +0.378 C 
ATOM     13  O   UNL     1       8.040  -4.542  27.032  0.00  0.00    -0.244 OA
BRANCH  12  14
ATOM     14  O   UNL     1       5.969  -3.690  27.349  0.00  0.00    -0.476 OA
ATOM     15  H   UNL     1       6.018  -3.708  28.326  0.00  0.00    +0.295 HD
ENDBRANCH  12  14
ENDBRANCH   4  12
BRANCH   6  16
ATOM     16  O   UNL     1       9.286  -4.719  24.472  0.00  0.00    -0.390 OA
ATOM     17  H   UNL     1       9.779  -4.833  25.309  0.00  0.00    +0.210 HD
ENDBRANCH   6  16
BRANCH   2  18
ATOM     18  C   UNL     1       5.973  -4.617  24.006  0.00  0.00    +0.176 C 
BRANCH  18  19
ATOM     19  O   UNL     1       4.825  -4.424  24.858  0.00  0.00    -0.387 OA
ATOM     20  H   UNL     1       4.052  -4.294  24.282  0.00  0.00    +0.210 HD
ENDBRANCH  18  19
BRANCH  18  21
ATOM     21  C   UNL     1       5.558  -5.536  22.853  0.00  0.00    +0.171 C 
BRANCH  21  22
ATOM     22  O   UNL     1       5.542  -4.813  21.621  0.00  0.00    -0.387 OA
ATOM     23  H   UNL     1       6.402  -4.980  21.196  0.00  0.00    +0.210 HD
ENDBRANCH  21  22
BRANCH  21  24
ATOM     24  C   UNL     1       4.227  -6.260  23.050  0.00  0.00    +0.189 C 
BRANCH  24  25
ATOM     25  O   UNL     1       4.445  -7.390  23.903  0.00  0.00    -0.392 OA
ATOM     26  H   UNL     1       4.043  -7.160  24.759  0.00  0.00    +0.210 HD
ENDBRANCH  24  25
ENDBRANCH  21  24
ENDBRANCH  18  21
ENDBRANCH   2  18
BRANCH   4  27
ATOM     27  O   UNL     1       7.309  -1.355  26.830  0.00  0.00    -0.451 OA
BRANCH  27  28
ATOM     28  C   UNL     1       7.551  -0.079  26.412  0.00  0.00    +0.128 A 
ATOM     29  C   UNL     1       8.601   0.300  25.591  0.00  0.00    +0.092 A 
ATOM     30  C   UNL     1       8.741   1.626  25.199  0.00  0.00    +0.143 A 
ATOM     31  C   UNL     1       7.868   2.628  25.616  0.00  0.00    +0.021 A 
ATOM     32  C   UNL     1       8.112   3.993  25.136  0.00  0.00    -0.033 A 
ATOM     33  C   UNL     1       9.129   4.200  24.284  0.00  0.00    +0.096 A 
ATOM     34  C   UNL     1      10.028   3.139  23.811  0.00  0.00    +0.337 A 
ATOM     35  O   UNL     1      10.927   3.373  23.012  0.00  0.00    -0.245 OA
ATOM     36  C   UNL     1       7.275   5.158  25.572  0.00  0.00    +0.045 C 
ATOM     37  C   UNL     1       6.820   2.239  26.462  0.00  0.00    +0.015 A 
ATOM     38  O   UNL     1       9.818   1.878  24.332  0.00  0.00    -0.422 OA
ATOM     39  C   UNL     1       6.671   0.902  26.865  0.00  0.00    +0.046 A 
ENDBRANCH  27  28
ENDBRANCH   4  27
TORSDOF 12
ENDMDL
