MODEL 1
REMARK VINA RESULT:      -5.4      0.000      0.000
REMARK  Name = 
REMARK  8 active torsions:
REMARK  status: ('A' for Active; 'I' for Inactive)
REMARK    1  A    between atoms: C_1  and  O_2
REMARK    2  A    between atoms: O_2  and  C_3
REMARK    3  A    between atoms: C_5  and  C_6
REMARK    4  A    between atoms: C_7  and  C_8
REMARK    5  A    between atoms: C_8  and  O_9
REMARK    6  A    between atoms: C_12  and  O_13
REMARK    7  A    between atoms: O_13  and  C_14
REMARK    8  A    between atoms: C_15  and  O_16
REMARK                            x       y       z     vdW  Elec       q    Type
REMARK                         _______ _______ _______ _____ _____    ______ ____
ROOT
ATOM      1  C   UNL     1       8.629  -4.610  24.914  0.00  0.00    +0.166 A 
ATOM      2  C   UNL     1       8.591  -4.964  26.279  0.00  0.00    +0.201 A 
ATOM      3  C   UNL     1       7.415  -5.464  26.845  0.00  0.00    +0.166 A 
ATOM      4  C   UNL     1       6.286  -5.627  26.020  0.00  0.00    +0.057 A 
ATOM      5  C   UNL     1       6.311  -5.297  24.663  0.00  0.00    -0.018 A 
ATOM      6  C   UNL     1       7.483  -4.757  24.125  0.00  0.00    +0.057 A 
ENDROOT
BRANCH   1   8
ATOM      7  C   UNL     1       9.732  -2.710  24.005  0.00  0.00    +0.277 C 
ATOM      8  O   UNL     1       9.800  -4.065  24.441  0.00  0.00    -0.491 OA
ENDBRANCH   1   8
BRANCH   2   9
ATOM      9  O   UNL     1       9.755  -4.816  26.984  0.00  0.00    -0.501 OA
ATOM     10  H   UNL     1      10.022  -3.888  26.909  0.00  0.00    +0.292 HD
ENDBRANCH   2   9
BRANCH   3  11
ATOM     11  O   UNL     1       7.157  -5.863  28.128  0.00  0.00    -0.491 OA
ATOM     12  C   UNL     1       5.830  -5.972  28.609  0.00  0.00    +0.277 C 
ENDBRANCH   3  11
BRANCH   5  13
ATOM     13  C   UNL     1       5.138  -5.428  23.784  0.00  0.00    +0.015 C 
ATOM     14  C   UNL     1       4.052  -6.154  24.092  0.00  0.00    +0.092 C 
BRANCH  14  15
ATOM     15  C   UNL     1       2.865  -6.320  23.233  0.00  0.00    +0.330 C 
ATOM     16  O   UNL     1       2.235  -5.361  22.820  0.00  0.00    -0.246 OA
BRANCH  15  17
ATOM     17  O   UNL     1       2.518  -7.593  22.981  0.00  0.00    -0.478 OA
ATOM     18  H   UNL     1       2.325  -7.790  22.049  0.00  0.00    +0.295 HD
ENDBRANCH  15  17
ENDBRANCH  14  15
ENDBRANCH   5  13
TORSDOF 6
ENDMDL
MODEL 2
REMARK VINA RESULT:      -5.3      0.216      3.224
REMARK  Name = 
REMARK  8 active torsions:
REMARK  status: ('A' for Active; 'I' for Inactive)
REMARK    1  A    between atoms: C_1  and  O_2
REMARK    2  A    between atoms: O_2  and  C_3
REMARK    3  A    between atoms: C_5  and  C_6
REMARK    4  A    between atoms: C_7  and  C_8
REMARK    5  A    between atoms: C_8  and  O_9
REMARK    6  A    between atoms: C_12  and  O_13
REMARK    7  A    between atoms: O_13  and  C_14
REMARK    8  A    between atoms: C_15  and  O_16
REMARK                            x       y       z     vdW  Elec       q    Type
REMARK                         _______ _______ _______ _____ _____    ______ ____
ROOT
ATOM      1  C   UNL     1       7.257  -5.492  26.786  0.00  0.00    +0.166 A 
ATOM      2  C   UNL     1       8.451  -4.971  26.243  0.00  0.00    +0.201 A 
ATOM      3  C   UNL     1       8.499  -4.564  24.907  0.00  0.00    +0.166 A 
ATOM      4  C   UNL     1       7.329  -4.663  24.130  0.00  0.00    +0.057 A 
ATOM      5  C   UNL     1       6.134  -5.160  24.657  0.00  0.00    -0.018 A 
ATOM      6  C   UNL     1       6.118  -5.602  25.982  0.00  0.00    +0.057 A 
ENDROOT
BRANCH   1   8
ATOM      7  C   UNL     1       6.043  -6.164  28.716  0.00  0.00    +0.277 C 
ATOM      8  O   UNL     1       7.302  -5.931  28.088  0.00  0.00    -0.491 OA
ENDBRANCH   1   8
BRANCH   2   9
ATOM      9  O   UNL     1       9.519  -4.870  27.093  0.00  0.00    -0.501 OA
ATOM     10  H   UNL     1      10.322  -4.892  26.553  0.00  0.00    +0.292 HD
ENDBRANCH   2   9
BRANCH   3  11
ATOM     11  O   UNL     1       9.535  -4.040  24.183  0.00  0.00    -0.491 OA
ATOM     12  C   UNL     1       9.665  -2.643  23.995  0.00  0.00    +0.277 C 
ENDBRANCH   3  11
BRANCH   5  13
ATOM     13  C   UNL     1       4.905  -5.301  23.859  0.00  0.00    +0.015 C 
ATOM     14  C   UNL     1       4.031  -6.308  24.006  0.00  0.00    +0.092 C 
BRANCH  14  15
ATOM     15  C   UNL     1       2.799  -6.490  23.217  0.00  0.00    +0.330 C 
ATOM     16  O   UNL     1       2.176  -5.540  22.775  0.00  0.00    -0.246 OA
BRANCH  15  17
ATOM     17  O   UNL     1       2.404  -7.766  23.064  0.00  0.00    -0.478 OA
ATOM     18  H   UNL     1       1.658  -8.035  23.627  0.00  0.00    +0.295 HD
ENDBRANCH  15  17
ENDBRANCH  14  15
ENDBRANCH   5  13
TORSDOF 6
ENDMDL
MODEL 3
REMARK VINA RESULT:      -5.3      6.895     10.538
REMARK  Name = 
REMARK  8 active torsions:
REMARK  status: ('A' for Active; 'I' for Inactive)
REMARK    1  A    between atoms: C_1  and  O_2
REMARK    2  A    between atoms: O_2  and  C_3
REMARK    3  A    between atoms: C_5  and  C_6
REMARK    4  A    between atoms: C_7  and  C_8
REMARK    5  A    between atoms: C_8  and  O_9
REMARK    6  A    between atoms: C_12  and  O_13
REMARK    7  A    between atoms: O_13  and  C_14
REMARK    8  A    between atoms: C_15  and  O_16
REMARK                            x       y       z     vdW  Elec       q    Type
REMARK                         _______ _______ _______ _____ _____    ______ ____
ROOT
ATOM      1  C   UNL     1       7.311   2.180  23.649  0.00  0.00    +0.166 A 
ATOM      2  C   UNL     1       7.655   1.081  22.834  0.00  0.00    +0.201 A 
ATOM      3  C   UNL     1       8.927   1.000  22.260  0.00  0.00    +0.166 A 
ATOM      4  C   UNL     1       9.855   2.023  22.532  0.00  0.00    +0.057 A 
ATOM      5  C   UNL     1       9.536   3.109  23.351  0.00  0.00    -0.018 A 
ATOM      6  C   UNL     1       8.245   3.194  23.881  0.00  0.00    +0.057 A 
ENDROOT
BRANCH   1   8
ATOM      7  C   UNL     1       5.180   3.232  23.574  0.00  0.00    +0.277 C 
ATOM      8  O   UNL     1       6.022   2.224  24.128  0.00  0.00    -0.491 OA
ENDBRANCH   1   8
BRANCH   2   9
ATOM      9  O   UNL     1       6.699   0.114  22.671  0.00  0.00    -0.501 OA
ATOM     10  H   UNL     1       5.988   0.498  22.138  0.00  0.00    +0.292 HD
ENDBRANCH   2   9
BRANCH   3  11
ATOM     11  O   UNL     1       9.466   0.040  21.448  0.00  0.00    -0.491 OA
ATOM     12  C   UNL     1       9.923  -1.193  21.973  0.00  0.00    +0.277 C 
ENDBRANCH   3  11
BRANCH   5  13
ATOM     13  C   UNL     1      10.477   4.206  23.628  0.00  0.00    +0.015 C 
ATOM     14  C   UNL     1      11.775   4.181  23.291  0.00  0.00    +0.092 C 
BRANCH  14  15
ATOM     15  C   UNL     1      12.749   5.254  23.563  0.00  0.00    +0.330 C 
ATOM     16  O   UNL     1      12.415   6.304  24.084  0.00  0.00    -0.246 OA
BRANCH  15  17
ATOM     17  O   UNL     1      14.005   4.998  23.160  0.00  0.00    -0.478 OA
ATOM     18  H   UNL     1      14.607   4.692  23.860  0.00  0.00    +0.295 HD
ENDBRANCH  15  17
ENDBRANCH  14  15
ENDBRANCH   5  13
TORSDOF 6
ENDMDL
MODEL 4
REMARK VINA RESULT:      -5.1      6.601     10.344
REMARK  Name = 
REMARK  8 active torsions:
REMARK  status: ('A' for Active; 'I' for Inactive)
REMARK    1  A    between atoms: C_1  and  O_2
REMARK    2  A    between atoms: O_2  and  C_3
REMARK    3  A    between atoms: C_5  and  C_6
REMARK    4  A    between atoms: C_7  and  C_8
REMARK    5  A    between atoms: C_8  and  O_9
REMARK    6  A    between atoms: C_12  and  O_13
REMARK    7  A    between atoms: O_13  and  C_14
REMARK    8  A    between atoms: C_15  and  O_16
REMARK                            x       y       z     vdW  Elec       q    Type
REMARK                         _______ _______ _______ _____ _____    ______ ____
ROOT
ATOM      1  C   UNL     1       9.148   0.623  23.560  0.00  0.00    +0.166 A 
ATOM      2  C   UNL     1       7.881   0.874  22.991  0.00  0.00    +0.201 A 
ATOM      3  C   UNL     1       7.488   2.182  22.694  0.00  0.00    +0.166 A 
ATOM      4  C   UNL     1       8.390   3.231  22.952  0.00  0.00    +0.057 A 
ATOM      5  C   UNL     1       9.655   2.999  23.499  0.00  0.00    -0.018 A 
ATOM      6  C   UNL     1      10.012   1.689  23.830  0.00  0.00    +0.057 A 
ENDROOT
BRANCH   1   8
ATOM      7  C   UNL     1      10.283  -1.381  22.971  0.00  0.00    +0.277 C 
ATOM      8  O   UNL     1       9.441  -0.681  23.883  0.00  0.00    -0.491 OA
ENDBRANCH   1   8
BRANCH   2   9
ATOM      9  O   UNL     1       7.097  -0.218  22.731  0.00  0.00    -0.501 OA
ATOM     10  H   UNL     1       6.176   0.051  22.855  0.00  0.00    +0.292 HD
ENDBRANCH   2   9
BRANCH   3  11
ATOM     11  O   UNL     1       6.323   2.648  22.149  0.00  0.00    -0.491 OA
ATOM     12  C   UNL     1       5.254   3.086  22.968  0.00  0.00    +0.277 C 
ENDBRANCH   3  11
BRANCH   5  13
ATOM     13  C   UNL     1      10.605   4.080  23.807  0.00  0.00    +0.015 C 
ATOM     14  C   UNL     1      11.807   4.207  23.225  0.00  0.00    +0.092 C 
BRANCH  14  15
ATOM     15  C   UNL     1      12.789   5.266  23.517  0.00  0.00    +0.330 C 
ATOM     16  O   UNL     1      12.458   6.323  24.027  0.00  0.00    -0.246 OA
BRANCH  15  17
ATOM     17  O   UNL     1      14.051   4.991  23.144  0.00  0.00    -0.478 OA
ATOM     18  H   UNL     1      14.615   4.624  23.845  0.00  0.00    +0.295 HD
ENDBRANCH  15  17
ENDBRANCH  14  15
ENDBRANCH   5  13
TORSDOF 6
ENDMDL
MODEL 5
REMARK VINA RESULT:      -5.1      2.752      4.681
REMARK  Name = 
REMARK  8 active torsions:
REMARK  status: ('A' for Active; 'I' for Inactive)
REMARK    1  A    between atoms: C_1  and  O_2
REMARK    2  A    between atoms: O_2  and  C_3
REMARK    3  A    between atoms: C_5  and  C_6
REMARK    4  A    between atoms: C_7  and  C_8
REMARK    5  A    between atoms: C_8  and  O_9
REMARK    6  A    between atoms: C_12  and  O_13
REMARK    7  A    between atoms: O_13  and  C_14
REMARK    8  A    between atoms: C_15  and  O_16
REMARK                            x       y       z     vdW  Elec       q    Type
REMARK                         _______ _______ _______ _____ _____    ______ ____
ROOT
ATOM      1  C   UNL     1       8.945  -2.631  24.535  0.00  0.00    +0.166 A 
ATOM      2  C   UNL     1       8.364  -3.009  23.306  0.00  0.00    +0.201 A 
ATOM      3  C   UNL     1       7.532  -4.130  23.235  0.00  0.00    +0.166 A 
ATOM      4  C   UNL     1       7.272  -4.851  24.415  0.00  0.00    +0.057 A 
ATOM      5  C   UNL     1       7.826  -4.481  25.643  0.00  0.00    -0.018 A 
ATOM      6  C   UNL     1       8.690  -3.383  25.686  0.00  0.00    +0.057 A 
ENDROOT
BRANCH   1   8
ATOM      7  C   UNL     1       9.377  -0.400  25.234  0.00  0.00    +0.277 C 
ATOM      8  O   UNL     1       9.803  -1.556  24.516  0.00  0.00    -0.491 OA
ENDBRANCH   1   8
BRANCH   2   9
ATOM      9  O   UNL     1       8.638  -2.213  22.226  0.00  0.00    -0.501 OA
ATOM     10  H   UNL     1       7.893  -2.290  21.613  0.00  0.00    +0.292 HD
ENDBRANCH   2   9
BRANCH   3  11
ATOM     11  O   UNL     1       6.874  -4.670  22.164  0.00  0.00    -0.491 OA
ATOM     12  C   UNL     1       7.115  -6.003  21.752  0.00  0.00    +0.277 C 
ENDBRANCH   3  11
BRANCH   5  13
ATOM     13  C   UNL     1       7.595  -5.235  26.886  0.00  0.00    +0.015 C 
ATOM     14  C   UNL     1       6.378  -5.546  27.357  0.00  0.00    +0.092 C 
BRANCH  14  15
ATOM     15  C   UNL     1       6.108  -6.286  28.602  0.00  0.00    +0.330 C 
ATOM     16  O   UNL     1       6.412  -5.836  29.693  0.00  0.00    -0.246 OA
BRANCH  15  17
ATOM     17  O   UNL     1       5.547  -7.496  28.435  0.00  0.00    -0.478 OA
ATOM     18  H   UNL     1       5.171  -7.889  29.241  0.00  0.00    +0.295 HD
ENDBRANCH  15  17
ENDBRANCH  14  15
ENDBRANCH   5  13
TORSDOF 6
ENDMDL
MODEL 6
REMARK VINA RESULT:      -5.0      2.938      4.747
REMARK  Name = 
REMARK  8 active torsions:
REMARK  status: ('A' for Active; 'I' for Inactive)
REMARK    1  A    between atoms: C_1  and  O_2
REMARK    2  A    between atoms: O_2  and  C_3
REMARK    3  A    between atoms: C_5  and  C_6
REMARK    4  A    between atoms: C_7  and  C_8
REMARK    5  A    between atoms: C_8  and  O_9
REMARK    6  A    between atoms: C_12  and  O_13
REMARK    7  A    between atoms: O_13  and  C_14
REMARK    8  A    between atoms: C_15  and  O_16
REMARK                            x       y       z     vdW  Elec       q    Type
REMARK                         _______ _______ _______ _____ _____    ______ ____
ROOT
ATOM      1  C   UNL     1       7.691  -4.167  23.438  0.00  0.00    +0.166 A 
ATOM      2  C   UNL     1       8.250  -2.893  23.670  0.00  0.00    +0.201 A 
ATOM      3  C   UNL     1       8.541  -2.477  24.972  0.00  0.00    +0.166 A 
ATOM      4  C   UNL     1       8.288  -3.364  26.035  0.00  0.00    +0.057 A 
ATOM      5  C   UNL     1       7.751  -4.636  25.822  0.00  0.00    -0.018 A 
ATOM      6  C   UNL     1       7.425  -5.017  24.517  0.00  0.00    +0.057 A 
ENDROOT
BRANCH   1   8
ATOM      7  C   UNL     1       7.111  -5.860  21.872  0.00  0.00    +0.277 C 
ATOM      8  O   UNL     1       7.372  -4.484  22.139  0.00  0.00    -0.491 OA
ENDBRANCH   1   8
BRANCH   2   9
ATOM      9  O   UNL     1       8.505  -2.125  22.565  0.00  0.00    -0.501 OA
ATOM     10  H   UNL     1       9.259  -1.555  22.777  0.00  0.00    +0.292 HD
ENDBRANCH   2   9
BRANCH   3  11
ATOM     11  O   UNL     1       9.077  -1.300  25.420  0.00  0.00    -0.491 OA
ATOM     12  C   UNL     1       8.773  -0.801  26.710  0.00  0.00    +0.277 C 
ENDBRANCH   3  11
BRANCH   5  13
ATOM     13  C   UNL     1       7.448  -5.571  26.917  0.00  0.00    +0.015 C 
ATOM     14  C   UNL     1       6.432  -5.410  27.779  0.00  0.00    +0.092 C 
BRANCH  14  15
ATOM     15  C   UNL     1       6.107  -6.317  28.894  0.00  0.00    +0.330 C 
ATOM     16  O   UNL     1       6.298  -5.998  30.055  0.00  0.00    -0.246 OA
BRANCH  15  17
ATOM     17  O   UNL     1       5.630  -7.519  28.529  0.00  0.00    -0.478 OA
ATOM     18  H   UNL     1       6.066  -7.917  27.756  0.00  0.00    +0.295 HD
ENDBRANCH  15  17
ENDBRANCH  14  15
ENDBRANCH   5  13
TORSDOF 6
ENDMDL
MODEL 7
REMARK VINA RESULT:      -5.0      3.679      5.433
REMARK  Name = 
REMARK  8 active torsions:
REMARK  status: ('A' for Active; 'I' for Inactive)
REMARK    1  A    between atoms: C_1  and  O_2
REMARK    2  A    between atoms: O_2  and  C_3
REMARK    3  A    between atoms: C_5  and  C_6
REMARK    4  A    between atoms: C_7  and  C_8
REMARK    5  A    between atoms: C_8  and  O_9
REMARK    6  A    between atoms: C_12  and  O_13
REMARK    7  A    between atoms: O_13  and  C_14
REMARK    8  A    between atoms: C_15  and  O_16
REMARK                            x       y       z     vdW  Elec       q    Type
REMARK                         _______ _______ _______ _____ _____    ______ ____
ROOT
ATOM      1  C   UNL     1       8.521  -1.427  25.133  0.00  0.00    +0.166 A 
ATOM      2  C   UNL     1       9.396  -0.525  24.491  0.00  0.00    +0.201 A 
ATOM      3  C   UNL     1       9.507  -0.521  23.099  0.00  0.00    +0.166 A 
ATOM      4  C   UNL     1       8.712  -1.416  22.357  0.00  0.00    +0.057 A 
ATOM      5  C   UNL     1       7.828  -2.304  22.975  0.00  0.00    -0.018 A 
ATOM      6  C   UNL     1       7.763  -2.323  24.371  0.00  0.00    +0.057 A 
ENDROOT
BRANCH   1   8
ATOM      7  C   UNL     1       7.396  -0.777  27.124  0.00  0.00    +0.277 C 
ATOM      8  O   UNL     1       8.511  -1.418  26.509  0.00  0.00    -0.491 OA
ENDBRANCH   1   8
BRANCH   2   9
ATOM      9  O   UNL     1      10.088   0.338  25.299  0.00  0.00    -0.501 OA
ATOM     10  H   UNL     1      10.451  -0.180  26.031  0.00  0.00    +0.292 HD
ENDBRANCH   2   9
BRANCH   3  11
ATOM     11  O   UNL     1      10.282   0.254  22.280  0.00  0.00    -0.491 OA
ATOM     12  C   UNL     1       9.940   1.600  22.006  0.00  0.00    +0.277 C 
ENDBRANCH   3  11
BRANCH   5  13
ATOM     13  C   UNL     1       7.008  -3.269  22.226  0.00  0.00    +0.015 C 
ATOM     14  C   UNL     1       7.219  -4.594  22.234  0.00  0.00    +0.092 C 
BRANCH  14  15
ATOM     15  C   UNL     1       6.429  -5.588  21.487  0.00  0.00    +0.330 C 
ATOM     16  O   UNL     1       5.951  -5.336  20.394  0.00  0.00    -0.246 OA
BRANCH  15  17
ATOM     17  O   UNL     1       6.247  -6.761  22.117  0.00  0.00    -0.478 OA
ATOM     18  H   UNL     1       6.571  -6.789  23.033  0.00  0.00    +0.295 HD
ENDBRANCH  15  17
ENDBRANCH  14  15
ENDBRANCH   5  13
TORSDOF 6
ENDMDL
MODEL 8
REMARK VINA RESULT:      -5.0      3.441      4.273
REMARK  Name = 
REMARK  8 active torsions:
REMARK  status: ('A' for Active; 'I' for Inactive)
REMARK    1  A    between atoms: C_1  and  O_2
REMARK    2  A    between atoms: O_2  and  C_3
REMARK    3  A    between atoms: C_5  and  C_6
REMARK    4  A    between atoms: C_7  and  C_8
REMARK    5  A    between atoms: C_8  and  O_9
REMARK    6  A    between atoms: C_12  and  O_13
REMARK    7  A    between atoms: O_13  and  C_14
REMARK    8  A    between atoms: C_15  and  O_16
REMARK                            x       y       z     vdW  Elec       q    Type
REMARK                         _______ _______ _______ _____ _____    ______ ____
ROOT
ATOM      1  C   UNL     1       9.537  -1.163  23.102  0.00  0.00    +0.166 A 
ATOM      2  C   UNL     1       9.509  -0.800  24.465  0.00  0.00    +0.201 A 
ATOM      3  C   UNL     1       8.825  -1.591  25.392  0.00  0.00    +0.166 A 
ATOM      4  C   UNL     1       8.190  -2.763  24.938  0.00  0.00    +0.057 A 
ATOM      5  C   UNL     1       8.222  -3.147  23.595  0.00  0.00    -0.018 A 
ATOM      6  C   UNL     1       8.874  -2.319  22.677  0.00  0.00    +0.057 A 
ENDROOT
BRANCH   1   8
ATOM      7  C   UNL     1       9.334   0.549  21.465  0.00  0.00    +0.277 C 
ATOM      8  O   UNL     1      10.175  -0.304  22.238  0.00  0.00    -0.491 OA
ENDBRANCH   1   8
BRANCH   2   9
ATOM      9  O   UNL     1      10.199   0.331  24.813  0.00  0.00    -0.501 OA
ATOM     10  H   UNL     1       9.687   1.090  24.499  0.00  0.00    +0.292 HD
ENDBRANCH   2   9
BRANCH   3  11
ATOM     11  O   UNL     1       8.669  -1.429  26.741  0.00  0.00    -0.491 OA
ATOM     12  C   UNL     1       7.802  -0.440  27.266  0.00  0.00    +0.277 C 
ENDBRANCH   3  11
BRANCH   5  13
ATOM     13  C   UNL     1       7.542  -4.350  23.090  0.00  0.00    +0.015 C 
ATOM     14  C   UNL     1       7.011  -4.448  21.862  0.00  0.00    +0.092 C 
BRANCH  14  15
ATOM     15  C   UNL     1       6.312  -5.631  21.327  0.00  0.00    +0.330 C 
ATOM     16  O   UNL     1       5.938  -5.683  20.168  0.00  0.00    -0.246 OA
BRANCH  15  17
ATOM     17  O   UNL     1       6.089  -6.611  22.218  0.00  0.00    -0.478 OA
ATOM     18  H   UNL     1       5.629  -7.391  21.864  0.00  0.00    +0.295 HD
ENDBRANCH  15  17
ENDBRANCH  14  15
ENDBRANCH   5  13
TORSDOF 6
ENDMDL
MODEL 9
REMARK VINA RESULT:      -5.0      6.820     10.100
REMARK  Name = 
REMARK  8 active torsions:
REMARK  status: ('A' for Active; 'I' for Inactive)
REMARK    1  A    between atoms: C_1  and  O_2
REMARK    2  A    between atoms: O_2  and  C_3
REMARK    3  A    between atoms: C_5  and  C_6
REMARK    4  A    between atoms: C_7  and  C_8
REMARK    5  A    between atoms: C_8  and  O_9
REMARK    6  A    between atoms: C_12  and  O_13
REMARK    7  A    between atoms: O_13  and  C_14
REMARK    8  A    between atoms: C_15  and  O_16
REMARK                            x       y       z     vdW  Elec       q    Type
REMARK                         _______ _______ _______ _____ _____    ______ ____
ROOT
ATOM      1  C   UNL     1       8.805   4.358  23.855  0.00  0.00    +0.166 A 
ATOM      2  C   UNL     1      10.000   5.098  23.976  0.00  0.00    +0.201 A 
ATOM      3  C   UNL     1      11.222   4.530  23.607  0.00  0.00    +0.166 A 
ATOM      4  C   UNL     1      11.228   3.219  23.094  0.00  0.00    +0.057 A 
ATOM      5  C   UNL     1      10.052   2.478  22.951  0.00  0.00    -0.018 A 
ATOM      6  C   UNL     1       8.845   3.048  23.366  0.00  0.00    +0.057 A 
ENDROOT
BRANCH   1   8
ATOM      7  C   UNL     1       7.138   4.496  25.544  0.00  0.00    +0.277 C 
ATOM      8  O   UNL     1       7.649   4.958  24.296  0.00  0.00    -0.491 OA
ENDBRANCH   1   8
BRANCH   2   9
ATOM      9  O   UNL     1       9.882   6.382  24.439  0.00  0.00    -0.501 OA
ATOM     10  H   UNL     1      10.761   6.787  24.394  0.00  0.00    +0.292 HD
ENDBRANCH   2   9
BRANCH   3  11
ATOM     11  O   UNL     1      12.484   5.058  23.642  0.00  0.00    -0.491 OA
ATOM     12  C   UNL     1      13.147   5.452  22.455  0.00  0.00    +0.277 C 
ENDBRANCH   3  11
BRANCH   5  13
ATOM     13  C   UNL     1      10.033   1.096  22.445  0.00  0.00    +0.015 C 
ATOM     14  C   UNL     1      10.221   0.015  23.217  0.00  0.00    +0.092 C 
BRANCH  14  15
ATOM     15  C   UNL     1      10.222  -1.381  22.744  0.00  0.00    +0.330 C 
ATOM     16  O   UNL     1      10.268  -2.320  23.520  0.00  0.00    -0.246 OA
BRANCH  15  17
ATOM     17  O   UNL     1      10.209  -1.529  21.408  0.00  0.00    -0.478 OA
ATOM     18  H   UNL     1      10.878  -1.010  20.931  0.00  0.00    +0.295 HD
ENDBRANCH  15  17
ENDBRANCH  14  15
ENDBRANCH   5  13
TORSDOF 6
ENDMDL
