MODEL 1
REMARK VINA RESULT:      -6.4      0.000      0.000
REMARK  Name = 
REMARK  5 active torsions:
REMARK  status: ('A' for Active; 'I' for Inactive)
REMARK    1  A    between atoms: C_1  and  C_2
REMARK    2  A    between atoms: C_2  and  O_4
REMARK    3  A    between atoms: C_2  and  C_5
REMARK    4  A    between atoms: C_5  and  O_7
REMARK    5  A    between atoms: C_5  and  C_8
REMARK                            x       y       z     vdW  Elec       q    Type
REMARK                         _______ _______ _______ _____ _____    ______ ____
ROOT
ATOM      1  C   UNL     1       8.383  -1.992  23.105  0.00  0.00    +0.068 C 
ATOM      2  C   UNL     1       6.925  -1.720  23.476  0.00  0.00    +0.156 C 
ATOM      3  N   UNL     1       6.564  -2.385  24.714  0.00  0.00    -0.322 N 
ATOM      4  H   UNL     1       5.574  -2.510  24.910  0.00  0.00    +0.148 HD
ATOM      5  C   UNL     1       7.315  -3.435  25.212  0.00  0.00    +0.154 A 
ATOM      6  N   UNL     1       6.759  -4.208  26.204  0.00  0.00    -0.199 NA
ATOM      7  C   UNL     1       7.467  -5.161  26.717  0.00  0.00    +0.195 A 
ATOM      8  N   UNL     1       8.733  -5.428  26.320  0.00  0.00    -0.293 N 
ATOM      9  H   UNL     1       9.255  -6.189  26.719  0.00  0.00    +0.172 HD
ATOM     10  C   UNL     1       9.348  -4.748  25.312  0.00  0.00    +0.280 A 
ATOM     11  O   UNL     1      10.489  -5.040  24.964  0.00  0.00    -0.265 OA
ATOM     12  N   UNL     1       6.958  -5.946  27.699  0.00  0.00    -0.329 N 
ATOM     13  H   UNL     1       7.607  -6.299  28.390  0.00  0.00    +0.145 HD
ATOM     14  H   UNL     1       6.114  -5.554  28.105  0.00  0.00    +0.145 HD
ATOM     15  C   UNL     1       8.553  -3.641  24.693  0.00  0.00    +0.168 A 
ATOM     16  N   UNL     1       9.127  -2.908  23.665  0.00  0.00    -0.243 NA
ENDROOT
BRANCH   1  17
ATOM     17  C   UNL     1       8.934  -1.162  21.938  0.00  0.00    +0.188 C 
BRANCH  17  19
ATOM     18  C   UNL     1      10.146   0.779  23.060  0.00  0.00    +0.040 C 
ATOM     19  C   UNL     1       8.932   0.345  22.246  0.00  0.00    +0.146 C 
BRANCH  19  20
ATOM     20  O   UNL     1       8.990   1.084  21.021  0.00  0.00    -0.389 OA
ATOM     21  H   UNL     1       8.149   1.573  20.956  0.00  0.00    +0.210 HD
ENDBRANCH  19  20
ENDBRANCH  17  19
BRANCH  17  22
ATOM     22  O   UNL     1      10.243  -1.659  21.655  0.00  0.00    -0.383 OA
ATOM     23  H   UNL     1      10.852  -0.903  21.625  0.00  0.00    +0.210 HD
ENDBRANCH  17  22
ENDBRANCH   1  17
TORSDOF 4
ENDMDL
MODEL 2
REMARK VINA RESULT:      -6.2      3.231      6.278
REMARK  Name = 
REMARK  5 active torsions:
REMARK  status: ('A' for Active; 'I' for Inactive)
REMARK    1  A    between atoms: C_1  and  C_2
REMARK    2  A    between atoms: C_2  and  O_4
REMARK    3  A    between atoms: C_2  and  C_5
REMARK    4  A    between atoms: C_5  and  O_7
REMARK    5  A    between atoms: C_5  and  C_8
REMARK                            x       y       z     vdW  Elec       q    Type
REMARK                         _______ _______ _______ _____ _____    ______ ____
ROOT
ATOM      1  C   UNL     1       8.451  -1.366  24.656  0.00  0.00    +0.068 C 
ATOM      2  C   UNL     1       8.952  -0.672  25.922  0.00  0.00    +0.156 C 
ATOM      3  N   UNL     1       9.363   0.693  25.647  0.00  0.00    -0.322 N 
ATOM      4  H   UNL     1       9.963   1.150  26.328  0.00  0.00    +0.148 HD
ATOM      5  C   UNL     1       9.647   1.112  24.360  0.00  0.00    +0.154 A 
ATOM      6  N   UNL     1      10.314   2.305  24.206  0.00  0.00    -0.199 NA
ATOM      7  C   UNL     1      10.542   2.738  23.009  0.00  0.00    +0.195 A 
ATOM      8  N   UNL     1      10.150   2.067  21.900  0.00  0.00    -0.293 N 
ATOM      9  H   UNL     1      10.358   2.414  20.981  0.00  0.00    +0.172 HD
ATOM     10  C   UNL     1       9.527   0.856  21.954  0.00  0.00    +0.280 A 
ATOM     11  O   UNL     1       9.212   0.267  20.923  0.00  0.00    -0.265 OA
ATOM     12  N   UNL     1      11.194   3.910  22.812  0.00  0.00    -0.329 N 
ATOM     13  H   UNL     1      10.936   4.451  21.998  0.00  0.00    +0.145 HD
ATOM     14  H   UNL     1      11.251   4.465  23.661  0.00  0.00    +0.145 HD
ATOM     15  C   UNL     1       9.253   0.324  23.326  0.00  0.00    +0.168 A 
ATOM     16  N   UNL     1       8.617  -0.902  23.446  0.00  0.00    -0.243 NA
ENDROOT
BRANCH   1  17
ATOM     17  C   UNL     1       7.787  -2.732  24.870  0.00  0.00    +0.188 C 
BRANCH  17  19
ATOM     18  C   UNL     1       8.274  -5.113  24.100  0.00  0.00    +0.040 C 
ATOM     19  C   UNL     1       8.805  -3.886  24.834  0.00  0.00    +0.146 C 
BRANCH  19  20
ATOM     20  O   UNL     1       9.974  -3.470  24.120  0.00  0.00    -0.389 OA
ATOM     21  H   UNL     1      10.532  -4.264  24.024  0.00  0.00    +0.210 HD
ENDBRANCH  19  20
ENDBRANCH  17  19
BRANCH  17  22
ATOM     22  O   UNL     1       7.084  -2.664  26.113  0.00  0.00    -0.383 OA
ATOM     23  H   UNL     1       7.615  -2.132  26.729  0.00  0.00    +0.210 HD
ENDBRANCH  17  22
ENDBRANCH   1  17
TORSDOF 4
ENDMDL
MODEL 3
REMARK VINA RESULT:      -6.2      2.641      5.857
REMARK  Name = 
REMARK  5 active torsions:
REMARK  status: ('A' for Active; 'I' for Inactive)
REMARK    1  A    between atoms: C_1  and  C_2
REMARK    2  A    between atoms: C_2  and  O_4
REMARK    3  A    between atoms: C_2  and  C_5
REMARK    4  A    between atoms: C_5  and  O_7
REMARK    5  A    between atoms: C_5  and  C_8
REMARK                            x       y       z     vdW  Elec       q    Type
REMARK                         _______ _______ _______ _____ _____    ______ ____
ROOT
ATOM      1  C   UNL     1       8.549  -3.377  23.972  0.00  0.00    +0.068 C 
ATOM      2  C   UNL     1       7.961  -3.358  22.561  0.00  0.00    +0.156 C 
ATOM      3  N   UNL     1       8.460  -2.230  21.797  0.00  0.00    -0.322 N 
ATOM      4  H   UNL     1       7.940  -1.956  20.968  0.00  0.00    +0.148 HD
ATOM      5  C   UNL     1       9.030  -1.135  22.422  0.00  0.00    +0.154 A 
ATOM      6  N   UNL     1       9.199   0.011  21.681  0.00  0.00    -0.199 NA
ATOM      7  C   UNL     1       9.778   1.026  22.233  0.00  0.00    +0.195 A 
ATOM      8  N   UNL     1      10.228   1.009  23.510  0.00  0.00    -0.293 N 
ATOM      9  H   UNL     1      10.655   1.819  23.923  0.00  0.00    +0.172 HD
ATOM     10  C   UNL     1      10.061  -0.063  24.334  0.00  0.00    +0.280 A 
ATOM     11  O   UNL     1      10.459  -0.029  25.495  0.00  0.00    -0.265 OA
ATOM     12  N   UNL     1       9.967   2.175  21.537  0.00  0.00    -0.329 N 
ATOM     13  H   UNL     1      10.792   2.718  21.757  0.00  0.00    +0.145 HD
ATOM     14  H   UNL     1       9.825   2.048  20.540  0.00  0.00    +0.145 HD
ATOM     15  C   UNL     1       9.389  -1.255  23.726  0.00  0.00    +0.168 A 
ATOM     16  N   UNL     1       9.195  -2.379  24.514  0.00  0.00    -0.243 NA
ENDROOT
BRANCH   1  17
ATOM     17  C   UNL     1       8.264  -4.643  24.789  0.00  0.00    +0.188 C 
BRANCH  17  19
ATOM     18  C   UNL     1       7.429  -5.207  27.131  0.00  0.00    +0.040 C 
ATOM     19  C   UNL     1       8.428  -4.408  26.301  0.00  0.00    +0.146 C 
BRANCH  19  20
ATOM     20  O   UNL     1       9.728  -4.843  26.716  0.00  0.00    -0.389 OA
ATOM     21  H   UNL     1       9.654  -5.801  26.883  0.00  0.00    +0.210 HD
ENDBRANCH  19  20
ENDBRANCH  17  19
BRANCH  17  22
ATOM     22  O   UNL     1       6.947  -5.075  24.444  0.00  0.00    -0.383 OA
ATOM     23  H   UNL     1       6.509  -5.382  25.256  0.00  0.00    +0.210 HD
ENDBRANCH  17  22
ENDBRANCH   1  17
TORSDOF 4
ENDMDL
MODEL 4
REMARK VINA RESULT:      -6.2      2.790      5.613
REMARK  Name = 
REMARK  5 active torsions:
REMARK  status: ('A' for Active; 'I' for Inactive)
REMARK    1  A    between atoms: C_1  and  C_2
REMARK    2  A    between atoms: C_2  and  O_4
REMARK    3  A    between atoms: C_2  and  C_5
REMARK    4  A    between atoms: C_5  and  O_7
REMARK    5  A    between atoms: C_5  and  C_8
REMARK                            x       y       z     vdW  Elec       q    Type
REMARK                         _______ _______ _______ _____ _____    ______ ____
ROOT
ATOM      1  C   UNL     1       7.195  -3.252  23.587  0.00  0.00    +0.068 C 
ATOM      2  C   UNL     1       6.018  -2.296  23.776  0.00  0.00    +0.156 C 
ATOM      3  N   UNL     1       6.256  -1.029  23.111  0.00  0.00    -0.322 N 
ATOM      4  H   UNL     1       5.689  -0.234  23.394  0.00  0.00    +0.148 HD
ATOM      5  C   UNL     1       7.532  -0.636  22.747  0.00  0.00    +0.154 A 
ATOM      6  N   UNL     1       7.725   0.682  22.406  0.00  0.00    -0.199 NA
ATOM      7  C   UNL     1       8.899   1.054  22.013  0.00  0.00    +0.195 A 
ATOM      8  N   UNL     1       9.947   0.201  21.922  0.00  0.00    -0.293 N 
ATOM      9  H   UNL     1      10.855   0.520  21.635  0.00  0.00    +0.172 HD
ATOM     10  C   UNL     1       9.862  -1.109  22.285  0.00  0.00    +0.280 A 
ATOM     11  O   UNL     1      10.844  -1.844  22.213  0.00  0.00    -0.265 OA
ATOM     12  N   UNL     1       9.133   2.344  21.665  0.00  0.00    -0.329 N 
ATOM     13  H   UNL     1       9.817   2.510  20.939  0.00  0.00    +0.145 HD
ATOM     14  H   UNL     1       8.273   2.868  21.533  0.00  0.00    +0.145 HD
ATOM     15  C   UNL     1       8.516  -1.572  22.749  0.00  0.00    +0.168 A 
ATOM     16  N   UNL     1       8.365  -2.898  23.127  0.00  0.00    -0.243 NA
ENDROOT
BRANCH   1  17
ATOM     17  C   UNL     1       6.959  -4.693  24.058  0.00  0.00    +0.188 C 
BRANCH  17  19
ATOM     18  C   UNL     1       5.061  -5.696  22.684  0.00  0.00    +0.040 C 
ATOM     19  C   UNL     1       6.569  -5.626  22.899  0.00  0.00    +0.146 C 
BRANCH  19  20
ATOM     20  O   UNL     1       7.122  -5.128  21.676  0.00  0.00    -0.389 OA
ATOM     21  H   UNL     1       7.355  -4.196  21.842  0.00  0.00    +0.210 HD
ENDBRANCH  19  20
ENDBRANCH  17  19
BRANCH  17  22
ATOM     22  O   UNL     1       8.152  -5.116  24.721  0.00  0.00    -0.383 OA
ATOM     23  H   UNL     1       8.825  -4.426  24.598  0.00  0.00    +0.210 HD
ENDBRANCH  17  22
ENDBRANCH   1  17
TORSDOF 4
ENDMDL
MODEL 5
REMARK VINA RESULT:      -6.1      2.289      3.298
REMARK  Name = 
REMARK  5 active torsions:
REMARK  status: ('A' for Active; 'I' for Inactive)
REMARK    1  A    between atoms: C_1  and  C_2
REMARK    2  A    between atoms: C_2  and  O_4
REMARK    3  A    between atoms: C_2  and  C_5
REMARK    4  A    between atoms: C_5  and  O_7
REMARK    5  A    between atoms: C_5  and  C_8
REMARK                            x       y       z     vdW  Elec       q    Type
REMARK                         _______ _______ _______ _____ _____    ______ ____
ROOT
ATOM      1  C   UNL     1       9.117   0.290  23.101  0.00  0.00    +0.068 C 
ATOM      2  C   UNL     1      10.041  -0.492  22.168  0.00  0.00    +0.156 C 
ATOM      3  N   UNL     1      10.050  -1.905  22.498  0.00  0.00    -0.322 N 
ATOM      4  H   UNL     1      10.820  -2.467  22.144  0.00  0.00    +0.148 HD
ATOM      5  C   UNL     1       9.619  -2.357  23.732  0.00  0.00    +0.154 A 
ATOM      6  N   UNL     1       9.934  -3.648  24.090  0.00  0.00    -0.199 NA
ATOM      7  C   UNL     1       9.495  -4.104  25.217  0.00  0.00    +0.195 A 
ATOM      8  N   UNL     1       8.736  -3.365  26.061  0.00  0.00    -0.293 N 
ATOM      9  H   UNL     1       8.425  -3.736  26.941  0.00  0.00    +0.172 HD
ATOM     10  C   UNL     1       8.415  -2.065  25.814  0.00  0.00    +0.280 A 
ATOM     11  O   UNL     1       7.746  -1.421  26.619  0.00  0.00    -0.265 OA
ATOM     12  N   UNL     1       9.781  -5.371  25.606  0.00  0.00    -0.329 N 
ATOM     13  H   UNL     1       9.085  -5.851  26.161  0.00  0.00    +0.145 HD
ATOM     14  H   UNL     1      10.144  -5.934  24.843  0.00  0.00    +0.145 HD
ATOM     15  C   UNL     1       8.912  -1.504  24.518  0.00  0.00    +0.168 A 
ATOM     16  N   UNL     1       8.613  -0.186  24.208  0.00  0.00    -0.243 NA
ENDROOT
BRANCH   1  17
ATOM     17  C   UNL     1       8.860   1.750  22.705  0.00  0.00    +0.188 C 
BRANCH  17  19
ATOM     18  C   UNL     1       8.755   3.393  24.651  0.00  0.00    +0.040 C 
ATOM     19  C   UNL     1       9.637   2.738  23.593  0.00  0.00    +0.146 C 
BRANCH  19  20
ATOM     20  O   UNL     1      10.661   2.037  24.307  0.00  0.00    -0.389 OA
ATOM     21  H   UNL     1      11.319   1.764  23.642  0.00  0.00    +0.210 HD
ENDBRANCH  19  20
ENDBRANCH  17  19
BRANCH  17  22
ATOM     22  O   UNL     1       9.202   1.873  21.323  0.00  0.00    -0.383 OA
ATOM     23  H   UNL     1       8.851   1.097  20.856  0.00  0.00    +0.210 HD
ENDBRANCH  17  22
ENDBRANCH   1  17
TORSDOF 4
ENDMDL
MODEL 6
REMARK VINA RESULT:      -6.1      2.297      3.225
REMARK  Name = 
REMARK  5 active torsions:
REMARK  status: ('A' for Active; 'I' for Inactive)
REMARK    1  A    between atoms: C_1  and  C_2
REMARK    2  A    between atoms: C_2  and  O_4
REMARK    3  A    between atoms: C_2  and  C_5
REMARK    4  A    between atoms: C_5  and  O_7
REMARK    5  A    between atoms: C_5  and  C_8
REMARK                            x       y       z     vdW  Elec       q    Type
REMARK                         _______ _______ _______ _____ _____    ______ ____
ROOT
ATOM      1  C   UNL     1       8.734  -0.180  22.487  0.00  0.00    +0.068 C 
ATOM      2  C   UNL     1       9.978  -0.075  23.368  0.00  0.00    +0.156 C 
ATOM      3  N   UNL     1      10.403  -1.381  23.838  0.00  0.00    -0.322 N 
ATOM      4  H   UNL     1      11.029  -1.413  24.639  0.00  0.00    +0.148 HD
ATOM      5  C   UNL     1       9.543  -2.464  23.825  0.00  0.00    +0.154 A 
ATOM      6  N   UNL     1       9.898  -3.575  24.554  0.00  0.00    -0.199 NA
ATOM      7  C   UNL     1       9.132  -4.615  24.511  0.00  0.00    +0.195 A 
ATOM      8  N   UNL     1       7.995  -4.659  23.777  0.00  0.00    -0.293 N 
ATOM      9  H   UNL     1       7.405  -5.472  23.778  0.00  0.00    +0.172 HD
ATOM     10  C   UNL     1       7.539  -3.592  23.063  0.00  0.00    +0.280 A 
ATOM     11  O   UNL     1       6.487  -3.663  22.432  0.00  0.00    -0.265 OA
ATOM     12  N   UNL     1       9.446  -5.733  25.212  0.00  0.00    -0.329 N 
ATOM     13  H   UNL     1       9.174  -6.621  24.812  0.00  0.00    +0.145 HD
ATOM     14  H   UNL     1      10.406  -5.720  25.544  0.00  0.00    +0.145 HD
ATOM     15  C   UNL     1       8.401  -2.368  23.096  0.00  0.00    +0.168 A 
ATOM     16  N   UNL     1       7.992  -1.250  22.385  0.00  0.00    -0.243 NA
ENDROOT
BRANCH   1  17
ATOM     17  C   UNL     1       8.330   1.108  21.758  0.00  0.00    +0.188 C 
BRANCH  17  19
ATOM     18  C   UNL     1       7.044   3.302  21.925  0.00  0.00    +0.040 C 
ATOM     19  C   UNL     1       7.361   1.966  22.589  0.00  0.00    +0.146 C 
BRANCH  19  20
ATOM     20  O   UNL     1       6.110   1.283  22.723  0.00  0.00    -0.389 OA
ATOM     21  H   UNL     1       6.225   0.642  23.449  0.00  0.00    +0.210 HD
ENDBRANCH  19  20
ENDBRANCH  17  19
BRANCH  17  22
ATOM     22  O   UNL     1       9.538   1.803  21.439  0.00  0.00    -0.383 OA
ATOM     23  H   UNL     1       9.559   1.942  20.478  0.00  0.00    +0.210 HD
ENDBRANCH  17  22
ENDBRANCH   1  17
TORSDOF 4
ENDMDL
MODEL 7
REMARK VINA RESULT:      -6.0      3.002      3.508
REMARK  Name = 
REMARK  5 active torsions:
REMARK  status: ('A' for Active; 'I' for Inactive)
REMARK    1  A    between atoms: C_1  and  C_2
REMARK    2  A    between atoms: C_2  and  O_4
REMARK    3  A    between atoms: C_2  and  C_5
REMARK    4  A    between atoms: C_5  and  O_7
REMARK    5  A    between atoms: C_5  and  C_8
REMARK                            x       y       z     vdW  Elec       q    Type
REMARK                         _______ _______ _______ _____ _____    ______ ____
ROOT
ATOM      1  C   UNL     1       7.721  -2.046  22.659  0.00  0.00    +0.068 C 
ATOM      2  C   UNL     1       6.482  -1.358  23.229  0.00  0.00    +0.156 C 
ATOM      3  N   UNL     1       5.456  -2.323  23.577  0.00  0.00    -0.322 N 
ATOM      4  H   UNL     1       4.506  -1.979  23.695  0.00  0.00    +0.148 HD
ATOM      5  C   UNL     1       5.469  -3.604  23.057  0.00  0.00    +0.154 A 
ATOM      6  N   UNL     1       4.325  -4.358  23.178  0.00  0.00    -0.199 NA
ATOM      7  C   UNL     1       4.336  -5.576  22.744  0.00  0.00    +0.195 A 
ATOM      8  N   UNL     1       5.428  -6.142  22.177  0.00  0.00    -0.293 N 
ATOM      9  H   UNL     1       5.404  -7.084  21.828  0.00  0.00    +0.172 HD
ATOM     10  C   UNL     1       6.588  -5.458  21.971  0.00  0.00    +0.280 A 
ATOM     11  O   UNL     1       7.547  -6.000  21.428  0.00  0.00    -0.265 OA
ATOM     12  N   UNL     1       3.231  -6.355  22.847  0.00  0.00    -0.329 N 
ATOM     13  H   UNL     1       3.376  -7.347  22.983  0.00  0.00    +0.145 HD
ATOM     14  H   UNL     1       2.540  -5.960  23.477  0.00  0.00    +0.145 HD
ATOM     15  C   UNL     1       6.606  -4.043  22.458  0.00  0.00    +0.168 A 
ATOM     16  N   UNL     1       7.761  -3.296  22.281  0.00  0.00    -0.243 NA
ENDROOT
BRANCH   1  17
ATOM     17  C   UNL     1       8.948  -1.146  22.465  0.00  0.00    +0.188 C 
BRANCH  17  19
ATOM     18  C   UNL     1       9.779  -0.513  24.791  0.00  0.00    +0.040 C 
ATOM     19  C   UNL     1      10.013  -1.372  23.553  0.00  0.00    +0.146 C 
BRANCH  19  20
ATOM     20  O   UNL     1       9.961  -2.732  23.997  0.00  0.00    -0.389 OA
ATOM     21  H   UNL     1       9.491  -3.229  23.303  0.00  0.00    +0.210 HD
ENDBRANCH  19  20
ENDBRANCH  17  19
BRANCH  17  22
ATOM     22  O   UNL     1       9.448  -1.399  21.151  0.00  0.00    -0.383 OA
ATOM     23  H   UNL     1      10.417  -1.338  21.181  0.00  0.00    +0.210 HD
ENDBRANCH  17  22
ENDBRANCH   1  17
TORSDOF 4
ENDMDL
MODEL 8
REMARK VINA RESULT:      -6.0      2.702      3.353
REMARK  Name = 
REMARK  5 active torsions:
REMARK  status: ('A' for Active; 'I' for Inactive)
REMARK    1  A    between atoms: C_1  and  C_2
REMARK    2  A    between atoms: C_2  and  O_4
REMARK    3  A    between atoms: C_2  and  C_5
REMARK    4  A    between atoms: C_5  and  O_7
REMARK    5  A    between atoms: C_5  and  C_8
REMARK                            x       y       z     vdW  Elec       q    Type
REMARK                         _______ _______ _______ _____ _____    ______ ____
ROOT
ATOM      1  C   UNL     1       8.634  -2.887  23.927  0.00  0.00    +0.068 C 
ATOM      2  C   UNL     1       8.603  -3.517  25.319  0.00  0.00    +0.156 C 
ATOM      3  N   UNL     1       7.761  -4.699  25.344  0.00  0.00    -0.322 N 
ATOM      4  H   UNL     1       7.442  -5.031  26.250  0.00  0.00    +0.148 HD
ATOM      5  C   UNL     1       6.817  -4.930  24.359  0.00  0.00    +0.154 A 
ATOM      6  N   UNL     1       5.860  -5.887  24.600  0.00  0.00    -0.199 NA
ATOM      7  C   UNL     1       5.002  -6.153  23.670  0.00  0.00    +0.195 A 
ATOM      8  N   UNL     1       5.006  -5.529  22.468  0.00  0.00    -0.293 N 
ATOM      9  H   UNL     1       4.314  -5.738  21.770  0.00  0.00    +0.172 HD
ATOM     10  C   UNL     1       5.884  -4.534  22.159  0.00  0.00    +0.280 A 
ATOM     11  O   UNL     1       5.837  -3.974  21.067  0.00  0.00    -0.265 OA
ATOM     12  N   UNL     1       4.043  -7.092  23.864  0.00  0.00    -0.329 N 
ATOM     13  H   UNL     1       3.742  -7.620  23.055  0.00  0.00    +0.145 HD
ATOM     14  H   UNL     1       4.234  -7.674  24.674  0.00  0.00    +0.145 HD
ATOM     15  C   UNL     1       6.889  -4.199  23.216  0.00  0.00    +0.168 A 
ATOM     16  N   UNL     1       7.813  -3.198  22.959  0.00  0.00    -0.243 NA
ENDROOT
BRANCH   1  17
ATOM     17  C   UNL     1       9.663  -1.767  23.731  0.00  0.00    +0.188 C 
BRANCH  17  19
ATOM     18  C   UNL     1      10.004   0.441  22.503  0.00  0.00    +0.040 C 
ATOM     19  C   UNL     1       9.408  -0.962  22.444  0.00  0.00    +0.146 C 
BRANCH  19  20
ATOM     20  O   UNL     1      10.039  -1.615  21.338  0.00  0.00    -0.389 OA
ATOM     21  H   UNL     1       9.924  -1.024  20.571  0.00  0.00    +0.210 HD
ENDBRANCH  19  20
ENDBRANCH  17  19
BRANCH  17  22
ATOM     22  O   UNL     1       9.618  -0.950  24.903  0.00  0.00    -0.383 OA
ATOM     23  H   UNL     1       8.735  -1.038  25.297  0.00  0.00    +0.210 HD
ENDBRANCH  17  22
ENDBRANCH   1  17
TORSDOF 4
ENDMDL
MODEL 9
REMARK VINA RESULT:      -5.9      2.427      5.771
REMARK  Name = 
REMARK  5 active torsions:
REMARK  status: ('A' for Active; 'I' for Inactive)
REMARK    1  A    between atoms: C_1  and  C_2
REMARK    2  A    between atoms: C_2  and  O_4
REMARK    3  A    between atoms: C_2  and  C_5
REMARK    4  A    between atoms: C_5  and  O_7
REMARK    5  A    between atoms: C_5  and  C_8
REMARK                            x       y       z     vdW  Elec       q    Type
REMARK                         _______ _______ _______ _____ _____    ______ ____
ROOT
ATOM      1  C   UNL     1       7.283  -3.399  24.028  0.00  0.00    +0.068 C 
ATOM      2  C   UNL     1       6.093  -2.448  24.150  0.00  0.00    +0.156 C 
ATOM      3  N   UNL     1       6.283  -1.259  23.339  0.00  0.00    -0.322 N 
ATOM      4  H   UNL     1       5.710  -0.447  23.552  0.00  0.00    +0.148 HD
ATOM      5  C   UNL     1       7.538  -0.889  22.890  0.00  0.00    +0.154 A 
ATOM      6  N   UNL     1       7.694   0.385  22.397  0.00  0.00    -0.199 NA
ATOM      7  C   UNL     1       8.846   0.731  21.924  0.00  0.00    +0.195 A 
ATOM      8  N   UNL     1       9.907  -0.110  21.892  0.00  0.00    -0.293 N 
ATOM      9  H   UNL     1      10.799   0.190  21.540  0.00  0.00    +0.172 HD
ATOM     10  C   UNL     1       9.861  -1.373  22.401  0.00  0.00    +0.280 A 
ATOM     11  O   UNL     1      10.854  -2.095  22.378  0.00  0.00    -0.265 OA
ATOM     12  N   UNL     1       9.042   1.977  21.426  0.00  0.00    -0.329 N 
ATOM     13  H   UNL     1       9.699   2.071  20.663  0.00  0.00    +0.145 HD
ATOM     14  H   UNL     1       8.168   2.468  21.267  0.00  0.00    +0.145 HD
ATOM     15  C   UNL     1       8.541  -1.803  22.961  0.00  0.00    +0.168 A 
ATOM     16  N   UNL     1       8.430  -3.080  23.490  0.00  0.00    -0.243 NA
ENDROOT
BRANCH   1  17
ATOM     17  C   UNL     1       7.091  -4.782  24.664  0.00  0.00    +0.188 C 
BRANCH  17  19
ATOM     18  C   UNL     1       6.212  -5.046  27.042  0.00  0.00    +0.040 C 
ATOM     19  C   UNL     1       7.432  -4.782  26.165  0.00  0.00    +0.146 C 
BRANCH  19  20
ATOM     20  O   UNL     1       8.359  -5.836  26.446  0.00  0.00    -0.389 OA
ATOM     21  H   UNL     1       7.827  -6.646  26.554  0.00  0.00    +0.210 HD
ENDBRANCH  19  20
ENDBRANCH  17  19
BRANCH  17  22
ATOM     22  O   UNL     1       5.741  -5.174  24.411  0.00  0.00    -0.383 OA
ATOM     23  H   UNL     1       5.758  -6.024  23.941  0.00  0.00    +0.210 HD
ENDBRANCH  17  22
ENDBRANCH   1  17
TORSDOF 4
ENDMDL
