MODEL 1
REMARK VINA RESULT:      -5.5      0.000      0.000
REMARK  Name = 
REMARK  2 active torsions:
REMARK  status: ('A' for Active; 'I' for Inactive)
REMARK    1  A    between atoms: C_2  and  C_4
REMARK    2  A    between atoms: C_4  and  C_5
REMARK                            x       y       z     vdW  Elec       q    Type
REMARK                         _______ _______ _______ _____ _____    ______ ____
ROOT
ATOM      1  C   UNL     1       9.732  -1.704  23.095  0.00  0.00    -0.014 A 
ATOM      2  C   UNL     1      10.035  -0.315  23.279  0.00  0.00    +0.003 A 
ATOM      3  C   UNL     1       9.784   0.332  22.069  0.00  0.00    +0.047 A 
ATOM      4  C   UNL     1       9.971   1.708  21.893  0.00  0.00    +0.026 A 
ATOM      5  C   UNL     1      10.421   2.447  22.991  0.00  0.00    +0.002 A 
ATOM      6  C   UNL     1      10.674   1.831  24.214  0.00  0.00    +0.001 A 
ATOM      7  N   UNL     1       9.354  -0.625  21.179  0.00  0.00    -0.360 N 
ATOM      8  H   UNL     1       9.104  -0.441  20.218  0.00  0.00    +0.165 HD
ATOM      9  C   UNL     1      10.489   0.452  24.371  0.00  0.00    +0.010 A 
ATOM     10  C   UNL     1       9.311  -1.850  21.786  0.00  0.00    +0.087 A 
ENDROOT
BRANCH   1  11
ATOM     11  C   UNL     1       9.851  -2.792  24.118  0.00  0.00    +0.132 C 
BRANCH  11  15
ATOM     12  N   UNL     1       7.459  -3.181  24.592  0.00  0.00    -0.329 N 
ATOM     13  H   UNL     1       7.293  -2.183  24.560  0.00  0.00    +0.145 HD
ATOM     14  H   UNL     1       6.653  -3.792  24.573  0.00  0.00    +0.145 HD
ATOM     15  C   UNL     1       8.647  -3.717  24.187  0.00  0.00    +0.215 C 
ATOM     16  O   UNL     1       8.730  -4.927  23.983  0.00  0.00    -0.276 OA
ENDBRANCH  11  15
ENDBRANCH   1  11
TORSDOF 2
ENDMDL
MODEL 2
REMARK VINA RESULT:      -5.4      1.768      2.458
REMARK  Name = 
REMARK  2 active torsions:
REMARK  status: ('A' for Active; 'I' for Inactive)
REMARK    1  A    between atoms: C_2  and  C_4
REMARK    2  A    between atoms: C_4  and  C_5
REMARK                            x       y       z     vdW  Elec       q    Type
REMARK                         _______ _______ _______ _____ _____    ______ ____
ROOT
ATOM      1  C   UNL     1       8.585  -3.020  24.446  0.00  0.00    -0.014 A 
ATOM      2  C   UNL     1       9.182  -1.853  23.865  0.00  0.00    +0.003 A 
ATOM      3  C   UNL     1       8.822  -1.825  22.517  0.00  0.00    +0.047 A 
ATOM      4  C   UNL     1       9.233  -0.811  21.646  0.00  0.00    +0.026 A 
ATOM      5  C   UNL     1      10.029   0.212  22.169  0.00  0.00    +0.002 A 
ATOM      6  C   UNL     1      10.400   0.216  23.511  0.00  0.00    +0.001 A 
ATOM      7  N   UNL     1       8.045  -2.935  22.283  0.00  0.00    -0.360 N 
ATOM      8  H   UNL     1       7.646  -3.176  21.386  0.00  0.00    +0.165 HD
ATOM      9  C   UNL     1       9.987  -0.810  24.368  0.00  0.00    +0.010 A 
ATOM     10  C   UNL     1       7.888  -3.656  23.435  0.00  0.00    +0.087 A 
ENDROOT
BRANCH   1  11
ATOM     11  C   UNL     1       8.695  -3.470  25.871  0.00  0.00    +0.132 C 
BRANCH  11  15
ATOM     12  N   UNL     1      10.118  -5.480  25.695  0.00  0.00    -0.329 N 
ATOM     13  H   UNL     1      10.937  -4.892  25.623  0.00  0.00    +0.145 HD
ATOM     14  H   UNL     1      10.262  -6.466  25.870  0.00  0.00    +0.145 HD
ATOM     15  C   UNL     1       8.901  -4.966  26.037  0.00  0.00    +0.215 C 
ATOM     16  O   UNL     1       7.993  -5.724  26.377  0.00  0.00    -0.276 OA
ENDBRANCH  11  15
ENDBRANCH   1  11
TORSDOF 2
ENDMDL
MODEL 3
REMARK VINA RESULT:      -5.3      2.119      3.073
REMARK  Name = 
REMARK  2 active torsions:
REMARK  status: ('A' for Active; 'I' for Inactive)
REMARK    1  A    between atoms: C_2  and  C_4
REMARK    2  A    between atoms: C_4  and  C_5
REMARK                            x       y       z     vdW  Elec       q    Type
REMARK                         _______ _______ _______ _____ _____    ______ ____
ROOT
ATOM      1  C   UNL     1       8.578  -2.344  25.446  0.00  0.00    -0.014 A 
ATOM      2  C   UNL     1       9.203  -1.438  24.527  0.00  0.00    +0.003 A 
ATOM      3  C   UNL     1       9.534  -0.284  25.237  0.00  0.00    +0.047 A 
ATOM      4  C   UNL     1      10.168   0.814  24.644  0.00  0.00    +0.026 A 
ATOM      5  C   UNL     1      10.479   0.727  23.284  0.00  0.00    +0.002 A 
ATOM      6  C   UNL     1      10.167  -0.414  22.549  0.00  0.00    +0.001 A 
ATOM      7  N   UNL     1       9.120  -0.474  26.535  0.00  0.00    -0.360 N 
ATOM      8  H   UNL     1       9.227   0.205  27.275  0.00  0.00    +0.165 HD
ATOM      9  C   UNL     1       9.527  -1.501  23.156  0.00  0.00    +0.010 A 
ATOM     10  C   UNL     1       8.552  -1.711  26.674  0.00  0.00    +0.087 A 
ENDROOT
BRANCH   1  11
ATOM     11  C   UNL     1       8.050  -3.712  25.138  0.00  0.00    +0.132 C 
BRANCH  11  15
ATOM     12  N   UNL     1       8.597  -5.712  26.479  0.00  0.00    -0.329 N 
ATOM     13  H   UNL     1       7.623  -5.802  26.737  0.00  0.00    +0.145 HD
ATOM     14  H   UNL     1       9.207  -6.495  26.670  0.00  0.00    +0.145 HD
ATOM     15  C   UNL     1       8.996  -4.843  25.506  0.00  0.00    +0.215 C 
ATOM     16  O   UNL     1      10.126  -4.941  25.029  0.00  0.00    -0.276 OA
ENDBRANCH  11  15
ENDBRANCH   1  11
TORSDOF 2
ENDMDL
MODEL 4
REMARK VINA RESULT:      -5.1      5.149      7.370
REMARK  Name = 
REMARK  2 active torsions:
REMARK  status: ('A' for Active; 'I' for Inactive)
REMARK    1  A    between atoms: C_2  and  C_4
REMARK    2  A    between atoms: C_4  and  C_5
REMARK                            x       y       z     vdW  Elec       q    Type
REMARK                         _______ _______ _______ _____ _____    ______ ____
ROOT
ATOM      1  C   UNL     1       7.227  -5.104  26.559  0.00  0.00    -0.014 A 
ATOM      2  C   UNL     1       6.312  -5.489  25.525  0.00  0.00    +0.003 A 
ATOM      3  C   UNL     1       5.390  -6.371  26.088  0.00  0.00    +0.047 A 
ATOM      4  C   UNL     1       4.345  -6.944  25.355  0.00  0.00    +0.026 A 
ATOM      5  C   UNL     1       4.233  -6.598  24.005  0.00  0.00    +0.002 A 
ATOM      6  C   UNL     1       5.134  -5.715  23.415  0.00  0.00    +0.001 A 
ATOM      7  N   UNL     1       5.734  -6.526  27.411  0.00  0.00    -0.360 N 
ATOM      8  H   UNL     1       5.241  -7.117  28.065  0.00  0.00    +0.165 HD
ATOM      9  C   UNL     1       6.178  -5.156  24.161  0.00  0.00    +0.010 A 
ATOM     10  C   UNL     1       6.831  -5.763  27.707  0.00  0.00    +0.087 A 
ENDROOT
BRANCH   1  11
ATOM     11  C   UNL     1       8.392  -4.171  26.425  0.00  0.00    +0.132 C 
BRANCH  11  15
ATOM     12  N   UNL     1      10.183  -5.691  25.665  0.00  0.00    -0.329 N 
ATOM     13  H   UNL     1       9.904  -6.366  26.365  0.00  0.00    +0.145 HD
ATOM     14  H   UNL     1      10.815  -6.001  24.940  0.00  0.00    +0.145 HD
ATOM     15  C   UNL     1       9.416  -4.598  25.387  0.00  0.00    +0.215 C 
ATOM     16  O   UNL     1       9.632  -3.946  24.366  0.00  0.00    -0.276 OA
ENDBRANCH  11  15
ENDBRANCH   1  11
TORSDOF 2
ENDMDL
MODEL 5
REMARK VINA RESULT:      -5.0      1.879      2.458
REMARK  Name = 
REMARK  2 active torsions:
REMARK  status: ('A' for Active; 'I' for Inactive)
REMARK    1  A    between atoms: C_2  and  C_4
REMARK    2  A    between atoms: C_4  and  C_5
REMARK                            x       y       z     vdW  Elec       q    Type
REMARK                         _______ _______ _______ _____ _____    ______ ____
ROOT
ATOM      1  C   UNL     1       9.477  -1.199  24.480  0.00  0.00    -0.014 A 
ATOM      2  C   UNL     1       9.631   0.043  23.781  0.00  0.00    +0.003 A 
ATOM      3  C   UNL     1       9.335   1.068  24.680  0.00  0.00    +0.047 A 
ATOM      4  C   UNL     1       9.389   2.422  24.329  0.00  0.00    +0.026 A 
ATOM      5  C   UNL     1       9.766   2.738  23.021  0.00  0.00    +0.002 A 
ATOM      6  C   UNL     1      10.074   1.738  22.102  0.00  0.00    +0.001 A 
ATOM      7  N   UNL     1       9.004   0.475  25.876  0.00  0.00    -0.360 N 
ATOM      8  H   UNL     1       8.738   0.979  26.711  0.00  0.00    +0.165 HD
ATOM      9  C   UNL     1      10.008   0.389  22.467  0.00  0.00    +0.010 A 
ATOM     10  C   UNL     1       9.094  -0.886  25.771  0.00  0.00    +0.087 A 
ENDROOT
BRANCH   1  11
ATOM     11  C   UNL     1       9.686  -2.574  23.922  0.00  0.00    +0.132 C 
BRANCH  11  15
ATOM     12  N   UNL     1       8.030  -4.402  23.811  0.00  0.00    -0.329 N 
ATOM     13  H   UNL     1       8.338  -4.734  24.715  0.00  0.00    +0.145 HD
ATOM     14  H   UNL     1       7.164  -4.775  23.444  0.00  0.00    +0.145 HD
ATOM     15  C   UNL     1       8.438  -3.197  23.318  0.00  0.00    +0.215 C 
ATOM     16  O   UNL     1       7.851  -2.702  22.358  0.00  0.00    -0.276 OA
ENDBRANCH  11  15
ENDBRANCH   1  11
TORSDOF 2
ENDMDL
MODEL 6
REMARK VINA RESULT:      -4.9      2.430      5.354
REMARK  Name = 
REMARK  2 active torsions:
REMARK  status: ('A' for Active; 'I' for Inactive)
REMARK    1  A    between atoms: C_2  and  C_4
REMARK    2  A    between atoms: C_4  and  C_5
REMARK                            x       y       z     vdW  Elec       q    Type
REMARK                         _______ _______ _______ _____ _____    ______ ____
ROOT
ATOM      1  C   UNL     1       8.909  -3.017  24.187  0.00  0.00    -0.014 A 
ATOM      2  C   UNL     1       7.867  -3.471  23.314  0.00  0.00    +0.003 A 
ATOM      3  C   UNL     1       7.738  -4.848  23.497  0.00  0.00    +0.047 A 
ATOM      4  C   UNL     1       6.802  -5.620  22.799  0.00  0.00    +0.026 A 
ATOM      5  C   UNL     1       5.967  -4.962  21.891  0.00  0.00    +0.002 A 
ATOM      6  C   UNL     1       6.067  -3.588  21.690  0.00  0.00    +0.001 A 
ATOM      7  N   UNL     1       8.669  -5.221  24.438  0.00  0.00    -0.360 N 
ATOM      8  H   UNL     1       8.806  -6.167  24.764  0.00  0.00    +0.165 HD
ATOM      9  C   UNL     1       7.014  -2.832  22.391  0.00  0.00    +0.010 A 
ATOM     10  C   UNL     1       9.373  -4.129  24.866  0.00  0.00    +0.087 A 
ENDROOT
BRANCH   1  11
ATOM     11  C   UNL     1       9.406  -1.611  24.337  0.00  0.00    +0.132 C 
BRANCH  11  15
ATOM     12  N   UNL     1      10.197   0.252  22.923  0.00  0.00    -0.329 N 
ATOM     13  H   UNL     1       9.969   0.906  23.661  0.00  0.00    +0.145 HD
ATOM     14  H   UNL     1      10.769   0.587  22.160  0.00  0.00    +0.145 HD
ATOM     15  C   UNL     1      10.184  -1.095  23.138  0.00  0.00    +0.215 C 
ATOM     16  O   UNL     1      10.715  -1.847  22.322  0.00  0.00    -0.276 OA
ENDBRANCH  11  15
ENDBRANCH   1  11
TORSDOF 2
ENDMDL
MODEL 7
REMARK VINA RESULT:      -4.9      3.840      5.007
REMARK  Name = 
REMARK  2 active torsions:
REMARK  status: ('A' for Active; 'I' for Inactive)
REMARK    1  A    between atoms: C_2  and  C_4
REMARK    2  A    between atoms: C_4  and  C_5
REMARK                            x       y       z     vdW  Elec       q    Type
REMARK                         _______ _______ _______ _____ _____    ______ ____
ROOT
ATOM      1  C   UNL     1       7.537  -4.392  22.775  0.00  0.00    -0.014 A 
ATOM      2  C   UNL     1       7.948  -4.257  24.142  0.00  0.00    +0.003 A 
ATOM      3  C   UNL     1       7.924  -2.897  24.455  0.00  0.00    +0.047 A 
ATOM      4  C   UNL     1       8.267  -2.405  25.719  0.00  0.00    +0.026 A 
ATOM      5  C   UNL     1       8.638  -3.332  26.697  0.00  0.00    +0.002 A 
ATOM      6  C   UNL     1       8.666  -4.696  26.419  0.00  0.00    +0.001 A 
ATOM      7  N   UNL     1       7.524  -2.229  23.321  0.00  0.00    -0.360 N 
ATOM      8  H   UNL     1       7.422  -1.226  23.255  0.00  0.00    +0.165 HD
ATOM      9  C   UNL     1       8.327  -5.171  25.147  0.00  0.00    +0.010 A 
ATOM     10  C   UNL     1       7.281  -3.116  22.309  0.00  0.00    +0.087 A 
ENDROOT
BRANCH   1  11
ATOM     11  C   UNL     1       7.413  -5.666  21.997  0.00  0.00    +0.132 C 
BRANCH  11  15
ATOM     12  N   UNL     1       5.031  -6.316  22.046  0.00  0.00    -0.329 N 
ATOM     13  H   UNL     1       5.042  -6.272  23.056  0.00  0.00    +0.145 HD
ATOM     14  H   UNL     1       4.132  -6.370  21.588  0.00  0.00    +0.145 HD
ATOM     15  C   UNL     1       6.073  -5.843  21.302  0.00  0.00    +0.215 C 
ATOM     16  O   UNL     1       5.927  -5.664  20.094  0.00  0.00    -0.276 OA
ENDBRANCH  11  15
ENDBRANCH   1  11
TORSDOF 2
ENDMDL
MODEL 8
REMARK VINA RESULT:      -4.8      2.302      3.666
REMARK  Name = 
REMARK  2 active torsions:
REMARK  status: ('A' for Active; 'I' for Inactive)
REMARK    1  A    between atoms: C_2  and  C_4
REMARK    2  A    between atoms: C_4  and  C_5
REMARK                            x       y       z     vdW  Elec       q    Type
REMARK                         _______ _______ _______ _____ _____    ______ ____
ROOT
ATOM      1  C   UNL     1       7.788  -3.719  23.117  0.00  0.00    -0.014 A 
ATOM      2  C   UNL     1       8.575  -2.533  22.943  0.00  0.00    +0.003 A 
ATOM      3  C   UNL     1       8.989  -2.116  24.209  0.00  0.00    +0.047 A 
ATOM      4  C   UNL     1       9.785  -0.983  24.410  0.00  0.00    +0.026 A 
ATOM      5  C   UNL     1      10.177  -0.257  23.281  0.00  0.00    +0.002 A 
ATOM      6  C   UNL     1       9.786  -0.651  22.004  0.00  0.00    +0.001 A 
ATOM      7  N   UNL     1       8.468  -3.006  25.118  0.00  0.00    -0.360 N 
ATOM      8  H   UNL     1       8.601  -2.947  26.118  0.00  0.00    +0.165 HD
ATOM      9  C   UNL     1       8.984  -1.783  21.821  0.00  0.00    +0.010 A 
ATOM     10  C   UNL     1       7.751  -3.977  24.474  0.00  0.00    +0.087 A 
ENDROOT
BRANCH   1  11
ATOM     11  C   UNL     1       7.127  -4.522  22.039  0.00  0.00    +0.132 C 
BRANCH  11  15
ATOM     12  N   UNL     1       5.321  -6.177  22.351  0.00  0.00    -0.329 N 
ATOM     13  H   UNL     1       6.013  -6.903  22.488  0.00  0.00    +0.145 HD
ATOM     14  H   UNL     1       4.364  -6.388  22.599  0.00  0.00    +0.145 HD
ATOM     15  C   UNL     1       5.671  -4.859  22.317  0.00  0.00    +0.215 C 
ATOM     16  O   UNL     1       4.801  -3.995  22.418  0.00  0.00    -0.276 OA
ENDBRANCH  11  15
ENDBRANCH   1  11
TORSDOF 2
ENDMDL
MODEL 9
REMARK VINA RESULT:      -4.8      1.735      2.123
REMARK  Name = 
REMARK  2 active torsions:
REMARK  status: ('A' for Active; 'I' for Inactive)
REMARK    1  A    between atoms: C_2  and  C_4
REMARK    2  A    between atoms: C_4  and  C_5
REMARK                            x       y       z     vdW  Elec       q    Type
REMARK                         _______ _______ _______ _____ _____    ______ ____
ROOT
ATOM      1  C   UNL     1       8.516  -1.683  23.686  0.00  0.00    -0.014 A 
ATOM      2  C   UNL     1       8.740  -0.435  23.018  0.00  0.00    +0.003 A 
ATOM      3  C   UNL     1       7.497   0.170  22.832  0.00  0.00    +0.047 A 
ATOM      4  C   UNL     1       7.346   1.414  22.209  0.00  0.00    +0.026 A 
ATOM      5  C   UNL     1       8.502   2.064  21.770  0.00  0.00    +0.002 A 
ATOM      6  C   UNL     1       9.759   1.490  21.947  0.00  0.00    +0.001 A 
ATOM      7  N   UNL     1       6.551  -0.680  23.357  0.00  0.00    -0.360 N 
ATOM      8  H   UNL     1       5.557  -0.500  23.356  0.00  0.00    +0.165 HD
ATOM      9  C   UNL     1       9.892   0.242  22.565  0.00  0.00    +0.010 A 
ATOM     10  C   UNL     1       7.151  -1.792  23.880  0.00  0.00    +0.087 A 
ENDROOT
BRANCH   1  11
ATOM     11  C   UNL     1       9.555  -2.683  24.094  0.00  0.00    +0.132 C 
BRANCH  11  15
ATOM     12  N   UNL     1       8.869  -4.045  26.035  0.00  0.00    -0.329 N 
ATOM     13  H   UNL     1       8.862  -3.214  26.613  0.00  0.00    +0.145 HD
ATOM     14  H   UNL     1       8.433  -4.879  26.406  0.00  0.00    +0.145 HD
ATOM     15  C   UNL     1       8.990  -3.966  24.679  0.00  0.00    +0.215 C 
ATOM     16  O   UNL     1       8.730  -4.949  23.986  0.00  0.00    -0.276 OA
ENDBRANCH  11  15
ENDBRANCH   1  11
TORSDOF 2
ENDMDL
