MODEL 1
REMARK VINA RESULT:      -6.7      0.000      0.000
REMARK  Name = 
REMARK  4 active torsions:
REMARK  status: ('A' for Active; 'I' for Inactive)
REMARK    1  A    between atoms: N_1  and  S_2
REMARK    2  A    between atoms: S_2  and  C_5
REMARK    3  A    between atoms: N_9  and  S_10
REMARK    4  A    between atoms: S_10  and  C_13
REMARK                            x       y       z     vdW  Elec       q    Type
REMARK                         _______ _______ _______ _____ _____    ______ ____
ROOT
ATOM      1  C   UNL     1       5.426  -5.120  23.070  0.00  0.00    +0.256 A 
ATOM      2  S   UNL     1       5.642  -3.441  23.292  0.00  0.00    -0.009 S 
ATOM      3  C   UNL     1       7.170  -3.642  22.557  0.00  0.00    +0.202 A 
ATOM      4  N   UNL     1       8.100  -2.603  22.321  0.00  0.00    -0.192 N 
ATOM      5  H   UNL     1       8.754  -2.874  21.589  0.00  0.00    +0.176 HD
ATOM      6  N   UNL     1       7.418  -4.852  22.109  0.00  0.00    -0.123 NA
ATOM      7  N   UNL     1       6.417  -5.740  22.462  0.00  0.00    -0.119 NA
ENDROOT
BRANCH   1   8
ATOM      8  S   UNL     1       3.968  -5.865  23.708  0.00  0.00    +0.081 S 
ATOM      9  O   UNL     1       3.708  -5.219  24.974  0.00  0.00    -0.151 OA
ATOM     10  O   UNL     1       2.998  -5.879  22.639  0.00  0.00    -0.151 OA
BRANCH   8  11
ATOM     11  N   UNL     1       4.278  -7.479  24.104  0.00  0.00    -0.202 NA
ATOM     12  H   UNL     1       3.510  -7.864  24.655  0.00  0.00    +0.144 HD
ATOM     13  H   UNL     1       4.427  -8.010  23.245  0.00  0.00    +0.144 HD
ENDBRANCH   8  11
ENDBRANCH   1   8
BRANCH   4  14
ATOM     14  S   UNL     1       8.992  -2.212  23.712  0.00  0.00    +0.074 S 
ATOM     15  O   UNL     1      10.170  -3.045  23.799  0.00  0.00    -0.150 OA
ATOM     16  O   UNL     1       8.036  -2.155  24.801  0.00  0.00    -0.150 OA
BRANCH  14  17
ATOM     17  C   UNL     1       9.521  -0.536  23.398  0.00  0.00    +0.109 A 
ATOM     18  C   UNL     1       9.396  -0.002  22.110  0.00  0.00    +0.029 A 
ATOM     19  C   UNL     1       9.829   1.302  21.861  0.00  0.00    +0.002 A 
ATOM     20  C   UNL     1      10.399   2.056  22.888  0.00  0.00    +0.000 A 
ATOM     21  C   UNL     1      10.547   1.509  24.165  0.00  0.00    +0.002 A 
ATOM     22  C   UNL     1      10.113   0.209  24.423  0.00  0.00    +0.029 A 
ENDBRANCH  14  17
ENDBRANCH   4  14
TORSDOF 4
ENDMDL
MODEL 2
REMARK VINA RESULT:      -6.7      3.323      6.778
REMARK  Name = 
REMARK  4 active torsions:
REMARK  status: ('A' for Active; 'I' for Inactive)
REMARK    1  A    between atoms: N_1  and  S_2
REMARK    2  A    between atoms: S_2  and  C_5
REMARK    3  A    between atoms: N_9  and  S_10
REMARK    4  A    between atoms: S_10  and  C_13
REMARK                            x       y       z     vdW  Elec       q    Type
REMARK                         _______ _______ _______ _____ _____    ______ ____
ROOT
ATOM      1  C   UNL     1       9.849  -0.020  23.175  0.00  0.00    +0.256 A 
ATOM      2  S   UNL     1       9.806  -0.770  24.708  0.00  0.00    -0.009 S 
ATOM      3  C   UNL     1       9.815  -2.257  23.869  0.00  0.00    +0.202 A 
ATOM      4  N   UNL     1       9.798  -3.533  24.480  0.00  0.00    -0.192 N 
ATOM      5  H   UNL     1      10.150  -4.237  23.834  0.00  0.00    +0.176 HD
ATOM      6  N   UNL     1       9.939  -2.160  22.565  0.00  0.00    -0.123 NA
ATOM      7  N   UNL     1       9.901  -0.842  22.146  0.00  0.00    -0.119 NA
ENDROOT
BRANCH   1   8
ATOM      8  S   UNL     1       9.762   1.734  23.102  0.00  0.00    +0.081 S 
ATOM      9  O   UNL     1       8.410   2.084  23.472  0.00  0.00    -0.151 OA
ATOM     10  O   UNL     1      10.911   2.244  23.811  0.00  0.00    -0.151 OA
BRANCH   8  11
ATOM     11  N   UNL     1       9.915   2.246  21.498  0.00  0.00    -0.202 NA
ATOM     12  H   UNL     1       9.647   3.227  21.410  0.00  0.00    +0.144 HD
ATOM     13  H   UNL     1      10.875   2.089  21.188  0.00  0.00    +0.144 HD
ENDBRANCH   8  11
ENDBRANCH   1   8
BRANCH   4  14
ATOM     14  S   UNL     1       8.238  -3.991  24.966  0.00  0.00    +0.074 S 
ATOM     15  O   UNL     1       7.537  -2.859  25.529  0.00  0.00    -0.150 OA
ATOM     16  O   UNL     1       8.395  -5.221  25.719  0.00  0.00    -0.150 OA
BRANCH  14  17
ATOM     17  C   UNL     1       7.443  -4.424  23.427  0.00  0.00    +0.109 A 
ATOM     18  C   UNL     1       6.579  -3.509  22.814  0.00  0.00    +0.029 A 
ATOM     19  C   UNL     1       5.943  -3.856  21.620  0.00  0.00    +0.002 A 
ATOM     20  C   UNL     1       6.156  -5.116  21.057  0.00  0.00    +0.000 A 
ATOM     21  C   UNL     1       6.997  -6.036  21.687  0.00  0.00    +0.002 A 
ATOM     22  C   UNL     1       7.640  -5.695  22.877  0.00  0.00    +0.029 A 
ENDBRANCH  14  17
ENDBRANCH   4  14
TORSDOF 4
ENDMDL
MODEL 3
REMARK VINA RESULT:      -6.7      3.730      6.808
REMARK  Name = 
REMARK  4 active torsions:
REMARK  status: ('A' for Active; 'I' for Inactive)
REMARK    1  A    between atoms: N_1  and  S_2
REMARK    2  A    between atoms: S_2  and  C_5
REMARK    3  A    between atoms: N_9  and  S_10
REMARK    4  A    between atoms: S_10  and  C_13
REMARK                            x       y       z     vdW  Elec       q    Type
REMARK                         _______ _______ _______ _____ _____    ______ ____
ROOT
ATOM      1  C   UNL     1       8.886   0.168  23.305  0.00  0.00    +0.256 A 
ATOM      2  S   UNL     1       7.823  -1.160  23.447  0.00  0.00    -0.009 S 
ATOM      3  C   UNL     1       8.555  -1.455  24.962  0.00  0.00    +0.202 A 
ATOM      4  N   UNL     1       8.204  -2.505  25.842  0.00  0.00    -0.192 N 
ATOM      5  H   UNL     1       8.506  -2.288  26.789  0.00  0.00    +0.176 HD
ATOM      6  N   UNL     1       9.442  -0.560  25.336  0.00  0.00    -0.123 NA
ATOM      7  N   UNL     1       9.682   0.366  24.337  0.00  0.00    -0.119 NA
ENDROOT
BRANCH   1   8
ATOM      8  S   UNL     1       8.869   1.095  21.813  0.00  0.00    +0.081 S 
ATOM      9  O   UNL     1       9.175   0.158  20.756  0.00  0.00    -0.151 OA
ATOM     10  O   UNL     1       7.657   1.880  21.817  0.00  0.00    -0.151 OA
BRANCH   8  11
ATOM     11  N   UNL     1      10.157   2.189  21.805  0.00  0.00    -0.202 NA
ATOM     12  H   UNL     1       9.927   3.015  22.358  0.00  0.00    +0.144 HD
ATOM     13  H   UNL     1      10.993   1.721  22.158  0.00  0.00    +0.144 HD
ENDBRANCH   8  11
ENDBRANCH   1   8
BRANCH   4  14
ATOM     14  S   UNL     1       8.903  -3.984  25.388  0.00  0.00    +0.074 S 
ATOM     15  O   UNL     1       9.262  -4.748  26.561  0.00  0.00    -0.150 OA
ATOM     16  O   UNL     1       9.888  -3.669  24.371  0.00  0.00    -0.150 OA
BRANCH  14  17
ATOM     17  C   UNL     1       7.563  -4.831  24.566  0.00  0.00    +0.109 A 
ATOM     18  C   UNL     1       7.654  -5.102  23.196  0.00  0.00    +0.029 A 
ATOM     19  C   UNL     1       6.597  -5.748  22.550  0.00  0.00    +0.002 A 
ATOM     20  C   UNL     1       5.452  -6.099  23.267  0.00  0.00    +0.000 A 
ATOM     21  C   UNL     1       5.354  -5.802  24.628  0.00  0.00    +0.002 A 
ATOM     22  C   UNL     1       6.407  -5.162  25.281  0.00  0.00    +0.029 A 
ENDBRANCH  14  17
ENDBRANCH   4  14
TORSDOF 4
ENDMDL
MODEL 4
REMARK VINA RESULT:      -6.7      3.665      4.411
REMARK  Name = 
REMARK  4 active torsions:
REMARK  status: ('A' for Active; 'I' for Inactive)
REMARK    1  A    between atoms: N_1  and  S_2
REMARK    2  A    between atoms: S_2  and  C_5
REMARK    3  A    between atoms: N_9  and  S_10
REMARK    4  A    between atoms: S_10  and  C_13
REMARK                            x       y       z     vdW  Elec       q    Type
REMARK                         _______ _______ _______ _____ _____    ______ ____
ROOT
ATOM      1  C   UNL     1       8.862  -3.155  24.998  0.00  0.00    +0.256 A 
ATOM      2  S   UNL     1       9.791  -2.411  23.775  0.00  0.00    -0.009 S 
ATOM      3  C   UNL     1       9.276  -0.921  24.429  0.00  0.00    +0.202 A 
ATOM      4  N   UNL     1       9.649   0.353  23.939  0.00  0.00    -0.192 N 
ATOM      5  H   UNL     1       9.521   1.060  24.661  0.00  0.00    +0.176 HD
ATOM      6  N   UNL     1       8.555  -1.012  25.524  0.00  0.00    -0.123 NA
ATOM      7  N   UNL     1       8.259  -2.329  25.830  0.00  0.00    -0.119 NA
ENDROOT
BRANCH   1   8
ATOM      8  S   UNL     1       8.743  -4.908  25.006  0.00  0.00    +0.081 S 
ATOM      9  O   UNL     1       7.901  -5.248  26.131  0.00  0.00    -0.151 OA
ATOM     10  O   UNL     1       8.428  -5.316  23.658  0.00  0.00    -0.151 OA
BRANCH   8  11
ATOM     11  N   UNL     1      10.249  -5.580  25.378  0.00  0.00    -0.202 NA
ATOM     12  H   UNL     1      10.248  -6.583  25.187  0.00  0.00    +0.144 HD
ATOM     13  H   UNL     1      10.971  -5.096  24.844  0.00  0.00    +0.144 HD
ENDBRANCH   8  11
ENDBRANCH   1   8
BRANCH   4  14
ATOM     14  S   UNL     1       8.740   0.810  22.581  0.00  0.00    +0.074 S 
ATOM     15  O   UNL     1       7.450   0.159  22.602  0.00  0.00    -0.150 OA
ATOM     16  O   UNL     1       9.625   0.677  21.440  0.00  0.00    -0.150 OA
BRANCH  14  17
ATOM     17  C   UNL     1       8.481   2.558  22.835  0.00  0.00    +0.109 A 
ATOM     18  C   UNL     1       7.422   3.201  22.185  0.00  0.00    +0.029 A 
ATOM     19  C   UNL     1       7.232   4.573  22.369  0.00  0.00    +0.002 A 
ATOM     20  C   UNL     1       8.108   5.295  23.181  0.00  0.00    +0.000 A 
ATOM     21  C   UNL     1       9.180   4.655  23.805  0.00  0.00    +0.002 A 
ATOM     22  C   UNL     1       9.374   3.284  23.630  0.00  0.00    +0.029 A 
ENDBRANCH  14  17
ENDBRANCH   4  14
TORSDOF 4
ENDMDL
MODEL 5
REMARK VINA RESULT:      -6.7      2.262      2.739
REMARK  Name = 
REMARK  4 active torsions:
REMARK  status: ('A' for Active; 'I' for Inactive)
REMARK    1  A    between atoms: N_1  and  S_2
REMARK    2  A    between atoms: S_2  and  C_5
REMARK    3  A    between atoms: N_9  and  S_10
REMARK    4  A    between atoms: S_10  and  C_13
REMARK                            x       y       z     vdW  Elec       q    Type
REMARK                         _______ _______ _______ _____ _____    ______ ____
ROOT
ATOM      1  C   UNL     1       7.548  -4.295  23.255  0.00  0.00    +0.256 A 
ATOM      2  S   UNL     1       7.825  -2.730  22.631  0.00  0.00    -0.009 S 
ATOM      3  C   UNL     1       9.266  -2.729  23.548  0.00  0.00    +0.202 A 
ATOM      4  N   UNL     1      10.200  -1.667  23.590  0.00  0.00    -0.192 N 
ATOM      5  H   UNL     1      11.107  -2.008  23.900  0.00  0.00    +0.176 HD
ATOM      6  N   UNL     1       9.530  -3.854  24.172  0.00  0.00    -0.123 NA
ATOM      7  N   UNL     1       8.492  -4.760  24.049  0.00  0.00    -0.119 NA
ENDROOT
BRANCH   1   8
ATOM      8  S   UNL     1       6.044  -5.103  22.842  0.00  0.00    +0.081 S 
ATOM      9  O   UNL     1       5.509  -5.613  24.084  0.00  0.00    -0.151 OA
ATOM     10  O   UNL     1       5.299  -4.202  21.995  0.00  0.00    -0.151 OA
BRANCH   8  11
ATOM     11  N   UNL     1       6.371  -6.480  21.918  0.00  0.00    -0.202 NA
ATOM     12  H   UNL     1       7.332  -6.790  22.068  0.00  0.00    +0.144 HD
ATOM     13  H   UNL     1       5.699  -7.210  22.158  0.00  0.00    +0.144 HD
ENDBRANCH   8  11
ENDBRANCH   1   8
BRANCH   4  14
ATOM     14  S   UNL     1       9.712  -0.424  24.638  0.00  0.00    +0.074 S 
ATOM     15  O   UNL     1      10.860   0.340  25.073  0.00  0.00    -0.150 OA
ATOM     16  O   UNL     1       8.815  -1.036  25.599  0.00  0.00    -0.150 OA
BRANCH  14  17
ATOM     17  C   UNL     1       8.715   0.623  23.591  0.00  0.00    +0.109 A 
ATOM     18  C   UNL     1       7.436   1.004  24.013  0.00  0.00    +0.029 A 
ATOM     19  C   UNL     1       6.649   1.807  23.184  0.00  0.00    +0.002 A 
ATOM     20  C   UNL     1       7.131   2.207  21.937  0.00  0.00    +0.000 A 
ATOM     21  C   UNL     1       8.397   1.801  21.509  0.00  0.00    +0.002 A 
ATOM     22  C   UNL     1       9.192   1.003  22.333  0.00  0.00    +0.029 A 
ENDBRANCH  14  17
ENDBRANCH   4  14
TORSDOF 4
ENDMDL
MODEL 6
REMARK VINA RESULT:      -6.6      3.429      4.677
REMARK  Name = 
REMARK  4 active torsions:
REMARK  status: ('A' for Active; 'I' for Inactive)
REMARK    1  A    between atoms: N_1  and  S_2
REMARK    2  A    between atoms: S_2  and  C_5
REMARK    3  A    between atoms: N_9  and  S_10
REMARK    4  A    between atoms: S_10  and  C_13
REMARK                            x       y       z     vdW  Elec       q    Type
REMARK                         _______ _______ _______ _____ _____    ______ ____
ROOT
ATOM      1  C   UNL     1       8.862  -2.684  25.023  0.00  0.00    +0.256 A 
ATOM      2  S   UNL     1       9.858  -1.954  23.846  0.00  0.00    -0.009 S 
ATOM      3  C   UNL     1       9.725  -0.522  24.767  0.00  0.00    +0.202 A 
ATOM      4  N   UNL     1      10.341   0.711  24.444  0.00  0.00    -0.192 N 
ATOM      5  H   UNL     1      10.415   1.295  25.274  0.00  0.00    +0.176 HD
ATOM      6  N   UNL     1       9.068  -0.646  25.897  0.00  0.00    -0.123 NA
ATOM      7  N   UNL     1       8.507  -1.904  26.025  0.00  0.00    -0.119 NA
ENDROOT
BRANCH   1   8
ATOM      8  S   UNL     1       8.359  -4.349  24.774  0.00  0.00    +0.081 S 
ATOM      9  O   UNL     1       7.556  -4.702  25.923  0.00  0.00    -0.151 OA
ATOM     10  O   UNL     1       7.854  -4.441  23.425  0.00  0.00    -0.151 OA
BRANCH   8  11
ATOM     11  N   UNL     1       9.704  -5.370  24.860  0.00  0.00    -0.202 NA
ATOM     12  H   UNL     1      10.555  -4.859  24.621  0.00  0.00    +0.144 HD
ATOM     13  H   UNL     1       9.757  -5.773  25.796  0.00  0.00    +0.144 HD
ENDBRANCH   8  11
ENDBRANCH   1   8
BRANCH   4  14
ATOM     14  S   UNL     1       9.476   1.571  23.264  0.00  0.00    +0.074 S 
ATOM     15  O   UNL     1       8.056   1.478  23.519  0.00  0.00    -0.150 OA
ATOM     16  O   UNL     1      10.032   1.173  21.986  0.00  0.00    -0.150 OA
BRANCH  14  17
ATOM     17  C   UNL     1       9.979   3.261  23.544  0.00  0.00    +0.109 A 
ATOM     18  C   UNL     1      11.318   3.623  23.360  0.00  0.00    +0.029 A 
ATOM     19  C   UNL     1      11.714   4.941  23.598  0.00  0.00    +0.002 A 
ATOM     20  C   UNL     1      10.780   5.882  24.035  0.00  0.00    +0.000 A 
ATOM     21  C   UNL     1       9.450   5.510  24.244  0.00  0.00    +0.002 A 
ATOM     22  C   UNL     1       9.046   4.196  24.003  0.00  0.00    +0.029 A 
ENDBRANCH  14  17
ENDBRANCH   4  14
TORSDOF 4
ENDMDL
MODEL 7
REMARK VINA RESULT:      -6.5      2.259      2.662
REMARK  Name = 
REMARK  4 active torsions:
REMARK  status: ('A' for Active; 'I' for Inactive)
REMARK    1  A    between atoms: N_1  and  S_2
REMARK    2  A    between atoms: S_2  and  C_5
REMARK    3  A    between atoms: N_9  and  S_10
REMARK    4  A    between atoms: S_10  and  C_13
REMARK                            x       y       z     vdW  Elec       q    Type
REMARK                         _______ _______ _______ _____ _____    ______ ____
ROOT
ATOM      1  C   UNL     1       6.912  -4.594  25.145  0.00  0.00    +0.256 A 
ATOM      2  S   UNL     1       7.181  -2.908  25.123  0.00  0.00    -0.009 S 
ATOM      3  C   UNL     1       7.640  -3.104  23.490  0.00  0.00    +0.202 A 
ATOM      4  N   UNL     1       8.052  -2.057  22.632  0.00  0.00    -0.192 N 
ATOM      5  H   UNL     1       7.939  -2.334  21.659  0.00  0.00    +0.176 HD
ATOM      6  N   UNL     1       7.497  -4.319  23.012  0.00  0.00    -0.123 NA
ATOM      7  N   UNL     1       7.123  -5.213  24.000  0.00  0.00    -0.119 NA
ENDROOT
BRANCH   1   8
ATOM      8  S   UNL     1       6.448  -5.345  26.663  0.00  0.00    +0.081 S 
ATOM      9  O   UNL     1       5.905  -4.287  27.485  0.00  0.00    -0.151 OA
ATOM     10  O   UNL     1       5.691  -6.529  26.335  0.00  0.00    -0.151 OA
BRANCH   8  11
ATOM     11  N   UNL     1       7.829  -5.864  27.489  0.00  0.00    -0.202 NA
ATOM     12  H   UNL     1       8.420  -5.068  27.731  0.00  0.00    +0.144 HD
ATOM     13  H   UNL     1       7.545  -6.387  28.318  0.00  0.00    +0.144 HD
ENDBRANCH   8  11
ENDBRANCH   1   8
BRANCH   4  14
ATOM     14  S   UNL     1       9.676  -1.627  22.877  0.00  0.00    +0.074 S 
ATOM     15  O   UNL     1      10.413  -1.735  21.638  0.00  0.00    -0.150 OA
ATOM     16  O   UNL     1      10.106  -2.337  24.066  0.00  0.00    -0.150 OA
BRANCH  14  17
ATOM     17  C   UNL     1       9.577   0.102  23.313  0.00  0.00    +0.109 A 
ATOM     18  C   UNL     1       9.018   0.474  24.541  0.00  0.00    +0.029 A 
ATOM     19  C   UNL     1       8.924   1.827  24.872  0.00  0.00    +0.002 A 
ATOM     20  C   UNL     1       9.366   2.798  23.972  0.00  0.00    +0.000 A 
ATOM     21  C   UNL     1       9.897   2.423  22.736  0.00  0.00    +0.002 A 
ATOM     22  C   UNL     1      10.000   1.073  22.400  0.00  0.00    +0.029 A 
ENDBRANCH  14  17
ENDBRANCH   4  14
TORSDOF 4
ENDMDL
MODEL 8
REMARK VINA RESULT:      -6.4      2.152      2.488
REMARK  Name = 
REMARK  4 active torsions:
REMARK  status: ('A' for Active; 'I' for Inactive)
REMARK    1  A    between atoms: N_1  and  S_2
REMARK    2  A    between atoms: S_2  and  C_5
REMARK    3  A    between atoms: N_9  and  S_10
REMARK    4  A    between atoms: S_10  and  C_13
REMARK                            x       y       z     vdW  Elec       q    Type
REMARK                         _______ _______ _______ _____ _____    ______ ____
ROOT
ATOM      1  C   UNL     1       5.214  -4.941  25.360  0.00  0.00    +0.256 A 
ATOM      2  S   UNL     1       6.900  -4.925  25.630  0.00  0.00    -0.009 S 
ATOM      3  C   UNL     1       6.863  -3.292  25.133  0.00  0.00    +0.202 A 
ATOM      4  N   UNL     1       7.989  -2.438  25.068  0.00  0.00    -0.192 N 
ATOM      5  H   UNL     1       7.694  -1.464  25.089  0.00  0.00    +0.176 HD
ATOM      6  N   UNL     1       5.665  -2.811  24.890  0.00  0.00    -0.123 NA
ATOM      7  N   UNL     1       4.696  -3.795  24.966  0.00  0.00    -0.119 NA
ENDROOT
BRANCH   1   8
ATOM      8  S   UNL     1       4.350  -6.457  25.566  0.00  0.00    +0.081 S 
ATOM      9  O   UNL     1       2.987  -6.101  25.888  0.00  0.00    -0.151 OA
ATOM     10  O   UNL     1       4.681  -7.289  24.434  0.00  0.00    -0.151 OA
BRANCH   8  11
ATOM     11  N   UNL     1       4.922  -7.257  26.941  0.00  0.00    -0.202 NA
ATOM     12  H   UNL     1       4.148  -7.496  27.562  0.00  0.00    +0.144 HD
ATOM     13  H   UNL     1       5.443  -8.086  26.652  0.00  0.00    +0.144 HD
ENDBRANCH   8  11
ENDBRANCH   1   8
BRANCH   4  14
ATOM     14  S   UNL     1       8.903  -2.687  23.660  0.00  0.00    +0.074 S 
ATOM     15  O   UNL     1       8.059  -3.187  22.598  0.00  0.00    -0.150 OA
ATOM     16  O   UNL     1      10.091  -3.409  24.073  0.00  0.00    -0.150 OA
BRANCH  14  17
ATOM     17  C   UNL     1       9.427  -1.038  23.220  0.00  0.00    +0.109 A 
ATOM     18  C   UNL     1      10.063  -0.236  24.175  0.00  0.00    +0.029 A 
ATOM     19  C   UNL     1      10.455   1.060  23.835  0.00  0.00    +0.002 A 
ATOM     20  C   UNL     1      10.193   1.555  22.556  0.00  0.00    +0.000 A 
ATOM     21  C   UNL     1       9.534   0.762  21.615  0.00  0.00    +0.002 A 
ATOM     22  C   UNL     1       9.144  -0.536  21.945  0.00  0.00    +0.029 A 
ENDBRANCH  14  17
ENDBRANCH   4  14
TORSDOF 4
ENDMDL
MODEL 9
REMARK VINA RESULT:      -6.3      3.269      3.690
REMARK  Name = 
REMARK  4 active torsions:
REMARK  status: ('A' for Active; 'I' for Inactive)
REMARK    1  A    between atoms: N_1  and  S_2
REMARK    2  A    between atoms: S_2  and  C_5
REMARK    3  A    between atoms: N_9  and  S_10
REMARK    4  A    between atoms: S_10  and  C_13
REMARK                            x       y       z     vdW  Elec       q    Type
REMARK                         _______ _______ _______ _____ _____    ______ ____
ROOT
ATOM      1  C   UNL     1       6.666  -5.385  27.273  0.00  0.00    +0.256 A 
ATOM      2  S   UNL     1       6.093  -5.583  25.677  0.00  0.00    -0.009 S 
ATOM      3  C   UNL     1       7.521  -4.791  25.175  0.00  0.00    +0.202 A 
ATOM      4  N   UNL     1       7.870  -4.525  23.829  0.00  0.00    -0.192 N 
ATOM      5  H   UNL     1       8.874  -4.376  23.749  0.00  0.00    +0.176 HD
ATOM      6  N   UNL     1       8.370  -4.510  26.136  0.00  0.00    -0.123 NA
ATOM      7  N   UNL     1       7.845  -4.805  27.382  0.00  0.00    -0.119 NA
ENDROOT
BRANCH   1   8
ATOM      8  S   UNL     1       5.637  -5.904  28.599  0.00  0.00    +0.081 S 
ATOM      9  O   UNL     1       6.449  -5.826  29.792  0.00  0.00    -0.151 OA
ATOM     10  O   UNL     1       4.389  -5.190  28.470  0.00  0.00    -0.151 OA
BRANCH   8  11
ATOM     11  N   UNL     1       5.275  -7.547  28.432  0.00  0.00    -0.202 NA
ATOM     12  H   UNL     1       4.871  -7.912  29.295  0.00  0.00    +0.144 HD
ATOM     13  H   UNL     1       4.644  -7.670  27.639  0.00  0.00    +0.144 HD
ENDBRANCH   8  11
ENDBRANCH   1   8
BRANCH   4  14
ATOM     14  S   UNL     1       7.078  -3.154  23.220  0.00  0.00    +0.074 S 
ATOM     15  O   UNL     1       6.074  -2.700  24.156  0.00  0.00    -0.150 OA
ATOM     16  O   UNL     1       6.731  -3.465  21.847  0.00  0.00    -0.150 OA
BRANCH  14  17
ATOM     17  C   UNL     1       8.374  -1.928  23.162  0.00  0.00    +0.109 A 
ATOM     18  C   UNL     1       8.849  -1.482  21.924  0.00  0.00    +0.029 A 
ATOM     19  C   UNL     1       9.877  -0.537  21.880  0.00  0.00    +0.002 A 
ATOM     20  C   UNL     1      10.436  -0.060  23.066  0.00  0.00    +0.000 A 
ATOM     21  C   UNL     1       9.978  -0.528  24.300  0.00  0.00    +0.002 A 
ATOM     22  C   UNL     1       8.948  -1.467  24.352  0.00  0.00    +0.029 A 
ENDBRANCH  14  17
ENDBRANCH   4  14
TORSDOF 4
ENDMDL
