MODEL 1
REMARK VINA RESULT:      -6.3      0.000      0.000
REMARK  Name = 
REMARK  10 active torsions:
REMARK  status: ('A' for Active; 'I' for Inactive)
REMARK    1  A    between atoms: O_1  and  C_2
REMARK    2  A    between atoms: C_5  and  N_20
REMARK    3  A    between atoms: C_8  and  C_10
REMARK    4  A    between atoms: C_10  and  O_11
REMARK    5  A    between atoms: O_11  and  P_12
REMARK    6  A    between atoms: P_12  and  O_13
REMARK    7  A    between atoms: P_12  and  O_15
REMARK    8  A    between atoms: O_15  and  P_16
REMARK    9  A    between atoms: P_16  and  O_17
REMARK   10  A    between atoms: P_16  and  O_18
REMARK                            x       y       z     vdW  Elec       q    Type
REMARK                         _______ _______ _______ _____ _____    ______ ____
ROOT
ATOM      1  C   UNL     1       6.702  -2.580  22.629  0.00  0.00    +0.150 C 
ATOM      2  C   UNL     1       6.787  -1.321  23.497  0.00  0.00    +0.175 C 
ATOM      3  O   UNL     1       7.933  -1.477  24.367  0.00  0.00    -0.348 OA
ATOM      4  C   UNL     1       8.487  -2.794  24.179  0.00  0.00    +0.226 C 
ATOM      5  C   UNL     1       8.081  -3.182  22.760  0.00  0.00    +0.088 C 
ENDROOT
BRANCH   4   6
ATOM      6  N   UNL     1       8.011  -3.705  25.232  0.00  0.00    -0.274 N 
ATOM      7  C   UNL     1       8.683  -4.919  25.374  0.00  0.00    +0.331 A 
ATOM      8  O   UNL     1       9.630  -5.268  24.673  0.00  0.00    -0.246 OA
ATOM      9  N   UNL     1       8.229  -5.739  26.375  0.00  0.00    -0.275 N 
ATOM     10  H   UNL     1       8.705  -6.620  26.490  0.00  0.00    +0.173 HD
ATOM     11  C   UNL     1       7.314  -5.407  27.329  0.00  0.00    +0.254 A 
ATOM     12  O   UNL     1       7.040  -6.134  28.278  0.00  0.00    -0.268 OA
ATOM     13  C   UNL     1       6.681  -4.092  27.173  0.00  0.00    +0.088 A 
ATOM     14  C   UNL     1       7.059  -3.311  26.159  0.00  0.00    +0.098 A 
ENDBRANCH   4   6
BRANCH   1  15
ATOM     15  O   UNL     1       5.731  -3.498  23.137  0.00  0.00    -0.389 OA
ATOM     16  H   UNL     1       4.922  -3.006  23.365  0.00  0.00    +0.210 HD
ENDBRANCH   1  15
BRANCH   2  17
ATOM     17  C   UNL     1       6.964  -0.038  22.691  0.00  0.00    +0.206 C 
BRANCH  17  18
ATOM     18  O   UNL     1       8.109   0.672  23.139  0.00  0.00    -0.284 OA
BRANCH  18  19
ATOM     19  P   UNL     1       9.301   0.850  22.026  0.00  0.00    +0.483 P 
ATOM     20  O   UNL     1       9.278  -0.379  21.117  0.00  0.00    -0.227 OA
BRANCH  19  21
ATOM     21  O   UNL     1       8.169   1.594  20.951  0.00  0.00    -0.302 OA
ATOM     22  H   UNL     1       7.762   0.819  20.507  0.00  0.00    +0.222 HD
ENDBRANCH  19  21
BRANCH  19  23
ATOM     23  O   UNL     1      10.434   0.106  23.102  0.00  0.00    -0.186 OA
BRANCH  23  24
ATOM     24  P   UNL     1      10.864   0.811  24.442  0.00  0.00    +0.481 P 
ATOM     25  O   UNL     1      12.299   0.720  24.813  0.00  0.00    -0.227 OA
BRANCH  24  26
ATOM     26  O   UNL     1       9.837   0.223  25.514  0.00  0.00    -0.302 OA
ATOM     27  H   UNL     1       8.915   0.476  25.320  0.00  0.00    +0.222 HD
ENDBRANCH  24  26
BRANCH  24  28
ATOM     28  O   UNL     1      10.262   2.280  24.254  0.00  0.00    -0.302 OA
ATOM     29  H   UNL     1      10.799   2.784  23.615  0.00  0.00    +0.222 HD
ENDBRANCH  24  28
ENDBRANCH  23  24
ENDBRANCH  19  23
ENDBRANCH  18  19
ENDBRANCH  17  18
ENDBRANCH   2  17
TORSDOF 10
ENDMDL
MODEL 2
REMARK VINA RESULT:      -6.3      2.144      3.589
REMARK  Name = 
REMARK  10 active torsions:
REMARK  status: ('A' for Active; 'I' for Inactive)
REMARK    1  A    between atoms: O_1  and  C_2
REMARK    2  A    between atoms: C_5  and  N_20
REMARK    3  A    between atoms: C_8  and  C_10
REMARK    4  A    between atoms: C_10  and  O_11
REMARK    5  A    between atoms: O_11  and  P_12
REMARK    6  A    between atoms: P_12  and  O_13
REMARK    7  A    between atoms: P_12  and  O_15
REMARK    8  A    between atoms: O_15  and  P_16
REMARK    9  A    between atoms: P_16  and  O_17
REMARK   10  A    between atoms: P_16  and  O_18
REMARK                            x       y       z     vdW  Elec       q    Type
REMARK                         _______ _______ _______ _____ _____    ______ ____
ROOT
ATOM      1  C   UNL     1       9.738  -4.528  25.060  0.00  0.00    +0.150 C 
ATOM      2  C   UNL     1       9.105  -3.556  24.062  0.00  0.00    +0.175 C 
ATOM      3  O   UNL     1       7.878  -3.071  24.656  0.00  0.00    -0.348 OA
ATOM      4  C   UNL     1       7.652  -3.768  25.897  0.00  0.00    +0.226 C 
ATOM      5  C   UNL     1       9.044  -4.192  26.357  0.00  0.00    +0.088 C 
ENDROOT
BRANCH   4   6
ATOM      6  N   UNL     1       6.700  -4.873  25.698  0.00  0.00    -0.274 N 
ATOM      7  C   UNL     1       6.347  -5.619  26.822  0.00  0.00    +0.331 A 
ATOM      8  O   UNL     1       6.787  -5.412  27.951  0.00  0.00    -0.246 OA
ATOM      9  N   UNL     1       5.445  -6.629  26.609  0.00  0.00    -0.275 N 
ATOM     10  H   UNL     1       5.180  -7.176  27.412  0.00  0.00    +0.173 HD
ATOM     11  C   UNL     1       4.752  -6.853  25.457  0.00  0.00    +0.254 A 
ATOM     12  O   UNL     1       3.862  -7.692  25.362  0.00  0.00    -0.268 OA
ATOM     13  C   UNL     1       5.114  -5.999  24.320  0.00  0.00    +0.088 A 
ATOM     14  C   UNL     1       6.045  -5.059  24.491  0.00  0.00    +0.098 A 
ENDBRANCH   4   6
BRANCH   1  15
ATOM     15  O   UNL     1       9.462  -5.887  24.710  0.00  0.00    -0.389 OA
ATOM     16  H   UNL     1       9.284  -6.391  25.524  0.00  0.00    +0.210 HD
ENDBRANCH   1  15
BRANCH   2  17
ATOM     17  C   UNL     1       9.990  -2.357  23.736  0.00  0.00    +0.206 C 
BRANCH  17  18
ATOM     18  O   UNL     1       9.242  -1.153  23.819  0.00  0.00    -0.284 OA
BRANCH  18  19
ATOM     19  P   UNL     1       9.065  -0.341  22.405  0.00  0.00    +0.483 P 
ATOM     20  O   UNL     1      10.227   0.645  22.284  0.00  0.00    -0.227 OA
BRANCH  19  21
ATOM     21  O   UNL     1      10.060  -1.519  21.620  0.00  0.00    -0.302 OA
ATOM     22  H   UNL     1       9.752  -1.467  20.690  0.00  0.00    +0.222 HD
ENDBRANCH  19  21
BRANCH  19  23
ATOM     23  O   UNL     1       8.070   0.837  23.189  0.00  0.00    -0.186 OA
BRANCH  23  24
ATOM     24  P   UNL     1       6.728   0.422  23.899  0.00  0.00    +0.481 P 
ATOM     25  O   UNL     1       5.664   1.455  23.969  0.00  0.00    -0.227 OA
BRANCH  24  26
ATOM     26  O   UNL     1       7.218  -0.158  25.304  0.00  0.00    -0.302 OA
ATOM     27  H   UNL     1       7.255   0.530  25.995  0.00  0.00    +0.222 HD
ENDBRANCH  24  26
BRANCH  24  28
ATOM     28  O   UNL     1       6.361  -0.940  23.147  0.00  0.00    -0.302 OA
ATOM     29  H   UNL     1       7.093  -1.208  22.561  0.00  0.00    +0.222 HD
ENDBRANCH  24  28
ENDBRANCH  23  24
ENDBRANCH  19  23
ENDBRANCH  18  19
ENDBRANCH  17  18
ENDBRANCH   2  17
TORSDOF 10
ENDMDL
MODEL 3
REMARK VINA RESULT:      -6.2      3.684      7.292
REMARK  Name = 
REMARK  10 active torsions:
REMARK  status: ('A' for Active; 'I' for Inactive)
REMARK    1  A    between atoms: O_1  and  C_2
REMARK    2  A    between atoms: C_5  and  N_20
REMARK    3  A    between atoms: C_8  and  C_10
REMARK    4  A    between atoms: C_10  and  O_11
REMARK    5  A    between atoms: O_11  and  P_12
REMARK    6  A    between atoms: P_12  and  O_13
REMARK    7  A    between atoms: P_12  and  O_15
REMARK    8  A    between atoms: O_15  and  P_16
REMARK    9  A    between atoms: P_16  and  O_17
REMARK   10  A    between atoms: P_16  and  O_18
REMARK                            x       y       z     vdW  Elec       q    Type
REMARK                         _______ _______ _______ _____ _____    ______ ____
ROOT
ATOM      1  C   UNL     1       9.714  -0.392  25.243  0.00  0.00    +0.150 C 
ATOM      2  C   UNL     1       9.068  -1.297  24.191  0.00  0.00    +0.175 C 
ATOM      3  O   UNL     1       9.424  -0.766  22.892  0.00  0.00    -0.348 OA
ATOM      4  C   UNL     1      10.143   0.469  23.074  0.00  0.00    +0.226 C 
ATOM      5  C   UNL     1      10.772   0.347  24.459  0.00  0.00    +0.088 C 
ENDROOT
BRANCH   4   6
ATOM      6  N   UNL     1       9.240   1.618  22.900  0.00  0.00    -0.274 N 
ATOM      7  C   UNL     1       9.778   2.888  23.109  0.00  0.00    +0.331 A 
ATOM      8  O   UNL     1      10.946   3.096  23.432  0.00  0.00    -0.246 OA
ATOM      9  N   UNL     1       8.918   3.938  22.922  0.00  0.00    -0.275 N 
ATOM     10  H   UNL     1       9.293   4.863  23.068  0.00  0.00    +0.173 HD
ATOM     11  C   UNL     1       7.662   3.862  22.398  0.00  0.00    +0.254 A 
ATOM     12  O   UNL     1       6.984   4.849  22.133  0.00  0.00    -0.268 OA
ATOM     13  C   UNL     1       7.164   2.507  22.135  0.00  0.00    +0.088 A 
ATOM     14  C   UNL     1       7.963   1.467  22.382  0.00  0.00    +0.098 A 
ENDBRANCH   4   6
BRANCH   1  15
ATOM     15  O   UNL     1       8.773   0.544  25.774  0.00  0.00    -0.389 OA
ATOM     16  H   UNL     1       8.341   0.148  26.552  0.00  0.00    +0.210 HD
ENDBRANCH   1  15
BRANCH   2  17
ATOM     17  C   UNL     1       9.538  -2.747  24.265  0.00  0.00    +0.206 C 
BRANCH  17  18
ATOM     18  O   UNL     1       9.003  -3.381  25.418  0.00  0.00    -0.284 OA
BRANCH  18  19
ATOM     19  P   UNL     1       8.838  -5.009  25.307  0.00  0.00    +0.483 P 
ATOM     20  O   UNL     1       8.612  -5.356  23.836  0.00  0.00    -0.227 OA
BRANCH  19  21
ATOM     21  O   UNL     1      10.538  -5.148  25.018  0.00  0.00    -0.302 OA
ATOM     22  H   UNL     1      10.915  -4.548  25.697  0.00  0.00    +0.222 HD
ENDBRANCH  19  21
BRANCH  19  23
ATOM     23  O   UNL     1       7.138  -4.870  25.596  0.00  0.00    -0.186 OA
BRANCH  23  24
ATOM     24  P   UNL     1       6.512  -5.298  26.975  0.00  0.00    +0.481 P 
ATOM     25  O   UNL     1       5.793  -4.244  27.736  0.00  0.00    -0.227 OA
BRANCH  24  26
ATOM     26  O   UNL     1       7.735  -5.985  27.738  0.00  0.00    -0.302 OA
ATOM     27  H   UNL     1       8.462  -5.359  27.912  0.00  0.00    +0.222 HD
ENDBRANCH  24  26
BRANCH  24  28
ATOM     28  O   UNL     1       5.670  -6.595  26.571  0.00  0.00    -0.302 OA
ATOM     29  H   UNL     1       5.831  -6.822  25.636  0.00  0.00    +0.222 HD
ENDBRANCH  24  28
ENDBRANCH  23  24
ENDBRANCH  19  23
ENDBRANCH  18  19
ENDBRANCH  17  18
ENDBRANCH   2  17
TORSDOF 10
ENDMDL
MODEL 4
REMARK VINA RESULT:      -6.2      3.143      6.749
REMARK  Name = 
REMARK  10 active torsions:
REMARK  status: ('A' for Active; 'I' for Inactive)
REMARK    1  A    between atoms: O_1  and  C_2
REMARK    2  A    between atoms: C_5  and  N_20
REMARK    3  A    between atoms: C_8  and  C_10
REMARK    4  A    between atoms: C_10  and  O_11
REMARK    5  A    between atoms: O_11  and  P_12
REMARK    6  A    between atoms: P_12  and  O_13
REMARK    7  A    between atoms: P_12  and  O_15
REMARK    8  A    between atoms: O_15  and  P_16
REMARK    9  A    between atoms: P_16  and  O_17
REMARK   10  A    between atoms: P_16  and  O_18
REMARK                            x       y       z     vdW  Elec       q    Type
REMARK                         _______ _______ _______ _____ _____    ______ ____
ROOT
ATOM      1  C   UNL     1       9.791  -0.986  25.173  0.00  0.00    +0.150 C 
ATOM      2  C   UNL     1       8.362  -1.368  25.568  0.00  0.00    +0.175 C 
ATOM      3  O   UNL     1       7.572  -1.386  24.355  0.00  0.00    -0.348 OA
ATOM      4  C   UNL     1       8.388  -0.924  23.260  0.00  0.00    +0.226 C 
ATOM      5  C   UNL     1       9.818  -1.243  23.685  0.00  0.00    +0.088 C 
ENDROOT
BRANCH   4   6
ATOM      6  N   UNL     1       8.123   0.498  22.988  0.00  0.00    -0.274 N 
ATOM      7  C   UNL     1       8.779   1.071  21.900  0.00  0.00    +0.331 A 
ATOM      8  O   UNL     1       9.561   0.465  21.170  0.00  0.00    -0.246 OA
ATOM      9  N   UNL     1       8.498   2.391  21.661  0.00  0.00    -0.275 N 
ATOM     10  H   UNL     1       8.965   2.819  20.877  0.00  0.00    +0.173 HD
ATOM     11  C   UNL     1       7.530   3.128  22.275  0.00  0.00    +0.254 A 
ATOM     12  O   UNL     1       7.235   4.268  21.932  0.00  0.00    -0.268 OA
ATOM     13  C   UNL     1       6.822   2.460  23.373  0.00  0.00    +0.088 A 
ATOM     14  C   UNL     1       7.136   1.196  23.667  0.00  0.00    +0.098 A 
ENDBRANCH   4   6
BRANCH   1  15
ATOM     15  O   UNL     1      10.047   0.399  25.422  0.00  0.00    -0.389 OA
ATOM     16  H   UNL     1       9.761   0.916  24.648  0.00  0.00    +0.210 HD
ENDBRANCH   1  15
BRANCH   2  17
ATOM     17  C   UNL     1       8.261  -2.739  26.229  0.00  0.00    +0.206 C 
BRANCH  17  18
ATOM     18  O   UNL     1       7.670  -3.675  25.339  0.00  0.00    -0.284 OA
BRANCH  18  19
ATOM     19  P   UNL     1       8.579  -5.001  25.013  0.00  0.00    +0.483 P 
ATOM     20  O   UNL     1      10.036  -4.553  24.904  0.00  0.00    -0.227 OA
BRANCH  19  21
ATOM     21  O   UNL     1       8.835  -5.225  26.709  0.00  0.00    -0.302 OA
ATOM     22  H   UNL     1       9.276  -4.386  26.966  0.00  0.00    +0.222 HD
ENDBRANCH  19  21
BRANCH  19  23
ATOM     23  O   UNL     1       8.321  -4.777  23.317  0.00  0.00    -0.186 OA
BRANCH  23  24
ATOM     24  P   UNL     1       6.905  -5.016  22.673  0.00  0.00    +0.481 P 
ATOM     25  O   UNL     1       6.878  -5.726  21.369  0.00  0.00    -0.227 OA
BRANCH  24  26
ATOM     26  O   UNL     1       6.247  -3.561  22.678  0.00  0.00    -0.302 OA
ATOM     27  H   UNL     1       6.281  -3.143  23.560  0.00  0.00    +0.222 HD
ENDBRANCH  24  26
BRANCH  24  28
ATOM     28  O   UNL     1       6.101  -5.691  23.877  0.00  0.00    -0.302 OA
ATOM     29  H   UNL     1       6.483  -5.418  24.732  0.00  0.00    +0.222 HD
ENDBRANCH  24  28
ENDBRANCH  23  24
ENDBRANCH  19  23
ENDBRANCH  18  19
ENDBRANCH  17  18
ENDBRANCH   2  17
TORSDOF 10
ENDMDL
MODEL 5
REMARK VINA RESULT:      -6.1      3.634      7.222
REMARK  Name = 
REMARK  10 active torsions:
REMARK  status: ('A' for Active; 'I' for Inactive)
REMARK    1  A    between atoms: O_1  and  C_2
REMARK    2  A    between atoms: C_5  and  N_20
REMARK    3  A    between atoms: C_8  and  C_10
REMARK    4  A    between atoms: C_10  and  O_11
REMARK    5  A    between atoms: O_11  and  P_12
REMARK    6  A    between atoms: P_12  and  O_13
REMARK    7  A    between atoms: P_12  and  O_15
REMARK    8  A    between atoms: O_15  and  P_16
REMARK    9  A    between atoms: P_16  and  O_17
REMARK   10  A    between atoms: P_16  and  O_18
REMARK                            x       y       z     vdW  Elec       q    Type
REMARK                         _______ _______ _______ _____ _____    ______ ____
ROOT
ATOM      1  C   UNL     1       9.698  -0.230  25.374  0.00  0.00    +0.150 C 
ATOM      2  C   UNL     1       9.049  -1.164  24.350  0.00  0.00    +0.175 C 
ATOM      3  O   UNL     1       9.415  -0.680  23.036  0.00  0.00    -0.348 OA
ATOM      4  C   UNL     1      10.145   0.554  23.179  0.00  0.00    +0.226 C 
ATOM      5  C   UNL     1      10.765   0.474  24.571  0.00  0.00    +0.088 C 
ENDROOT
BRANCH   4   6
ATOM      6  N   UNL     1       9.252   1.705  22.962  0.00  0.00    -0.274 N 
ATOM      7  C   UNL     1       9.795   2.975  23.149  0.00  0.00    +0.331 A 
ATOM      8  O   UNL     1      10.958   3.184  23.488  0.00  0.00    -0.246 OA
ATOM      9  N   UNL     1       8.945   4.026  22.922  0.00  0.00    -0.275 N 
ATOM     10  H   UNL     1       9.324   4.951  23.052  0.00  0.00    +0.173 HD
ATOM     11  C   UNL     1       7.698   3.945  22.378  0.00  0.00    +0.254 A 
ATOM     12  O   UNL     1       7.031   4.930  22.078  0.00  0.00    -0.268 OA
ATOM     13  C   UNL     1       7.196   2.587  22.140  0.00  0.00    +0.088 A 
ATOM     14  C   UNL     1       7.984   1.549  22.425  0.00  0.00    +0.098 A 
ENDBRANCH   4   6
BRANCH   1  15
ATOM     15  O   UNL     1       8.762   0.732  25.868  0.00  0.00    -0.389 OA
ATOM     16  H   UNL     1       8.515   0.491  26.779  0.00  0.00    +0.210 HD
ENDBRANCH   1  15
BRANCH   2  17
ATOM     17  C   UNL     1       9.505  -2.614  24.475  0.00  0.00    +0.206 C 
BRANCH  17  18
ATOM     18  O   UNL     1       8.525  -3.384  25.155  0.00  0.00    -0.284 OA
BRANCH  18  19
ATOM     19  P   UNL     1       8.876  -4.978  25.319  0.00  0.00    +0.483 P 
ATOM     20  O   UNL     1      10.378  -5.149  25.098  0.00  0.00    -0.227 OA
BRANCH  19  21
ATOM     21  O   UNL     1       9.211  -4.717  26.996  0.00  0.00    -0.302 OA
ATOM     22  H   UNL     1       8.713  -3.892  27.183  0.00  0.00    +0.222 HD
ENDBRANCH  19  21
BRANCH  19  23
ATOM     23  O   UNL     1       8.540  -5.238  23.642  0.00  0.00    -0.186 OA
BRANCH  23  24
ATOM     24  P   UNL     1       7.062  -5.235  23.100  0.00  0.00    +0.481 P 
ATOM     25  O   UNL     1       6.693  -6.328  22.165  0.00  0.00    -0.227 OA
BRANCH  24  26
ATOM     26  O   UNL     1       6.880  -3.753  22.534  0.00  0.00    -0.302 OA
ATOM     27  H   UNL     1       7.731  -3.342  22.292  0.00  0.00    +0.222 HD
ENDBRANCH  24  26
BRANCH  24  28
ATOM     28  O   UNL     1       6.213  -5.126  24.450  0.00  0.00    -0.302 OA
ATOM     29  H   UNL     1       5.474  -5.762  24.434  0.00  0.00    +0.222 HD
ENDBRANCH  24  28
ENDBRANCH  23  24
ENDBRANCH  19  23
ENDBRANCH  18  19
ENDBRANCH  17  18
ENDBRANCH   2  17
TORSDOF 10
ENDMDL
MODEL 6
REMARK VINA RESULT:      -5.9      2.565      4.046
REMARK  Name = 
REMARK  10 active torsions:
REMARK  status: ('A' for Active; 'I' for Inactive)
REMARK    1  A    between atoms: O_1  and  C_2
REMARK    2  A    between atoms: C_5  and  N_20
REMARK    3  A    between atoms: C_8  and  C_10
REMARK    4  A    between atoms: C_10  and  O_11
REMARK    5  A    between atoms: O_11  and  P_12
REMARK    6  A    between atoms: P_12  and  O_13
REMARK    7  A    between atoms: P_12  and  O_15
REMARK    8  A    between atoms: O_15  and  P_16
REMARK    9  A    between atoms: P_16  and  O_17
REMARK   10  A    between atoms: P_16  and  O_18
REMARK                            x       y       z     vdW  Elec       q    Type
REMARK                         _______ _______ _______ _____ _____    ______ ____
ROOT
ATOM      1  C   UNL     1      10.193  -1.261  22.621  0.00  0.00    +0.150 C 
ATOM      2  C   UNL     1       9.197  -0.214  23.124  0.00  0.00    +0.175 C 
ATOM      3  O   UNL     1       8.408  -0.838  24.165  0.00  0.00    -0.348 OA
ATOM      4  C   UNL     1       8.769  -2.230  24.253  0.00  0.00    +0.226 C 
ATOM      5  C   UNL     1      10.200  -2.290  23.726  0.00  0.00    +0.088 C 
ENDROOT
BRANCH   4   6
ATOM      6  N   UNL     1       7.800  -3.058  23.516  0.00  0.00    -0.274 N 
ATOM      7  C   UNL     1       7.980  -4.440  23.561  0.00  0.00    +0.331 A 
ATOM      8  O   UNL     1       8.895  -4.996  24.167  0.00  0.00    -0.246 OA
ATOM      9  N   UNL     1       7.052  -5.185  22.881  0.00  0.00    -0.275 N 
ATOM     10  H   UNL     1       7.169  -6.186  22.905  0.00  0.00    +0.173 HD
ATOM     11  C   UNL     1       5.902  -4.716  22.322  0.00  0.00    +0.254 A 
ATOM     12  O   UNL     1       5.044  -5.446  21.837  0.00  0.00    -0.268 OA
ATOM     13  C   UNL     1       5.727  -3.259  22.356  0.00  0.00    +0.088 A 
ATOM     14  C   UNL     1       6.659  -2.511  22.950  0.00  0.00    +0.098 A 
ENDBRANCH   4   6
BRANCH   1  15
ATOM     15  O   UNL     1       9.742  -1.869  21.407  0.00  0.00    -0.389 OA
ATOM     16  H   UNL     1       9.908  -2.827  21.455  0.00  0.00    +0.210 HD
ENDBRANCH   1  15
BRANCH   2  17
ATOM     17  C   UNL     1       9.864   1.030  23.703  0.00  0.00    +0.206 C 
BRANCH  17  18
ATOM     18  O   UNL     1       8.940   1.762  24.496  0.00  0.00    -0.284 OA
BRANCH  18  19
ATOM     19  P   UNL     1       8.182   2.995  23.725  0.00  0.00    +0.483 P 
ATOM     20  O   UNL     1       8.575   4.295  24.426  0.00  0.00    -0.227 OA
BRANCH  19  21
ATOM     21  O   UNL     1       9.566   3.193  22.707  0.00  0.00    -0.302 OA
ATOM     22  H   UNL     1       9.627   2.318  22.265  0.00  0.00    +0.222 HD
ENDBRANCH  19  21
BRANCH  19  23
ATOM     23  O   UNL     1       6.797   2.797  24.743  0.00  0.00    -0.186 OA
BRANCH  23  24
ATOM     24  P   UNL     1       5.754   1.648  24.480  0.00  0.00    +0.481 P 
ATOM     25  O   UNL     1       4.320   2.001  24.632  0.00  0.00    -0.227 OA
BRANCH  24  26
ATOM     26  O   UNL     1       6.273   0.459  25.412  0.00  0.00    -0.302 OA
ATOM     27  H   UNL     1       6.052  -0.419  25.049  0.00  0.00    +0.222 HD
ENDBRANCH  24  26
BRANCH  24  28
ATOM     28  O   UNL     1       6.213   1.102  23.050  0.00  0.00    -0.302 OA
ATOM     29  H   UNL     1       5.811   0.230  22.878  0.00  0.00    +0.222 HD
ENDBRANCH  24  28
ENDBRANCH  23  24
ENDBRANCH  19  23
ENDBRANCH  18  19
ENDBRANCH  17  18
ENDBRANCH   2  17
TORSDOF 10
ENDMDL
MODEL 7
REMARK VINA RESULT:      -5.9      3.599      7.424
REMARK  Name = 
REMARK  10 active torsions:
REMARK  status: ('A' for Active; 'I' for Inactive)
REMARK    1  A    between atoms: O_1  and  C_2
REMARK    2  A    between atoms: C_5  and  N_20
REMARK    3  A    between atoms: C_8  and  C_10
REMARK    4  A    between atoms: C_10  and  O_11
REMARK    5  A    between atoms: O_11  and  P_12
REMARK    6  A    between atoms: P_12  and  O_13
REMARK    7  A    between atoms: P_12  and  O_15
REMARK    8  A    between atoms: O_15  and  P_16
REMARK    9  A    between atoms: P_16  and  O_17
REMARK   10  A    between atoms: P_16  and  O_18
REMARK                            x       y       z     vdW  Elec       q    Type
REMARK                         _______ _______ _______ _____ _____    ______ ____
ROOT
ATOM      1  C   UNL     1       9.079  -5.338  25.075  0.00  0.00    +0.150 C 
ATOM      2  C   UNL     1       8.527  -4.708  26.356  0.00  0.00    +0.175 C 
ATOM      3  O   UNL     1       7.565  -3.702  25.959  0.00  0.00    -0.348 OA
ATOM      4  C   UNL     1       7.576  -3.587  24.522  0.00  0.00    +0.226 C 
ATOM      5  C   UNL     1       8.059  -4.948  24.032  0.00  0.00    +0.088 C 
ENDROOT
BRANCH   4   6
ATOM      6  N   UNL     1       8.407  -2.445  24.106  0.00  0.00    -0.274 N 
ATOM      7  C   UNL     1       8.405  -2.117  22.751  0.00  0.00    +0.331 A 
ATOM      8  O   UNL     1       7.762  -2.725  21.896  0.00  0.00    -0.246 OA
ATOM      9  N   UNL     1       9.173  -1.039  22.396  0.00  0.00    -0.275 N 
ATOM     10  H   UNL     1       9.181  -0.789  21.420  0.00  0.00    +0.173 HD
ATOM     11  C   UNL     1       9.789  -0.177  23.254  0.00  0.00    +0.254 A 
ATOM     12  O   UNL     1      10.358   0.845  22.886  0.00  0.00    -0.268 OA
ATOM     13  C   UNL     1       9.709  -0.531  24.677  0.00  0.00    +0.088 A 
ATOM     14  C   UNL     1       9.026  -1.621  25.032  0.00  0.00    +0.098 A 
ENDBRANCH   4   6
BRANCH   1  15
ATOM     15  O   UNL     1      10.351  -4.784  24.728  0.00  0.00    -0.389 OA
ATOM     16  H   UNL     1      11.050  -5.313  25.150  0.00  0.00    +0.210 HD
ENDBRANCH   1  15
BRANCH   2  17
ATOM     17  C   UNL     1       7.829  -5.707  27.273  0.00  0.00    +0.206 C 
BRANCH  17  18
ATOM     18  O   UNL     1       6.752  -5.083  27.956  0.00  0.00    -0.284 OA
BRANCH  18  19
ATOM     19  P   UNL     1       5.714  -6.106  28.708  0.00  0.00    +0.483 P 
ATOM     20  O   UNL     1       6.537  -7.236  29.324  0.00  0.00    -0.227 OA
BRANCH  19  21
ATOM     21  O   UNL     1       5.933  -5.223  30.180  0.00  0.00    -0.302 OA
ATOM     22  H   UNL     1       5.027  -5.218  30.558  0.00  0.00    +0.222 HD
ENDBRANCH  19  21
BRANCH  19  23
ATOM     23  O   UNL     1       5.494  -6.987  27.236  0.00  0.00    -0.186 OA
BRANCH  23  24
ATOM     24  P   UNL     1       4.357  -6.599  26.220  0.00  0.00    +0.481 P 
ATOM     25  O   UNL     1       4.133  -7.529  25.084  0.00  0.00    -0.227 OA
BRANCH  24  26
ATOM     26  O   UNL     1       4.719  -5.096  25.818  0.00  0.00    -0.302 OA
ATOM     27  H   UNL     1       4.636  -4.482  26.571  0.00  0.00    +0.222 HD
ENDBRANCH  24  26
BRANCH  24  28
ATOM     28  O   UNL     1       3.116  -6.337  27.192  0.00  0.00    -0.302 OA
ATOM     29  H   UNL     1       3.147  -6.951  27.949  0.00  0.00    +0.222 HD
ENDBRANCH  24  28
ENDBRANCH  23  24
ENDBRANCH  19  23
ENDBRANCH  18  19
ENDBRANCH  17  18
ENDBRANCH   2  17
TORSDOF 10
ENDMDL
MODEL 8
REMARK VINA RESULT:      -5.8      2.428      3.578
REMARK  Name = 
REMARK  10 active torsions:
REMARK  status: ('A' for Active; 'I' for Inactive)
REMARK    1  A    between atoms: O_1  and  C_2
REMARK    2  A    between atoms: C_5  and  N_20
REMARK    3  A    between atoms: C_8  and  C_10
REMARK    4  A    between atoms: C_10  and  O_11
REMARK    5  A    between atoms: O_11  and  P_12
REMARK    6  A    between atoms: P_12  and  O_13
REMARK    7  A    between atoms: P_12  and  O_15
REMARK    8  A    between atoms: O_15  and  P_16
REMARK    9  A    between atoms: P_16  and  O_17
REMARK   10  A    between atoms: P_16  and  O_18
REMARK                            x       y       z     vdW  Elec       q    Type
REMARK                         _______ _______ _______ _____ _____    ______ ____
ROOT
ATOM      1  C   UNL     1       7.196  -2.145  23.144  0.00  0.00    +0.150 C 
ATOM      2  C   UNL     1       8.099  -2.427  24.347  0.00  0.00    +0.175 C 
ATOM      3  O   UNL     1       8.529  -3.805  24.246  0.00  0.00    -0.348 OA
ATOM      4  C   UNL     1       7.858  -4.423  23.131  0.00  0.00    +0.226 C 
ATOM      5  C   UNL     1       7.531  -3.267  22.191  0.00  0.00    +0.088 C 
ENDROOT
BRANCH   4   6
ATOM      6  N   UNL     1       6.694  -5.194  23.598  0.00  0.00    -0.274 N 
ATOM      7  C   UNL     1       6.042  -5.992  22.658  0.00  0.00    +0.331 A 
ATOM      8  O   UNL     1       6.376  -6.080  21.479  0.00  0.00    -0.246 OA
ATOM      9  N   UNL     1       4.973  -6.712  23.126  0.00  0.00    -0.275 N 
ATOM     10  H   UNL     1       4.492  -7.294  22.459  0.00  0.00    +0.173 HD
ATOM     11  C   UNL     1       4.606  -6.843  24.432  0.00  0.00    +0.254 A 
ATOM     12  O   UNL     1       3.719  -7.603  24.807  0.00  0.00    -0.268 OA
ATOM     13  C   UNL     1       5.364  -6.031  25.391  0.00  0.00    +0.088 A 
ATOM     14  C   UNL     1       6.362  -5.267  24.941  0.00  0.00    +0.098 A 
ENDBRANCH   4   6
BRANCH   1  15
ATOM     15  O   UNL     1       5.814  -2.219  23.501  0.00  0.00    -0.389 OA
ATOM     16  H   UNL     1       5.742  -2.548  24.415  0.00  0.00    +0.210 HD
ENDBRANCH   1  15
BRANCH   2  17
ATOM     17  C   UNL     1       9.337  -1.537  24.399  0.00  0.00    +0.206 C 
BRANCH  17  18
ATOM     18  O   UNL     1       9.139  -0.367  23.619  0.00  0.00    -0.284 OA
BRANCH  18  19
ATOM     19  P   UNL     1       9.064   1.035  24.467  0.00  0.00    +0.483 P 
ATOM     20  O   UNL     1       8.164   0.799  25.679  0.00  0.00    -0.227 OA
BRANCH  19  21
ATOM     21  O   UNL     1      10.401   0.508  25.430  0.00  0.00    -0.302 OA
ATOM     22  H   UNL     1      10.262  -0.464  25.466  0.00  0.00    +0.222 HD
ENDBRANCH  19  21
BRANCH  19  23
ATOM     23  O   UNL     1       7.728   1.562  23.503  0.00  0.00    -0.186 OA
BRANCH  23  24
ATOM     24  P   UNL     1       7.950   2.461  22.230  0.00  0.00    +0.481 P 
ATOM     25  O   UNL     1       6.780   3.243  21.755  0.00  0.00    -0.227 OA
BRANCH  24  26
ATOM     26  O   UNL     1       8.578   1.448  21.168  0.00  0.00    -0.302 OA
ATOM     27  H   UNL     1       8.920   1.906  20.377  0.00  0.00    +0.222 HD
ENDBRANCH  24  26
BRANCH  24  28
ATOM     28  O   UNL     1       9.255   3.290  22.632  0.00  0.00    -0.302 OA
ATOM     29  H   UNL     1       9.011   4.201  22.883  0.00  0.00    +0.222 HD
ENDBRANCH  24  28
ENDBRANCH  23  24
ENDBRANCH  19  23
ENDBRANCH  18  19
ENDBRANCH  17  18
ENDBRANCH   2  17
TORSDOF 10
ENDMDL
MODEL 9
REMARK VINA RESULT:      -5.8      1.561      2.133
REMARK  Name = 
REMARK  10 active torsions:
REMARK  status: ('A' for Active; 'I' for Inactive)
REMARK    1  A    between atoms: O_1  and  C_2
REMARK    2  A    between atoms: C_5  and  N_20
REMARK    3  A    between atoms: C_8  and  C_10
REMARK    4  A    between atoms: C_10  and  O_11
REMARK    5  A    between atoms: O_11  and  P_12
REMARK    6  A    between atoms: P_12  and  O_13
REMARK    7  A    between atoms: P_12  and  O_15
REMARK    8  A    between atoms: O_15  and  P_16
REMARK    9  A    between atoms: P_16  and  O_17
REMARK   10  A    between atoms: P_16  and  O_18
REMARK                            x       y       z     vdW  Elec       q    Type
REMARK                         _______ _______ _______ _____ _____    ______ ____
ROOT
ATOM      1  C   UNL     1       7.076  -2.356  22.602  0.00  0.00    +0.150 C 
ATOM      2  C   UNL     1       6.941  -1.137  23.517  0.00  0.00    +0.175 C 
ATOM      3  O   UNL     1       8.001  -1.220  24.500  0.00  0.00    -0.348 OA
ATOM      4  C   UNL     1       8.702  -2.467  24.326  0.00  0.00    +0.226 C 
ATOM      5  C   UNL     1       8.487  -2.826  22.859  0.00  0.00    +0.088 C 
ENDROOT
BRANCH   4   6
ATOM      6  N   UNL     1       8.216  -3.468  25.289  0.00  0.00    -0.274 N 
ATOM      7  C   UNL     1       8.957  -4.642  25.415  0.00  0.00    +0.331 A 
ATOM      8  O   UNL     1       9.975  -4.886  24.771  0.00  0.00    -0.246 OA
ATOM      9  N   UNL     1       8.490  -5.547  26.333  0.00  0.00    -0.275 N 
ATOM     10  H   UNL     1       9.016  -6.400  26.436  0.00  0.00    +0.173 HD
ATOM     11  C   UNL     1       7.488  -5.332  27.231  0.00  0.00    +0.254 A 
ATOM     12  O   UNL     1       7.196  -6.130  28.115  0.00  0.00    -0.268 OA
ATOM     13  C   UNL     1       6.779  -4.054  27.099  0.00  0.00    +0.088 A 
ATOM     14  C   UNL     1       7.174  -3.191  26.160  0.00  0.00    +0.098 A 
ENDBRANCH   4   6
BRANCH   1  15
ATOM     15  O   UNL     1       6.156  -3.388  22.969  0.00  0.00    -0.389 OA
ATOM     16  H   UNL     1       5.535  -3.034  23.631  0.00  0.00    +0.210 HD
ENDBRANCH   1  15
BRANCH   2  17
ATOM     17  C   UNL     1       7.069   0.193  22.781  0.00  0.00    +0.206 C 
BRANCH  17  18
ATOM     18  O   UNL     1       8.345   0.769  23.020  0.00  0.00    -0.284 OA
BRANCH  18  19
ATOM     19  P   UNL     1       8.470   2.365  22.661  0.00  0.00    +0.483 P 
ATOM     20  O   UNL     1       9.594   2.949  23.516  0.00  0.00    -0.227 OA
BRANCH  19  21
ATOM     21  O   UNL     1       9.657   1.988  21.461  0.00  0.00    -0.302 OA
ATOM     22  H   UNL     1       9.847   1.042  21.645  0.00  0.00    +0.222 HD
ENDBRANCH  19  21
BRANCH  19  23
ATOM     23  O   UNL     1       7.282   2.742  23.861  0.00  0.00    -0.186 OA
BRANCH  23  24
ATOM     24  P   UNL     1       7.672   2.856  25.382  0.00  0.00    +0.481 P 
ATOM     25  O   UNL     1       8.238   4.155  25.828  0.00  0.00    -0.227 OA
BRANCH  24  26
ATOM     26  O   UNL     1       8.602   1.581  25.621  0.00  0.00    -0.302 OA
ATOM     27  H   UNL     1       8.464   1.182  26.501  0.00  0.00    +0.222 HD
ENDBRANCH  24  26
BRANCH  24  28
ATOM     28  O   UNL     1       6.334   2.368  26.107  0.00  0.00    -0.302 OA
ATOM     29  H   UNL     1       6.286   2.738  27.008  0.00  0.00    +0.222 HD
ENDBRANCH  24  28
ENDBRANCH  23  24
ENDBRANCH  19  23
ENDBRANCH  18  19
ENDBRANCH  17  18
ENDBRANCH   2  17
TORSDOF 10
ENDMDL
