MODEL 1
REMARK VINA RESULT:      -6.9      0.000      0.000
REMARK  Name = 
REMARK  12 active torsions:
REMARK  status: ('A' for Active; 'I' for Inactive)
REMARK    1  A    between atoms: N_10  and  C_11
REMARK    2  A    between atoms: C_15  and  C_17
REMARK    3  A    between atoms: C_17  and  O_18
REMARK    4  A    between atoms: O_18  and  P_19
REMARK    5  A    between atoms: P_19  and  O_20
REMARK    6  A    between atoms: P_19  and  O_22
REMARK    7  A    between atoms: O_22  and  P_23
REMARK    8  A    between atoms: P_23  and  O_24
REMARK    9  A    between atoms: P_23  and  O_26
REMARK   10  A    between atoms: O_26  and  P_27
REMARK   11  A    between atoms: P_27  and  O_28
REMARK   12  A    between atoms: P_27  and  O_29
REMARK                            x       y       z     vdW  Elec       q    Type
REMARK                         _______ _______ _______ _____ _____    ______ ____
ROOT
ATOM      1  C   UNL     1       9.410  -2.454  24.541  0.00  0.00    +0.204 C 
ENDROOT
BRANCH   1   4
ATOM      2  C   UNL     1       6.771  -2.644  22.355  0.00  0.00    +0.222 C 
ATOM      3  O   UNL     1       8.179  -2.936  22.503  0.00  0.00    -0.351 OA
ATOM      4  C   UNL     1       8.792  -1.871  23.268  0.00  0.00    +0.147 C 
ATOM      5  C   UNL     1       7.689  -0.863  23.565  0.00  0.00    +0.038 C 
ATOM      6  C   UNL     1       6.438  -1.704  23.498  0.00  0.00    +0.057 C 
BRANCH   2  14
ATOM      7  N   UNL     1       2.789  -7.128  23.094  0.00  0.00    -0.341 N 
ATOM      8  H   UNL     1       3.417  -7.758  22.609  0.00  0.00    +0.144 HD
ATOM      9  H   UNL     1       2.249  -7.497  23.864  0.00  0.00    +0.144 HD
ATOM     10  C   UNL     1       3.362  -5.899  23.398  0.00  0.00    +0.147 A 
ATOM     11  C   UNL     1       4.491  -5.390  22.734  0.00  0.00    +0.147 A 
ATOM     12  N   UNL     1       5.290  -5.892  21.727  0.00  0.00    -0.231 NA
ATOM     13  C   UNL     1       6.179  -4.947  21.503  0.00  0.00    +0.203 A 
ATOM     14  N   UNL     1       6.016  -3.878  22.339  0.00  0.00    -0.288 N 
ATOM     15  C   UNL     1       4.936  -4.142  23.140  0.00  0.00    +0.167 A 
ATOM     16  N   UNL     1       4.414  -3.362  24.099  0.00  0.00    -0.216 NA
ATOM     17  C   UNL     1       3.350  -3.960  24.676  0.00  0.00    +0.225 A 
ATOM     18  N   UNL     1       2.809  -5.164  24.390  0.00  0.00    -0.219 NA
ENDBRANCH   2  14
ENDBRANCH   1   4
BRANCH   1  19
ATOM     19  O   UNL     1       9.650  -3.849  24.351  0.00  0.00    -0.284 OA
BRANCH  19  20
ATOM     20  P   UNL     1       8.795  -4.869  25.456  0.00  0.00    +0.483 P 
ATOM     21  O   UNL     1       9.191  -3.940  26.606  0.00  0.00    -0.227 OA
BRANCH  20  22
ATOM     22  O   UNL     1      10.005  -5.951  25.293  0.00  0.00    -0.302 OA
ATOM     23  H   UNL     1       9.885  -6.718  25.879  0.00  0.00    +0.222 HD
ENDBRANCH  20  22
BRANCH  20  24
ATOM     24  O   UNL     1       7.938  -5.888  26.561  0.00  0.00    -0.186 OA
BRANCH  24  25
ATOM     25  P   UNL     1       6.607  -5.211  27.074  0.00  0.00    +0.492 P 
ATOM     26  O   UNL     1       6.536  -4.976  28.543  0.00  0.00    -0.226 OA
BRANCH  25  27
ATOM     27  O   UNL     1       6.474  -3.824  26.277  0.00  0.00    -0.302 OA
ATOM     28  H   UNL     1       6.013  -3.128  26.784  0.00  0.00    +0.222 HD
ENDBRANCH  25  27
BRANCH  25  29
ATOM     29  O   UNL     1       5.508  -6.104  26.379  0.00  0.00    -0.186 OA
BRANCH  29  30
ATOM     30  P   UNL     1       4.233  -6.493  27.481  0.00  0.00    +0.481 P 
ATOM     31  O   UNL     1       3.091  -6.843  28.467  0.00  0.00    -0.227 OA
BRANCH  30  32
ATOM     32  O   UNL     1       5.271  -7.579  28.126  0.00  0.00    -0.302 OA
ATOM     33  H   UNL     1       4.867  -8.458  28.000  0.00  0.00    +0.222 HD
ENDBRANCH  30  32
BRANCH  30  34
ATOM     34  O   UNL     1       3.709  -7.532  26.322  0.00  0.00    -0.302 OA
ATOM     35  H   UNL     1       4.340  -8.261  26.187  0.00  0.00    +0.222 HD
ENDBRANCH  30  34
ENDBRANCH  29  30
ENDBRANCH  25  29
ENDBRANCH  24  25
ENDBRANCH  20  24
ENDBRANCH  19  20
ENDBRANCH   1  19
TORSDOF 12
ENDMDL
MODEL 2
REMARK VINA RESULT:      -6.9      4.190      6.214
REMARK  Name = 
REMARK  12 active torsions:
REMARK  status: ('A' for Active; 'I' for Inactive)
REMARK    1  A    between atoms: N_10  and  C_11
REMARK    2  A    between atoms: C_15  and  C_17
REMARK    3  A    between atoms: C_17  and  O_18
REMARK    4  A    between atoms: O_18  and  P_19
REMARK    5  A    between atoms: P_19  and  O_20
REMARK    6  A    between atoms: P_19  and  O_22
REMARK    7  A    between atoms: O_22  and  P_23
REMARK    8  A    between atoms: P_23  and  O_24
REMARK    9  A    between atoms: P_23  and  O_26
REMARK   10  A    between atoms: O_26  and  P_27
REMARK   11  A    between atoms: P_27  and  O_28
REMARK   12  A    between atoms: P_27  and  O_29
REMARK                            x       y       z     vdW  Elec       q    Type
REMARK                         _______ _______ _______ _____ _____    ______ ____
ROOT
ATOM      1  C   UNL     1       8.019  -3.099  22.731  0.00  0.00    +0.204 C 
ENDROOT
BRANCH   1   4
ATOM      2  C   UNL     1       5.238  -5.058  23.185  0.00  0.00    +0.222 C 
ATOM      3  O   UNL     1       6.608  -5.076  22.724  0.00  0.00    -0.351 OA
ATOM      4  C   UNL     1       6.876  -3.836  22.028  0.00  0.00    +0.147 C 
ATOM      5  C   UNL     1       5.575  -3.042  22.043  0.00  0.00    +0.038 C 
ATOM      6  C   UNL     1       4.861  -3.590  23.254  0.00  0.00    +0.057 C 
BRANCH   2  14
ATOM      7  N   UNL     1       5.728  -7.184  28.819  0.00  0.00    -0.341 N 
ATOM      8  H   UNL     1       5.137  -7.968  28.568  0.00  0.00    +0.144 HD
ATOM      9  H   UNL     1       6.485  -7.350  29.467  0.00  0.00    +0.144 HD
ATOM     10  C   UNL     1       6.129  -6.422  27.728  0.00  0.00    +0.147 A 
ATOM     11  C   UNL     1       5.455  -6.426  26.496  0.00  0.00    +0.147 A 
ATOM     12  N   UNL     1       4.349  -7.112  26.036  0.00  0.00    -0.231 NA
ATOM     13  C   UNL     1       4.175  -6.678  24.805  0.00  0.00    +0.203 A 
ATOM     14  N   UNL     1       5.133  -5.775  24.437  0.00  0.00    -0.288 N 
ATOM     15  C   UNL     1       5.967  -5.599  25.509  0.00  0.00    +0.167 A 
ATOM     16  N   UNL     1       7.039  -4.795  25.593  0.00  0.00    -0.216 NA
ATOM     17  C   UNL     1       7.612  -4.888  26.812  0.00  0.00    +0.225 A 
ATOM     18  N   UNL     1       7.230  -5.647  27.861  0.00  0.00    -0.219 NA
ENDBRANCH   2  14
ENDBRANCH   1   4
BRANCH   1  19
ATOM     19  O   UNL     1       8.614  -2.176  21.819  0.00  0.00    -0.284 OA
BRANCH  19  20
ATOM     20  P   UNL     1       9.584  -0.960  22.579  0.00  0.00    +0.483 P 
ATOM     21  O   UNL     1      10.795  -1.892  22.503  0.00  0.00    -0.227 OA
BRANCH  20  22
ATOM     22  O   UNL     1       8.813  -1.310  23.973  0.00  0.00    -0.302 OA
ATOM     23  H   UNL     1       8.027  -1.862  23.823  0.00  0.00    +0.222 HD
ENDBRANCH  20  22
BRANCH  20  24
ATOM     24  O   UNL     1      10.553   0.256  23.337  0.00  0.00    -0.186 OA
BRANCH  24  25
ATOM     25  P   UNL     1       9.987   1.706  23.074  0.00  0.00    +0.492 P 
ATOM     26  O   UNL     1      10.731   2.812  23.740  0.00  0.00    -0.226 OA
BRANCH  25  27
ATOM     27  O   UNL     1       9.990   1.908  21.482  0.00  0.00    -0.302 OA
ATOM     28  H   UNL     1       9.740   2.810  21.205  0.00  0.00    +0.222 HD
ENDBRANCH  25  27
BRANCH  25  29
ATOM     29  O   UNL     1       8.453   1.509  23.385  0.00  0.00    -0.186 OA
BRANCH  29  30
ATOM     30  P   UNL     1       8.013   2.281  24.869  0.00  0.00    +0.481 P 
ATOM     31  O   UNL     1       7.620   2.972  26.199  0.00  0.00    -0.227 OA
BRANCH  30  32
ATOM     32  O   UNL     1       8.992   1.191  25.598  0.00  0.00    -0.302 OA
ATOM     33  H   UNL     1       8.555   0.324  25.509  0.00  0.00    +0.222 HD
ENDBRANCH  30  32
BRANCH  30  34
ATOM     34  O   UNL     1       6.719   1.272  24.874  0.00  0.00    -0.302 OA
ATOM     35  H   UNL     1       6.995   0.339  24.907  0.00  0.00    +0.222 HD
ENDBRANCH  30  34
ENDBRANCH  29  30
ENDBRANCH  25  29
ENDBRANCH  24  25
ENDBRANCH  20  24
ENDBRANCH  19  20
ENDBRANCH   1  19
TORSDOF 12
ENDMDL
MODEL 3
REMARK VINA RESULT:      -6.8      4.554      6.456
REMARK  Name = 
REMARK  12 active torsions:
REMARK  status: ('A' for Active; 'I' for Inactive)
REMARK    1  A    between atoms: N_10  and  C_11
REMARK    2  A    between atoms: C_15  and  C_17
REMARK    3  A    between atoms: C_17  and  O_18
REMARK    4  A    between atoms: O_18  and  P_19
REMARK    5  A    between atoms: P_19  and  O_20
REMARK    6  A    between atoms: P_19  and  O_22
REMARK    7  A    between atoms: O_22  and  P_23
REMARK    8  A    between atoms: P_23  and  O_24
REMARK    9  A    between atoms: P_23  and  O_26
REMARK   10  A    between atoms: O_26  and  P_27
REMARK   11  A    between atoms: P_27  and  O_28
REMARK   12  A    between atoms: P_27  and  O_29
REMARK                            x       y       z     vdW  Elec       q    Type
REMARK                         _______ _______ _______ _____ _____    ______ ____
ROOT
ATOM      1  C   UNL     1       9.433  -1.880  24.387  0.00  0.00    +0.204 C 
ENDROOT
BRANCH   1   4
ATOM      2  C   UNL     1       8.667   0.802  22.388  0.00  0.00    +0.222 C 
ATOM      3  O   UNL     1       8.212   0.034  23.525  0.00  0.00    -0.351 OA
ATOM      4  C   UNL     1       8.506  -1.362  23.285  0.00  0.00    +0.147 C 
ATOM      5  C   UNL     1       9.144  -1.438  21.904  0.00  0.00    +0.038 C 
ATOM      6  C   UNL     1       9.728  -0.058  21.727  0.00  0.00    +0.057 C 
BRANCH   2  14
ATOM      7  N   UNL     1       9.286   6.576  24.055  0.00  0.00    -0.341 N 
ATOM      8  H   UNL     1      10.292   6.456  24.076  0.00  0.00    +0.144 HD
ATOM      9  H   UNL     1       8.922   7.464  23.740  0.00  0.00    +0.144 HD
ATOM     10  C   UNL     1       8.612   5.501  23.489  0.00  0.00    +0.147 A 
ATOM     11  C   UNL     1       9.167   4.216  23.376  0.00  0.00    +0.147 A 
ATOM     12  N   UNL     1      10.397   3.694  23.723  0.00  0.00    -0.231 NA
ATOM     13  C   UNL     1      10.322   2.420  23.398  0.00  0.00    +0.203 A 
ATOM     14  N   UNL     1       9.122   2.103  22.827  0.00  0.00    -0.288 N 
ATOM     15  C   UNL     1       8.363   3.244  22.802  0.00  0.00    +0.167 A 
ATOM     16  N   UNL     1       7.113   3.389  22.336  0.00  0.00    -0.216 NA
ATOM     17  C   UNL     1       6.694   4.665  22.481  0.00  0.00    +0.225 A 
ATOM     18  N   UNL     1       7.362   5.710  23.013  0.00  0.00    -0.219 NA
ENDBRANCH   2  14
ENDBRANCH   1   4
BRANCH   1  19
ATOM     19  O   UNL     1       9.835  -3.214  24.076  0.00  0.00    -0.284 OA
BRANCH  19  20
ATOM     20  P   UNL     1       8.860  -4.436  24.818  0.00  0.00    +0.483 P 
ATOM     21  O   UNL     1      10.111  -5.291  25.031  0.00  0.00    -0.227 OA
BRANCH  20  22
ATOM     22  O   UNL     1       8.297  -4.798  23.330  0.00  0.00    -0.302 OA
ATOM     23  H   UNL     1       7.867  -4.032  22.912  0.00  0.00    +0.222 HD
ENDBRANCH  20  22
BRANCH  20  24
ATOM     24  O   UNL     1       7.886  -5.658  25.561  0.00  0.00    -0.186 OA
BRANCH  24  25
ATOM     25  P   UNL     1       6.402  -5.169  25.786  0.00  0.00    +0.492 P 
ATOM     26  O   UNL     1       6.259  -3.768  26.272  0.00  0.00    -0.226 OA
BRANCH  25  27
ATOM     27  O   UNL     1       5.650  -5.354  24.381  0.00  0.00    -0.302 OA
ATOM     28  H   UNL     1       6.234  -5.226  23.608  0.00  0.00    +0.222 HD
ENDBRANCH  25  27
BRANCH  25  29
ATOM     29  O   UNL     1       5.805  -6.350  26.645  0.00  0.00    -0.186 OA
BRANCH  29  30
ATOM     30  P   UNL     1       5.886  -5.995  28.336  0.00  0.00    +0.481 P 
ATOM     31  O   UNL     1       5.959  -5.677  29.850  0.00  0.00    -0.227 OA
BRANCH  30  32
ATOM     32  O   UNL     1       7.506  -6.150  28.178  0.00  0.00    -0.302 OA
ATOM     33  H   UNL     1       7.805  -5.403  27.627  0.00  0.00    +0.222 HD
ENDBRANCH  30  32
BRANCH  30  34
ATOM     34  O   UNL     1       5.653  -7.604  28.564  0.00  0.00    -0.302 OA
ATOM     35  H   UNL     1       6.317  -7.977  29.170  0.00  0.00    +0.222 HD
ENDBRANCH  30  34
ENDBRANCH  29  30
ENDBRANCH  25  29
ENDBRANCH  24  25
ENDBRANCH  20  24
ENDBRANCH  19  20
ENDBRANCH   1  19
TORSDOF 12
ENDMDL
MODEL 4
REMARK VINA RESULT:      -6.8      4.735      6.601
REMARK  Name = 
REMARK  12 active torsions:
REMARK  status: ('A' for Active; 'I' for Inactive)
REMARK    1  A    between atoms: N_10  and  C_11
REMARK    2  A    between atoms: C_15  and  C_17
REMARK    3  A    between atoms: C_17  and  O_18
REMARK    4  A    between atoms: O_18  and  P_19
REMARK    5  A    between atoms: P_19  and  O_20
REMARK    6  A    between atoms: P_19  and  O_22
REMARK    7  A    between atoms: O_22  and  P_23
REMARK    8  A    between atoms: P_23  and  O_24
REMARK    9  A    between atoms: P_23  and  O_26
REMARK   10  A    between atoms: O_26  and  P_27
REMARK   11  A    between atoms: P_27  and  O_28
REMARK   12  A    between atoms: P_27  and  O_29
REMARK                            x       y       z     vdW  Elec       q    Type
REMARK                         _______ _______ _______ _____ _____    ______ ____
ROOT
ATOM      1  C   UNL     1       9.372  -1.608  23.001  0.00  0.00    +0.204 C 
ENDROOT
BRANCH   1   4
ATOM      2  C   UNL     1       9.745   1.779  23.413  0.00  0.00    +0.222 C 
ATOM      3  O   UNL     1       9.962   0.691  22.486  0.00  0.00    -0.351 OA
ATOM      4  C   UNL     1      10.376  -0.476  23.234  0.00  0.00    +0.147 C 
ATOM      5  C   UNL     1      10.446  -0.050  24.695  0.00  0.00    +0.038 C 
ATOM      6  C   UNL     1       9.488   1.114  24.751  0.00  0.00    +0.057 C 
BRANCH   2  14
ATOM      7  N   UNL     1       6.101   6.297  21.737  0.00  0.00    -0.341 N 
ATOM      8  H   UNL     1       5.352   5.632  21.593  0.00  0.00    +0.144 HD
ATOM      9  H   UNL     1       5.862   7.208  22.104  0.00  0.00    +0.144 HD
ATOM     10  C   UNL     1       7.211   5.753  22.373  0.00  0.00    +0.147 A 
ATOM     11  C   UNL     1       7.482   4.375  22.403  0.00  0.00    +0.147 A 
ATOM     12  N   UNL     1       6.811   3.277  21.903  0.00  0.00    -0.231 NA
ATOM     13  C   UNL     1       7.568   2.249  22.222  0.00  0.00    +0.203 A 
ATOM     14  N   UNL     1       8.673   2.624  22.934  0.00  0.00    -0.288 N 
ATOM     15  C   UNL     1       8.638   3.987  23.062  0.00  0.00    +0.167 A 
ATOM     16  N   UNL     1       9.530   4.778  23.680  0.00  0.00    -0.216 NA
ATOM     17  C   UNL     1       9.156   6.073  23.600  0.00  0.00    +0.225 A 
ATOM     18  N   UNL     1       8.066   6.594  23.000  0.00  0.00    -0.219 NA
ENDBRANCH   2  14
ENDBRANCH   1   4
BRANCH   1  19
ATOM     19  O   UNL     1       9.836  -2.790  23.654  0.00  0.00    -0.284 OA
BRANCH  19  20
ATOM     20  P   UNL     1       8.572  -3.787  24.288  0.00  0.00    +0.483 P 
ATOM     21  O   UNL     1       7.849  -3.712  22.942  0.00  0.00    -0.227 OA
BRANCH  20  22
ATOM     22  O   UNL     1       8.078  -2.497  25.156  0.00  0.00    -0.302 OA
ATOM     23  H   UNL     1       8.750  -1.794  25.171  0.00  0.00    +0.222 HD
ENDBRANCH  20  22
BRANCH  20  24
ATOM     24  O   UNL     1       7.310  -4.786  24.922  0.00  0.00    -0.186 OA
BRANCH  24  25
ATOM     25  P   UNL     1       7.370  -4.879  26.497  0.00  0.00    +0.492 P 
ATOM     26  O   UNL     1       8.727  -4.731  27.094  0.00  0.00    -0.226 OA
BRANCH  25  27
ATOM     27  O   UNL     1       6.386  -3.740  27.052  0.00  0.00    -0.302 OA
ATOM     28  H   UNL     1       5.943  -3.982  27.887  0.00  0.00    +0.222 HD
ENDBRANCH  25  27
BRANCH  25  29
ATOM     29  O   UNL     1       6.545  -6.196  26.769  0.00  0.00    -0.186 OA
BRANCH  29  30
ATOM     30  P   UNL     1       5.359  -5.946  28.003  0.00  0.00    +0.481 P 
ATOM     31  O   UNL     1       4.296  -5.722  29.108  0.00  0.00    -0.227 OA
BRANCH  30  32
ATOM     32  O   UNL     1       6.621  -5.698  29.013  0.00  0.00    -0.302 OA
ATOM     33  H   UNL     1       6.249  -5.334  29.838  0.00  0.00    +0.222 HD
ENDBRANCH  30  32
BRANCH  30  34
ATOM     34  O   UNL     1       5.392  -7.575  28.201  0.00  0.00    -0.302 OA
ATOM     35  H   UNL     1       4.536  -7.979  27.976  0.00  0.00    +0.222 HD
ENDBRANCH  30  34
ENDBRANCH  29  30
ENDBRANCH  25  29
ENDBRANCH  24  25
ENDBRANCH  20  24
ENDBRANCH  19  20
ENDBRANCH   1  19
TORSDOF 12
ENDMDL
MODEL 5
REMARK VINA RESULT:      -6.8      3.974      6.184
REMARK  Name = 
REMARK  12 active torsions:
REMARK  status: ('A' for Active; 'I' for Inactive)
REMARK    1  A    between atoms: N_10  and  C_11
REMARK    2  A    between atoms: C_15  and  C_17
REMARK    3  A    between atoms: C_17  and  O_18
REMARK    4  A    between atoms: O_18  and  P_19
REMARK    5  A    between atoms: P_19  and  O_20
REMARK    6  A    between atoms: P_19  and  O_22
REMARK    7  A    between atoms: O_22  and  P_23
REMARK    8  A    between atoms: P_23  and  O_24
REMARK    9  A    between atoms: P_23  and  O_26
REMARK   10  A    between atoms: O_26  and  P_27
REMARK   11  A    between atoms: P_27  and  O_28
REMARK   12  A    between atoms: P_27  and  O_29
REMARK                            x       y       z     vdW  Elec       q    Type
REMARK                         _______ _______ _______ _____ _____    ______ ____
ROOT
ATOM      1  C   UNL     1       7.876  -2.737  26.247  0.00  0.00    +0.204 C 
ENDROOT
BRANCH   1   4
ATOM      2  C   UNL     1       8.916  -1.140  23.392  0.00  0.00    +0.222 C 
ATOM      3  O   UNL     1       7.760  -1.403  24.220  0.00  0.00    -0.351 OA
ATOM      4  C   UNL     1       7.849  -2.760  24.716  0.00  0.00    +0.147 C 
ATOM      5  C   UNL     1       9.118  -3.356  24.120  0.00  0.00    +0.038 C 
ATOM      6  C   UNL     1       9.965  -2.137  23.846  0.00  0.00    +0.057 C 
BRANCH   2  14
ATOM      7  N   UNL     1       9.293   4.890  23.434  0.00  0.00    -0.341 N 
ATOM      8  H   UNL     1      10.278   4.821  23.662  0.00  0.00    +0.144 HD
ATOM      9  H   UNL     1       9.000   5.638  22.821  0.00  0.00    +0.144 HD
ATOM     10  C   UNL     1       8.718   3.673  23.087  0.00  0.00    +0.147 A 
ATOM     11  C   UNL     1       9.270   2.431  23.443  0.00  0.00    +0.147 A 
ATOM     12  N   UNL     1      10.412   2.077  24.132  0.00  0.00    -0.231 NA
ATOM     13  C   UNL     1      10.383   0.762  24.174  0.00  0.00    +0.203 A 
ATOM     14  N   UNL     1       9.299   0.249  23.516  0.00  0.00    -0.288 N 
ATOM     15  C   UNL     1       8.571   1.306  23.037  0.00  0.00    +0.167 A 
ATOM     16  N   UNL     1       7.425   1.264  22.338  0.00  0.00    -0.216 NA
ATOM     17  C   UNL     1       7.002   2.511  22.040  0.00  0.00    +0.225 A 
ATOM     18  N   UNL     1       7.576   3.690  22.362  0.00  0.00    -0.219 NA
ENDBRANCH   2  14
ENDBRANCH   1   4
BRANCH   1  19
ATOM     19  O   UNL     1       8.230  -4.032  26.730  0.00  0.00    -0.284 OA
BRANCH  19  20
ATOM     20  P   UNL     1       6.982  -5.217  26.553  0.00  0.00    +0.483 P 
ATOM     21  O   UNL     1       5.995  -4.266  27.233  0.00  0.00    -0.227 OA
BRANCH  20  22
ATOM     22  O   UNL     1       7.707  -6.065  27.742  0.00  0.00    -0.302 OA
ATOM     23  H   UNL     1       8.332  -5.516  28.247  0.00  0.00    +0.222 HD
ENDBRANCH  20  22
BRANCH  20  24
ATOM     24  O   UNL     1       5.732  -6.401  26.374  0.00  0.00    -0.186 OA
BRANCH  24  25
ATOM     25  P   UNL     1       5.006  -6.282  24.977  0.00  0.00    +0.492 P 
ATOM     26  O   UNL     1       4.188  -7.462  24.581  0.00  0.00    -0.226 OA
BRANCH  25  27
ATOM     27  O   UNL     1       4.091  -4.966  25.057  0.00  0.00    -0.302 OA
ATOM     28  H   UNL     1       3.763  -4.668  24.188  0.00  0.00    +0.222 HD
ENDBRANCH  25  27
BRANCH  25  29
ATOM     29  O   UNL     1       6.188  -5.812  24.044  0.00  0.00    -0.186 OA
BRANCH  29  30
ATOM     30  P   UNL     1       5.619  -4.750  22.803  0.00  0.00    +0.481 P 
ATOM     31  O   UNL     1       5.109  -3.800  21.690  0.00  0.00    -0.227 OA
BRANCH  30  32
ATOM     32  O   UNL     1       4.736  -6.021  22.273  0.00  0.00    -0.302 OA
ATOM     33  H   UNL     1       4.530  -6.562  23.058  0.00  0.00    +0.222 HD
ENDBRANCH  30  32
BRANCH  30  34
ATOM     34  O   UNL     1       6.957  -5.203  21.966  0.00  0.00    -0.302 OA
ATOM     35  H   UNL     1       6.851  -5.043  21.012  0.00  0.00    +0.222 HD
ENDBRANCH  30  34
ENDBRANCH  29  30
ENDBRANCH  25  29
ENDBRANCH  24  25
ENDBRANCH  20  24
ENDBRANCH  19  20
ENDBRANCH   1  19
TORSDOF 12
ENDMDL
MODEL 6
REMARK VINA RESULT:      -6.7      4.488      6.376
REMARK  Name = 
REMARK  12 active torsions:
REMARK  status: ('A' for Active; 'I' for Inactive)
REMARK    1  A    between atoms: N_10  and  C_11
REMARK    2  A    between atoms: C_15  and  C_17
REMARK    3  A    between atoms: C_17  and  O_18
REMARK    4  A    between atoms: O_18  and  P_19
REMARK    5  A    between atoms: P_19  and  O_20
REMARK    6  A    between atoms: P_19  and  O_22
REMARK    7  A    between atoms: O_22  and  P_23
REMARK    8  A    between atoms: P_23  and  O_24
REMARK    9  A    between atoms: P_23  and  O_26
REMARK   10  A    between atoms: O_26  and  P_27
REMARK   11  A    between atoms: P_27  and  O_28
REMARK   12  A    between atoms: P_27  and  O_29
REMARK                            x       y       z     vdW  Elec       q    Type
REMARK                         _______ _______ _______ _____ _____    ______ ____
ROOT
ATOM      1  C   UNL     1       9.507  -2.187  24.437  0.00  0.00    +0.204 C 
ENDROOT
BRANCH   1   4
ATOM      2  C   UNL     1       8.687   0.471  22.428  0.00  0.00    +0.222 C 
ATOM      3  O   UNL     1       8.255  -0.293  23.576  0.00  0.00    -0.351 OA
ATOM      4  C   UNL     1       8.560  -1.688  23.342  0.00  0.00    +0.147 C 
ATOM      5  C   UNL     1       9.182  -1.767  21.954  0.00  0.00    +0.038 C 
ATOM      6  C   UNL     1       9.748  -0.382  21.760  0.00  0.00    +0.057 C 
BRANCH   2  14
ATOM      7  N   UNL     1       9.276   6.277  23.993  0.00  0.00    -0.341 N 
ATOM      8  H   UNL     1      10.281   6.156  24.040  0.00  0.00    +0.144 HD
ATOM      9  H   UNL     1       8.920   7.159  23.651  0.00  0.00    +0.144 HD
ATOM     10  C   UNL     1       8.613   5.192  23.432  0.00  0.00    +0.147 A 
ATOM     11  C   UNL     1       9.169   3.904  23.359  0.00  0.00    +0.147 A 
ATOM     12  N   UNL     1      10.389   3.387  23.745  0.00  0.00    -0.231 NA
ATOM     13  C   UNL     1      10.320   2.107  23.445  0.00  0.00    +0.203 A 
ATOM     14  N   UNL     1       9.133   1.780  22.851  0.00  0.00    -0.288 N 
ATOM     15  C   UNL     1       8.377   2.921  22.785  0.00  0.00    +0.167 A 
ATOM     16  N   UNL     1       7.139   3.059  22.286  0.00  0.00    -0.216 NA
ATOM     17  C   UNL     1       6.719   4.338  22.395  0.00  0.00    +0.225 A 
ATOM     18  N   UNL     1       7.376   5.392  22.922  0.00  0.00    -0.219 NA
ENDBRANCH   2  14
ENDBRANCH   1   4
BRANCH   1  19
ATOM     19  O   UNL     1       9.805  -3.565  24.209  0.00  0.00    -0.284 OA
BRANCH  19  20
ATOM     20  P   UNL     1       8.809  -4.660  25.105  0.00  0.00    +0.483 P 
ATOM     21  O   UNL     1       8.828  -3.692  26.290  0.00  0.00    -0.227 OA
BRANCH  20  22
ATOM     22  O   UNL     1      10.119  -5.618  25.265  0.00  0.00    -0.302 OA
ATOM     23  H   UNL     1      10.156  -6.035  26.144  0.00  0.00    +0.222 HD
ENDBRANCH  20  22
BRANCH  20  24
ATOM     24  O   UNL     1       7.812  -5.753  26.002  0.00  0.00    -0.186 OA
BRANCH  24  25
ATOM     25  P   UNL     1       6.327  -5.231  26.121  0.00  0.00    +0.492 P 
ATOM     26  O   UNL     1       5.922  -4.760  27.475  0.00  0.00    -0.226 OA
BRANCH  25  27
ATOM     27  O   UNL     1       6.180  -4.046  25.048  0.00  0.00    -0.302 OA
ATOM     28  H   UNL     1       6.796  -4.126  24.295  0.00  0.00    +0.222 HD
ENDBRANCH  25  27
BRANCH  25  29
ATOM     29  O   UNL     1       5.522  -6.403  25.437  0.00  0.00    -0.186 OA
BRANCH  29  30
ATOM     30  P   UNL     1       4.698  -5.851  24.020  0.00  0.00    +0.481 P 
ATOM     31  O   UNL     1       3.960  -5.358  22.751  0.00  0.00    -0.227 OA
BRANCH  30  32
ATOM     32  O   UNL     1       4.213  -7.402  23.832  0.00  0.00    -0.302 OA
ATOM     33  H   UNL     1       4.026  -7.744  24.726  0.00  0.00    +0.222 HD
ENDBRANCH  30  32
BRANCH  30  34
ATOM     34  O   UNL     1       6.121  -6.097  23.241  0.00  0.00    -0.302 OA
ATOM     35  H   UNL     1       5.998  -6.619  22.429  0.00  0.00    +0.222 HD
ENDBRANCH  30  34
ENDBRANCH  29  30
ENDBRANCH  25  29
ENDBRANCH  24  25
ENDBRANCH  20  24
ENDBRANCH  19  20
ENDBRANCH   1  19
TORSDOF 12
ENDMDL
MODEL 7
REMARK VINA RESULT:      -6.7      4.929      6.881
REMARK  Name = 
REMARK  12 active torsions:
REMARK  status: ('A' for Active; 'I' for Inactive)
REMARK    1  A    between atoms: N_10  and  C_11
REMARK    2  A    between atoms: C_15  and  C_17
REMARK    3  A    between atoms: C_17  and  O_18
REMARK    4  A    between atoms: O_18  and  P_19
REMARK    5  A    between atoms: P_19  and  O_20
REMARK    6  A    between atoms: P_19  and  O_22
REMARK    7  A    between atoms: O_22  and  P_23
REMARK    8  A    between atoms: P_23  and  O_24
REMARK    9  A    between atoms: P_23  and  O_26
REMARK   10  A    between atoms: O_26  and  P_27
REMARK   11  A    between atoms: P_27  and  O_28
REMARK   12  A    between atoms: P_27  and  O_29
REMARK                            x       y       z     vdW  Elec       q    Type
REMARK                         _______ _______ _______ _____ _____    ______ ____
ROOT
ATOM      1  C   UNL     1       9.515  -1.643  23.207  0.00  0.00    +0.204 C 
ENDROOT
BRANCH   1   4
ATOM      2  C   UNL     1       9.826   1.775  23.150  0.00  0.00    +0.222 C 
ATOM      3  O   UNL     1       9.922   0.586  22.333  0.00  0.00    -0.351 OA
ATOM      4  C   UNL     1      10.501  -0.474  23.129  0.00  0.00    +0.147 C 
ATOM      5  C   UNL     1      10.801   0.127  24.497  0.00  0.00    +0.038 C 
ATOM      6  C   UNL     1       9.823   1.273  24.582  0.00  0.00    +0.057 C 
BRANCH   2  14
ATOM      7  N   UNL     1       5.675   6.000  21.958  0.00  0.00    -0.341 N 
ATOM      8  H   UNL     1       4.998   5.272  21.763  0.00  0.00    +0.144 HD
ATOM      9  H   UNL     1       5.348   6.842  22.411  0.00  0.00    +0.144 HD
ATOM     10  C   UNL     1       6.853   5.525  22.523  0.00  0.00    +0.147 A 
ATOM     11  C   UNL     1       7.271   4.188  22.421  0.00  0.00    +0.147 A 
ATOM     12  N   UNL     1       6.710   3.074  21.832  0.00  0.00    -0.231 NA
ATOM     13  C   UNL     1       7.581   2.109  22.042  0.00  0.00    +0.203 A 
ATOM     14  N   UNL     1       8.657   2.537  22.768  0.00  0.00    -0.288 N 
ATOM     15  C   UNL     1       8.478   3.871  23.024  0.00  0.00    +0.167 A 
ATOM     16  N   UNL     1       9.295   4.695  23.699  0.00  0.00    -0.216 NA
ATOM     17  C   UNL     1       8.782   5.944  23.745  0.00  0.00    +0.225 A 
ATOM     18  N   UNL     1       7.627   6.395  23.213  0.00  0.00    -0.219 NA
ENDBRANCH   2  14
ENDBRANCH   1   4
BRANCH   1  19
ATOM     19  O   UNL     1      10.111  -2.713  23.940  0.00  0.00    -0.284 OA
BRANCH  19  20
ATOM     20  P   UNL     1       8.972  -3.844  24.588  0.00  0.00    +0.483 P 
ATOM     21  O   UNL     1       8.856  -2.989  25.852  0.00  0.00    -0.227 OA
BRANCH  20  22
ATOM     22  O   UNL     1      10.222  -4.864  24.829  0.00  0.00    -0.302 OA
ATOM     23  H   UNL     1      10.779  -4.582  25.575  0.00  0.00    +0.222 HD
ENDBRANCH  20  22
BRANCH  20  24
ATOM     24  O   UNL     1       7.833  -4.974  25.235  0.00  0.00    -0.186 OA
BRANCH  24  25
ATOM     25  P   UNL     1       6.394  -4.775  24.618  0.00  0.00    +0.492 P 
ATOM     26  O   UNL     1       5.261  -4.962  25.567  0.00  0.00    -0.226 OA
BRANCH  25  27
ATOM     27  O   UNL     1       6.370  -3.294  24.001  0.00  0.00    -0.302 OA
ATOM     28  H   UNL     1       7.053  -2.706  24.376  0.00  0.00    +0.222 HD
ENDBRANCH  25  27
BRANCH  25  29
ATOM     29  O   UNL     1       6.475  -5.676  23.325  0.00  0.00    -0.186 OA
BRANCH  29  30
ATOM     30  P   UNL     1       6.062  -4.774  21.909  0.00  0.00    +0.481 P 
ATOM     31  O   UNL     1       5.690  -3.966  20.640  0.00  0.00    -0.227 OA
BRANCH  30  32
ATOM     32  O   UNL     1       4.557  -4.680  22.542  0.00  0.00    -0.302 OA
ATOM     33  H   UNL     1       4.668  -4.495  23.493  0.00  0.00    +0.222 HD
ENDBRANCH  30  32
BRANCH  30  34
ATOM     34  O   UNL     1       5.783  -6.231  21.206  0.00  0.00    -0.302 OA
ATOM     35  H   UNL     1       5.823  -6.172  20.235  0.00  0.00    +0.222 HD
ENDBRANCH  30  34
ENDBRANCH  29  30
ENDBRANCH  25  29
ENDBRANCH  24  25
ENDBRANCH  20  24
ENDBRANCH  19  20
ENDBRANCH   1  19
TORSDOF 12
ENDMDL
MODEL 8
REMARK VINA RESULT:      -6.5      4.511      5.901
REMARK  Name = 
REMARK  12 active torsions:
REMARK  status: ('A' for Active; 'I' for Inactive)
REMARK    1  A    between atoms: N_10  and  C_11
REMARK    2  A    between atoms: C_15  and  C_17
REMARK    3  A    between atoms: C_17  and  O_18
REMARK    4  A    between atoms: O_18  and  P_19
REMARK    5  A    between atoms: P_19  and  O_20
REMARK    6  A    between atoms: P_19  and  O_22
REMARK    7  A    between atoms: O_22  and  P_23
REMARK    8  A    between atoms: P_23  and  O_24
REMARK    9  A    between atoms: P_23  and  O_26
REMARK   10  A    between atoms: O_26  and  P_27
REMARK   11  A    between atoms: P_27  and  O_28
REMARK   12  A    between atoms: P_27  and  O_29
REMARK                            x       y       z     vdW  Elec       q    Type
REMARK                         _______ _______ _______ _____ _____    ______ ____
ROOT
ATOM      1  C   UNL     1      10.144  -1.076  24.121  0.00  0.00    +0.204 C 
ENDROOT
BRANCH   1   4
ATOM      2  C   UNL     1       8.072  -3.762  23.608  0.00  0.00    +0.222 C 
ATOM      3  O   UNL     1       9.443  -3.387  23.866  0.00  0.00    -0.351 OA
ATOM      4  C   UNL     1       9.734  -2.173  23.135  0.00  0.00    +0.147 C 
ATOM      5  C   UNL     1       8.468  -1.819  22.364  0.00  0.00    +0.038 C 
ATOM      6  C   UNL     1       7.384  -2.481  23.178  0.00  0.00    +0.057 C 
BRANCH   2  14
ATOM      7  N   UNL     1       5.020  -7.104  27.611  0.00  0.00    -0.341 N 
ATOM      8  H   UNL     1       5.392  -6.534  28.362  0.00  0.00    +0.144 HD
ATOM      9  H   UNL     1       4.072  -7.442  27.699  0.00  0.00    +0.144 HD
ATOM     10  C   UNL     1       5.278  -6.590  26.346  0.00  0.00    +0.147 A 
ATOM     11  C   UNL     1       6.305  -5.668  26.083  0.00  0.00    +0.147 A 
ATOM     12  N   UNL     1       7.236  -5.049  26.892  0.00  0.00    -0.231 NA
ATOM     13  C   UNL     1       7.953  -4.310  26.070  0.00  0.00    +0.203 A 
ATOM     14  N   UNL     1       7.508  -4.394  24.780  0.00  0.00    -0.288 N 
ATOM     15  C   UNL     1       6.448  -5.262  24.766  0.00  0.00    +0.167 A 
ATOM     16  N   UNL     1       5.714  -5.645  23.709  0.00  0.00    -0.216 NA
ATOM     17  C   UNL     1       4.752  -6.514  24.085  0.00  0.00    +0.225 A 
ATOM     18  N   UNL     1       4.492  -6.994  25.320  0.00  0.00    -0.219 NA
ENDBRANCH   2  14
ENDBRANCH   1   4
BRANCH   1  19
ATOM     19  O   UNL     1      10.466   0.111  23.396  0.00  0.00    -0.284 OA
BRANCH  19  20
ATOM     20  P   UNL     1       9.645   1.527  23.960  0.00  0.00    +0.483 P 
ATOM     21  O   UNL     1      10.951   2.317  23.848  0.00  0.00    -0.227 OA
BRANCH  20  22
ATOM     22  O   UNL     1       9.636   0.851  25.445  0.00  0.00    -0.302 OA
ATOM     23  H   UNL     1      10.450   1.054  25.938  0.00  0.00    +0.222 HD
ENDBRANCH  20  22
BRANCH  20  24
ATOM     24  O   UNL     1       8.824   2.942  24.522  0.00  0.00    -0.186 OA
BRANCH  24  25
ATOM     25  P   UNL     1       7.298   2.934  24.120  0.00  0.00    +0.492 P 
ATOM     26  O   UNL     1       6.506   4.103  24.597  0.00  0.00    -0.226 OA
BRANCH  25  27
ATOM     27  O   UNL     1       7.255   2.843  22.519  0.00  0.00    -0.302 OA
ATOM     28  H   UNL     1       6.543   3.378  22.119  0.00  0.00    +0.222 HD
ENDBRANCH  25  27
BRANCH  25  29
ATOM     29  O   UNL     1       6.864   1.479  24.551  0.00  0.00    -0.186 OA
BRANCH  29  30
ATOM     30  P   UNL     1       5.266   1.475  25.214  0.00  0.00    +0.481 P 
ATOM     31  O   UNL     1       3.835   1.471  25.808  0.00  0.00    -0.227 OA
BRANCH  30  32
ATOM     32  O   UNL     1       5.218  -0.107  24.801  0.00  0.00    -0.302 OA
ATOM     33  H   UNL     1       4.282  -0.320  24.629  0.00  0.00    +0.222 HD
ENDBRANCH  30  32
BRANCH  30  34
ATOM     34  O   UNL     1       4.777   1.980  23.731  0.00  0.00    -0.302 OA
ATOM     35  H   UNL     1       4.823   2.949  23.651  0.00  0.00    +0.222 HD
ENDBRANCH  30  34
ENDBRANCH  29  30
ENDBRANCH  25  29
ENDBRANCH  24  25
ENDBRANCH  20  24
ENDBRANCH  19  20
ENDBRANCH   1  19
TORSDOF 12
ENDMDL
MODEL 9
REMARK VINA RESULT:      -6.5      2.869      5.409
REMARK  Name = 
REMARK  12 active torsions:
REMARK  status: ('A' for Active; 'I' for Inactive)
REMARK    1  A    between atoms: N_10  and  C_11
REMARK    2  A    between atoms: C_15  and  C_17
REMARK    3  A    between atoms: C_17  and  O_18
REMARK    4  A    between atoms: O_18  and  P_19
REMARK    5  A    between atoms: P_19  and  O_20
REMARK    6  A    between atoms: P_19  and  O_22
REMARK    7  A    between atoms: O_22  and  P_23
REMARK    8  A    between atoms: P_23  and  O_24
REMARK    9  A    between atoms: P_23  and  O_26
REMARK   10  A    between atoms: O_26  and  P_27
REMARK   11  A    between atoms: P_27  and  O_28
REMARK   12  A    between atoms: P_27  and  O_29
REMARK                            x       y       z     vdW  Elec       q    Type
REMARK                         _______ _______ _______ _____ _____    ______ ____
ROOT
ATOM      1  C   UNL     1       4.787  -6.286  23.837  0.00  0.00    +0.204 C 
ENDROOT
BRANCH   1   4
ATOM      2  C   UNL     1       7.184  -4.159  22.609  0.00  0.00    +0.222 C 
ATOM      3  O   UNL     1       5.777  -4.266  22.920  0.00  0.00    -0.351 OA
ATOM      4  C   UNL     1       5.330  -5.600  22.581  0.00  0.00    +0.147 C 
ATOM      5  C   UNL     1       6.538  -6.325  21.998  0.00  0.00    +0.038 C 
ATOM      6  C   UNL     1       7.701  -5.585  22.612  0.00  0.00    +0.057 C 
BRANCH   2  14
ATOM      7  N   UNL     1      10.202   0.226  25.466  0.00  0.00    -0.341 N 
ATOM      8  H   UNL     1      10.126  -0.294  26.333  0.00  0.00    +0.144 HD
ATOM      9  H   UNL     1      11.052   0.748  25.300  0.00  0.00    +0.144 HD
ATOM     10  C   UNL     1       9.805  -0.498  24.349  0.00  0.00    +0.147 A 
ATOM     11  C   UNL     1       8.970  -1.626  24.418  0.00  0.00    +0.147 A 
ATOM     12  N   UNL     1       8.383  -2.292  25.475  0.00  0.00    -0.231 NA
ATOM     13  C   UNL     1       7.689  -3.261  24.915  0.00  0.00    +0.203 A 
ATOM     14  N   UNL     1       7.828  -3.275  23.555  0.00  0.00    -0.288 N 
ATOM     15  C   UNL     1       8.649  -2.232  23.214  0.00  0.00    +0.167 A 
ATOM     16  N   UNL     1       9.047  -1.868  21.985  0.00  0.00    -0.216 NA
ATOM     17  C   UNL     1       9.856  -0.788  22.045  0.00  0.00    +0.225 A 
ATOM     18  N   UNL     1      10.255  -0.100  23.136  0.00  0.00    -0.219 NA
ENDBRANCH   2  14
ENDBRANCH   1   4
BRANCH   1  19
ATOM     19  O   UNL     1       3.489  -5.768  24.131  0.00  0.00    -0.284 OA
BRANCH  19  20
ATOM     20  P   UNL     1       3.328  -5.135  25.733  0.00  0.00    +0.483 P 
ATOM     21  O   UNL     1       1.843  -4.877  25.472  0.00  0.00    -0.227 OA
BRANCH  20  22
ATOM     22  O   UNL     1       4.128  -3.809  25.220  0.00  0.00    -0.302 OA
ATOM     23  H   UNL     1       4.848  -4.037  24.605  0.00  0.00    +0.222 HD
ENDBRANCH  20  22
BRANCH  20  24
ATOM     24  O   UNL     1       3.167  -4.503  27.336  0.00  0.00    -0.186 OA
BRANCH  24  25
ATOM     25  P   UNL     1       4.563  -4.093  27.948  0.00  0.00    +0.492 P 
ATOM     26  O   UNL     1       5.018  -2.711  27.628  0.00  0.00    -0.226 OA
BRANCH  25  27
ATOM     27  O   UNL     1       4.431  -4.287  29.536  0.00  0.00    -0.302 OA
ATOM     28  H   UNL     1       3.518  -4.468  29.830  0.00  0.00    +0.222 HD
ENDBRANCH  25  27
BRANCH  25  29
ATOM     29  O   UNL     1       5.464  -5.319  27.534  0.00  0.00    -0.186 OA
BRANCH  29  30
ATOM     30  P   UNL     1       5.970  -6.219  28.921  0.00  0.00    +0.481 P 
ATOM     31  O   UNL     1       6.424  -7.026  30.164  0.00  0.00    -0.227 OA
BRANCH  30  32
ATOM     32  O   UNL     1       7.417  -6.354  28.170  0.00  0.00    -0.302 OA
ATOM     33  H   UNL     1       7.718  -5.445  27.984  0.00  0.00    +0.222 HD
ENDBRANCH  30  32
BRANCH  30  34
ATOM     34  O   UNL     1       5.339  -7.527  28.156  0.00  0.00    -0.302 OA
ATOM     35  H   UNL     1       5.270  -7.380  27.197  0.00  0.00    +0.222 HD
ENDBRANCH  30  34
ENDBRANCH  29  30
ENDBRANCH  25  29
ENDBRANCH  24  25
ENDBRANCH  20  24
ENDBRANCH  19  20
ENDBRANCH   1  19
TORSDOF 12
ENDMDL
