MODEL 1
REMARK VINA RESULT:      -3.5      0.000      0.000
REMARK  Name = 
REMARK  4 active torsions:
REMARK  status: ('A' for Active; 'I' for Inactive)
REMARK    1  A    between atoms: O_1  and  C_2
REMARK    2  A    between atoms: C_2  and  C_3
REMARK    3  A    between atoms: C_3  and  C_5
REMARK    4  A    between atoms: C_5  and  O_6
REMARK                            x       y       z     vdW  Elec       q    Type
REMARK                         _______ _______ _______ _____ _____    ______ ____
ROOT
ATOM      1  C   UNL     1       7.996  -4.929  25.379  0.00  0.00    +0.264 C 
ATOM      2  O   UNL     1       7.284  -5.164  24.407  0.00  0.00    -0.283 OA
ENDROOT
BRANCH   1   3
ATOM      3  C   UNL     1       9.482  -4.736  25.116  0.00  0.00    +0.375 C 
ATOM      4  O   UNL     1       9.917  -3.859  24.399  0.00  0.00    -0.242 OA
BRANCH   3   5
ATOM      5  O   UNL     1      10.208  -5.656  25.779  0.00  0.00    -0.475 OA
ATOM      6  H   UNL     1      10.879  -6.039  25.164  0.00  0.00    +0.296 HD
ENDBRANCH   3   5
ENDBRANCH   1   3
BRANCH   1   7
ATOM      7  C   UNL     1       7.578  -4.805  26.832  0.00  0.00    +0.242 C 
BRANCH   7   8
ATOM      8  O   UNL     1       7.839  -5.966  27.601  0.00  0.00    -0.387 OA
ATOM      9  H   UNL     1       7.878  -6.720  26.987  0.00  0.00    +0.210 HD
ENDBRANCH   7   8
ENDBRANCH   1   7
TORSDOF 4
ENDMDL
MODEL 2
REMARK VINA RESULT:      -3.5     10.586     11.741
REMARK  Name = 
REMARK  4 active torsions:
REMARK  status: ('A' for Active; 'I' for Inactive)
REMARK    1  A    between atoms: O_1  and  C_2
REMARK    2  A    between atoms: C_2  and  C_3
REMARK    3  A    between atoms: C_3  and  C_5
REMARK    4  A    between atoms: C_5  and  O_6
REMARK                            x       y       z     vdW  Elec       q    Type
REMARK                         _______ _______ _______ _____ _____    ______ ____
ROOT
ATOM      1  C   UNL     1      12.205   5.877  23.907  0.00  0.00    +0.264 C 
ATOM      2  O   UNL     1      12.585   6.398  24.952  0.00  0.00    -0.283 OA
ENDROOT
BRANCH   1   3
ATOM      3  C   UNL     1      10.704   5.722  23.718  0.00  0.00    +0.375 C 
ATOM      4  O   UNL     1       9.916   6.623  23.923  0.00  0.00    -0.242 OA
BRANCH   3   5
ATOM      5  O   UNL     1      10.399   4.478  23.304  0.00  0.00    -0.475 OA
ATOM      6  H   UNL     1      11.134   3.867  23.552  0.00  0.00    +0.296 HD
ENDBRANCH   3   5
ENDBRANCH   1   3
BRANCH   1   7
ATOM      7  C   UNL     1      13.055   5.359  22.762  0.00  0.00    +0.242 C 
BRANCH   7   8
ATOM      8  O   UNL     1      14.391   5.065  23.132  0.00  0.00    -0.387 OA
ATOM      9  H   UNL     1      14.972   5.418  22.437  0.00  0.00    +0.210 HD
ENDBRANCH   7   8
ENDBRANCH   1   7
TORSDOF 4
ENDMDL
MODEL 3
REMARK VINA RESULT:      -3.4      5.681      7.059
REMARK  Name = 
REMARK  4 active torsions:
REMARK  status: ('A' for Active; 'I' for Inactive)
REMARK    1  A    between atoms: O_1  and  C_2
REMARK    2  A    between atoms: C_2  and  C_3
REMARK    3  A    between atoms: C_3  and  C_5
REMARK    4  A    between atoms: C_5  and  O_6
REMARK                            x       y       z     vdW  Elec       q    Type
REMARK                         _______ _______ _______ _____ _____    ______ ____
ROOT
ATOM      1  C   UNL     1      10.285   0.366  22.998  0.00  0.00    +0.264 C 
ATOM      2  O   UNL     1      10.742   0.983  23.956  0.00  0.00    -0.283 OA
ENDROOT
BRANCH   1   3
ATOM      3  C   UNL     1       9.696   1.190  21.863  0.00  0.00    +0.375 C 
ATOM      4  O   UNL     1       8.728   0.835  21.222  0.00  0.00    -0.242 OA
BRANCH   3   5
ATOM      5  O   UNL     1      10.390   2.330  21.689  0.00  0.00    -0.475 OA
ATOM      6  H   UNL     1       9.935   2.883  21.009  0.00  0.00    +0.296 HD
ENDBRANCH   3   5
ENDBRANCH   1   3
BRANCH   1   7
ATOM      7  C   UNL     1      10.232  -1.137  22.797  0.00  0.00    +0.242 C 
BRANCH   7   8
ATOM      8  O   UNL     1      10.210  -1.528  21.435  0.00  0.00    -0.387 OA
ATOM      9  H   UNL     1      10.861  -0.980  20.963  0.00  0.00    +0.210 HD
ENDBRANCH   7   8
ENDBRANCH   1   7
TORSDOF 4
ENDMDL
MODEL 4
REMARK VINA RESULT:      -3.4      5.413      6.874
REMARK  Name = 
REMARK  4 active torsions:
REMARK  status: ('A' for Active; 'I' for Inactive)
REMARK    1  A    between atoms: O_1  and  C_2
REMARK    2  A    between atoms: C_2  and  C_3
REMARK    3  A    between atoms: C_3  and  C_5
REMARK    4  A    between atoms: C_5  and  O_6
REMARK                            x       y       z     vdW  Elec       q    Type
REMARK                         _______ _______ _______ _____ _____    ______ ____
ROOT
ATOM      1  C   UNL     1      10.171   0.324  23.076  0.00  0.00    +0.264 C 
ATOM      2  O   UNL     1      10.757   0.214  24.149  0.00  0.00    -0.283 OA
ENDROOT
BRANCH   1   3
ATOM      3  C   UNL     1      10.135  -0.903  22.178  0.00  0.00    +0.375 C 
ATOM      4  O   UNL     1      10.620  -1.970  22.497  0.00  0.00    -0.242 OA
BRANCH   3   5
ATOM      5  O   UNL     1       9.505  -0.631  21.020  0.00  0.00    -0.475 OA
ATOM      6  H   UNL     1       8.659  -0.161  21.217  0.00  0.00    +0.296 HD
ENDBRANCH   3   5
ENDBRANCH   1   3
BRANCH   1   7
ATOM      7  C   UNL     1       9.467   1.549  22.521  0.00  0.00    +0.242 C 
BRANCH   7   8
ATOM      8  O   UNL     1      10.213   2.233  21.529  0.00  0.00    -0.387 OA
ATOM      9  H   UNL     1       9.760   3.074  21.350  0.00  0.00    +0.210 HD
ENDBRANCH   7   8
ENDBRANCH   1   7
TORSDOF 4
ENDMDL
MODEL 5
REMARK VINA RESULT:      -3.2      1.232      2.686
REMARK  Name = 
REMARK  4 active torsions:
REMARK  status: ('A' for Active; 'I' for Inactive)
REMARK    1  A    between atoms: O_1  and  C_2
REMARK    2  A    between atoms: C_2  and  C_3
REMARK    3  A    between atoms: C_3  and  C_5
REMARK    4  A    between atoms: C_5  and  O_6
REMARK                            x       y       z     vdW  Elec       q    Type
REMARK                         _______ _______ _______ _____ _____    ______ ____
ROOT
ATOM      1  C   UNL     1       8.392  -4.498  24.592  0.00  0.00    +0.264 C 
ATOM      2  O   UNL     1       7.442  -5.228  24.326  0.00  0.00    -0.283 OA
ENDROOT
BRANCH   1   3
ATOM      3  C   UNL     1       9.262  -4.899  25.774  0.00  0.00    +0.375 C 
ATOM      4  O   UNL     1       8.990  -4.614  26.922  0.00  0.00    -0.242 OA
BRANCH   3   5
ATOM      5  O   UNL     1      10.339  -5.594  25.361  0.00  0.00    -0.475 OA
ATOM      6  H   UNL     1      10.925  -4.997  24.837  0.00  0.00    +0.296 HD
ENDBRANCH   3   5
ENDBRANCH   1   3
BRANCH   1   7
ATOM      7  C   UNL     1       8.818  -3.227  23.881  0.00  0.00    +0.242 C 
BRANCH   7   8
ATOM      8  O   UNL     1      10.221  -3.028  23.865  0.00  0.00    -0.387 OA
ATOM      9  H   UNL     1      10.494  -2.793  24.769  0.00  0.00    +0.210 HD
ENDBRANCH   7   8
ENDBRANCH   1   7
TORSDOF 4
ENDMDL
MODEL 6
REMARK VINA RESULT:      -3.2      4.635      5.846
REMARK  Name = 
REMARK  4 active torsions:
REMARK  status: ('A' for Active; 'I' for Inactive)
REMARK    1  A    between atoms: O_1  and  C_2
REMARK    2  A    between atoms: C_2  and  C_3
REMARK    3  A    between atoms: C_3  and  C_5
REMARK    4  A    between atoms: C_5  and  O_6
REMARK                            x       y       z     vdW  Elec       q    Type
REMARK                         _______ _______ _______ _____ _____    ______ ____
ROOT
ATOM      1  C   UNL     1      10.350   0.251  23.088  0.00  0.00    +0.264 C 
ATOM      2  O   UNL     1       9.999   0.966  22.155  0.00  0.00    -0.283 OA
ENDROOT
BRANCH   1   3
ATOM      3  C   UNL     1      10.201  -1.251  22.902  0.00  0.00    +0.375 C 
ATOM      4  O   UNL     1      10.051  -2.021  23.829  0.00  0.00    -0.242 OA
BRANCH   3   5
ATOM      5  O   UNL     1      10.258  -1.580  21.597  0.00  0.00    -0.475 OA
ATOM      6  H   UNL     1      10.118  -2.553  21.504  0.00  0.00    +0.296 HD
ENDBRANCH   3   5
ENDBRANCH   1   3
BRANCH   1   7
ATOM      7  C   UNL     1      10.924   0.679  24.426  0.00  0.00    +0.242 C 
BRANCH   7   8
ATOM      8  O   UNL     1      10.105   0.337  25.531  0.00  0.00    -0.387 OA
ATOM      9  H   UNL     1      10.670  -0.104  26.188  0.00  0.00    +0.210 HD
ENDBRANCH   7   8
ENDBRANCH   1   7
TORSDOF 4
ENDMDL
MODEL 7
REMARK VINA RESULT:      -3.2      4.155      5.496
REMARK  Name = 
REMARK  4 active torsions:
REMARK  status: ('A' for Active; 'I' for Inactive)
REMARK    1  A    between atoms: O_1  and  C_2
REMARK    2  A    between atoms: C_2  and  C_3
REMARK    3  A    between atoms: C_3  and  C_5
REMARK    4  A    between atoms: C_5  and  O_6
REMARK                            x       y       z     vdW  Elec       q    Type
REMARK                         _______ _______ _______ _____ _____    ______ ____
ROOT
ATOM      1  C   UNL     1      10.163  -0.575  23.531  0.00  0.00    +0.264 C 
ATOM      2  O   UNL     1      10.830   0.279  24.107  0.00  0.00    -0.283 OA
ENDROOT
BRANCH   1   3
ATOM      3  C   UNL     1       9.944  -0.390  22.037  0.00  0.00    +0.375 C 
ATOM      4  O   UNL     1       9.650   0.677  21.540  0.00  0.00    -0.242 OA
BRANCH   3   5
ATOM      5  O   UNL     1      10.121  -1.552  21.380  0.00  0.00    -0.475 OA
ATOM      6  H   UNL     1      10.988  -1.943  21.645  0.00  0.00    +0.296 HD
ENDBRANCH   3   5
ENDBRANCH   1   3
BRANCH   1   7
ATOM      7  C   UNL     1       9.519  -1.813  24.128  0.00  0.00    +0.242 C 
BRANCH   7   8
ATOM      8  O   UNL     1      10.226  -3.010  23.852  0.00  0.00    -0.387 OA
ATOM      9  H   UNL     1      10.717  -3.252  24.656  0.00  0.00    +0.210 HD
ENDBRANCH   7   8
ENDBRANCH   1   7
TORSDOF 4
ENDMDL
MODEL 8
REMARK VINA RESULT:      -3.2      1.237      2.059
REMARK  Name = 
REMARK  4 active torsions:
REMARK  status: ('A' for Active; 'I' for Inactive)
REMARK    1  A    between atoms: O_1  and  C_2
REMARK    2  A    between atoms: C_2  and  C_3
REMARK    3  A    between atoms: C_3  and  C_5
REMARK    4  A    between atoms: C_5  and  O_6
REMARK                            x       y       z     vdW  Elec       q    Type
REMARK                         _______ _______ _______ _____ _____    ______ ____
ROOT
ATOM      1  C   UNL     1       8.138  -4.968  26.346  0.00  0.00    +0.264 C 
ATOM      2  O   UNL     1       7.627  -5.894  26.968  0.00  0.00    -0.283 OA
ENDROOT
BRANCH   1   3
ATOM      3  C   UNL     1       9.146  -5.333  25.267  0.00  0.00    +0.375 C 
ATOM      4  O   UNL     1       8.846  -5.453  24.096  0.00  0.00    -0.242 OA
BRANCH   3   5
ATOM      5  O   UNL     1      10.374  -5.495  25.794  0.00  0.00    -0.475 OA
ATOM      6  H   UNL     1      10.293  -5.958  26.662  0.00  0.00    +0.296 HD
ENDBRANCH   3   5
ENDBRANCH   1   3
BRANCH   1   7
ATOM      7  C   UNL     1       7.887  -3.481  26.516  0.00  0.00    +0.242 C 
BRANCH   7   8
ATOM      8  O   UNL     1       8.724  -2.668  25.712  0.00  0.00    -0.387 OA
ATOM      9  H   UNL     1       8.738  -1.780  26.108  0.00  0.00    +0.210 HD
ENDBRANCH   7   8
ENDBRANCH   1   7
TORSDOF 4
ENDMDL
MODEL 9
REMARK VINA RESULT:      -3.1      5.334      6.741
REMARK  Name = 
REMARK  4 active torsions:
REMARK  status: ('A' for Active; 'I' for Inactive)
REMARK    1  A    between atoms: O_1  and  C_2
REMARK    2  A    between atoms: C_2  and  C_3
REMARK    3  A    between atoms: C_3  and  C_5
REMARK    4  A    between atoms: C_5  and  O_6
REMARK                            x       y       z     vdW  Elec       q    Type
REMARK                         _______ _______ _______ _____ _____    ______ ____
ROOT
ATOM      1  C   UNL     1      10.301   0.665  23.443  0.00  0.00    +0.264 C 
ATOM      2  O   UNL     1      10.985   1.507  24.016  0.00  0.00    -0.283 OA
ENDROOT
BRANCH   1   3
ATOM      3  C   UNL     1       9.910   0.956  22.002  0.00  0.00    +0.375 C 
ATOM      4  O   UNL     1       9.419   0.122  21.269  0.00  0.00    -0.242 OA
BRANCH   3   5
ATOM      5  O   UNL     1      10.184   2.235  21.680  0.00  0.00    -0.475 OA
ATOM      6  H   UNL     1       9.697   2.832  22.297  0.00  0.00    +0.296 HD
ENDBRANCH   3   5
ENDBRANCH   1   3
BRANCH   1   7
ATOM      7  C   UNL     1       9.787  -0.652  23.995  0.00  0.00    +0.242 C 
BRANCH   7   8
ATOM      8  O   UNL     1      10.250  -1.786  23.283  0.00  0.00    -0.387 OA
ATOM      9  H   UNL     1      10.547  -2.442  23.937  0.00  0.00    +0.210 HD
ENDBRANCH   7   8
ENDBRANCH   1   7
TORSDOF 4
ENDMDL
