MODEL 1
REMARK VINA RESULT:      -6.4      0.000      0.000
REMARK  Name = 
REMARK  2 active torsions:
REMARK  status: ('A' for Active; 'I' for Inactive)
REMARK    1  A    between atoms: O_1  and  C_2
REMARK    2  A    between atoms: C_6  and  C_10
REMARK                            x       y       z     vdW  Elec       q    Type
REMARK                         _______ _______ _______ _____ _____    ______ ____
ROOT
ATOM      1  C   UNL     1       6.011  -5.570  23.561  0.00  0.00    +0.145 A 
ATOM      2  C   UNL     1       6.258  -4.910  24.765  0.00  0.00    +0.061 A 
ATOM      3 BR   UNL     1       5.643  -5.598  26.422  0.00  0.00    -0.046 Br
ATOM      4  C   UNL     1       6.976  -3.710  24.774  0.00  0.00    +0.032 A 
ATOM      5  C   UNL     1       7.458  -3.153  23.579  0.00  0.00    +0.039 A 
ATOM      6  C   UNL     1       7.205  -3.823  22.372  0.00  0.00    +0.032 A 
ATOM      7  C   UNL     1       6.487  -5.023  22.367  0.00  0.00    +0.061 A 
ATOM      8 BR   UNL     1       6.170  -5.892  20.712  0.00  0.00    -0.046 Br
ENDROOT
BRANCH   5   9
ATOM      9  C   UNL     1       8.210  -1.899  23.572  0.00  0.00    +0.228 A 
ATOM     10  O   UNL     1       8.325  -1.266  22.359  0.00  0.00    -0.435 OA
ATOM     11  C   UNL     1       9.055  -0.151  22.635  0.00  0.00    +0.156 A 
ATOM     12  C   UNL     1       9.452   0.835  21.740  0.00  0.00    +0.048 A 
ATOM     13  C   UNL     1      10.200   1.883  22.288  0.00  0.00    +0.004 A 
ATOM     14  C   UNL     1      10.518   1.917  23.652  0.00  0.00    +0.002 A 
ATOM     15  C   UNL     1      10.096   0.898  24.523  0.00  0.00    +0.031 A 
ATOM     16  C   UNL     1       9.346  -0.157  23.988  0.00  0.00    +0.110 A 
ATOM     17  N   UNL     1       8.803  -1.275  24.575  0.00  0.00    -0.209 NA
ENDBRANCH   5   9
BRANCH   1  18
ATOM     18  O   UNL     1       5.307  -6.745  23.570  0.00  0.00    -0.505 OA
ATOM     19  H   UNL     1       5.900  -7.450  23.889  0.00  0.00    +0.292 HD
ENDBRANCH   1  18
TORSDOF 2
ENDMDL
MODEL 2
REMARK VINA RESULT:      -6.4      0.033      2.227
REMARK  Name = 
REMARK  2 active torsions:
REMARK  status: ('A' for Active; 'I' for Inactive)
REMARK    1  A    between atoms: O_1  and  C_2
REMARK    2  A    between atoms: C_6  and  C_10
REMARK                            x       y       z     vdW  Elec       q    Type
REMARK                         _______ _______ _______ _____ _____    ______ ____
ROOT
ATOM      1  C   UNL     1       6.009  -5.575  23.568  0.00  0.00    +0.145 A 
ATOM      2  C   UNL     1       6.492  -5.056  22.366  0.00  0.00    +0.061 A 
ATOM      3 BR   UNL     1       6.190  -5.934  20.712  0.00  0.00    -0.046 Br
ATOM      4  C   UNL     1       7.216  -3.860  22.357  0.00  0.00    +0.032 A 
ATOM      5  C   UNL     1       7.469  -3.165  23.550  0.00  0.00    +0.039 A 
ATOM      6  C   UNL     1       6.981  -3.694  24.754  0.00  0.00    +0.032 A 
ATOM      7  C   UNL     1       6.257  -4.889  24.760  0.00  0.00    +0.061 A 
ATOM      8 BR   UNL     1       5.618  -5.564  26.413  0.00  0.00    -0.046 Br
ENDROOT
BRANCH   5   9
ATOM      9  C   UNL     1       8.226  -1.914  23.556  0.00  0.00    +0.228 A 
ATOM     10  O   UNL     1       8.336  -1.265  22.351  0.00  0.00    -0.435 OA
ATOM     11  C   UNL     1       9.072  -0.157  22.637  0.00  0.00    +0.156 A 
ATOM     12  C   UNL     1       9.467   0.840  21.753  0.00  0.00    +0.048 A 
ATOM     13  C   UNL     1      10.224   1.877  22.310  0.00  0.00    +0.004 A 
ATOM     14  C   UNL     1      10.551   1.891  23.672  0.00  0.00    +0.002 A 
ATOM     15  C   UNL     1      10.131   0.862  24.532  0.00  0.00    +0.031 A 
ATOM     16  C   UNL     1       9.372  -0.183  23.988  0.00  0.00    +0.110 A 
ATOM     17  N   UNL     1       8.828  -1.306  24.563  0.00  0.00    -0.209 NA
ENDBRANCH   5   9
BRANCH   1  18
ATOM     18  O   UNL     1       5.301  -6.747  23.560  0.00  0.00    -0.505 OA
ATOM     19  H   UNL     1       4.578  -6.658  22.912  0.00  0.00    +0.292 HD
ENDBRANCH   1  18
TORSDOF 2
ENDMDL
MODEL 3
REMARK VINA RESULT:      -6.1      4.973      8.039
REMARK  Name = 
REMARK  2 active torsions:
REMARK  status: ('A' for Active; 'I' for Inactive)
REMARK    1  A    between atoms: O_1  and  C_2
REMARK    2  A    between atoms: C_6  and  C_10
REMARK                            x       y       z     vdW  Elec       q    Type
REMARK                         _______ _______ _______ _____ _____    ______ ____
ROOT
ATOM      1  C   UNL     1       9.928   5.135  23.880  0.00  0.00    +0.145 A 
ATOM      2  C   UNL     1      11.021   4.330  23.559  0.00  0.00    +0.061 A 
ATOM      3 BR   UNL     1      12.656   5.070  22.943  0.00  0.00    -0.046 Br
ATOM      4  C   UNL     1      10.933   2.941  23.688  0.00  0.00    +0.032 A 
ATOM      5  C   UNL     1       9.749   2.335  24.140  0.00  0.00    +0.039 A 
ATOM      6  C   UNL     1       8.654   3.153  24.460  0.00  0.00    +0.032 A 
ATOM      7  C   UNL     1       8.747   4.541  24.331  0.00  0.00    +0.061 A 
ATOM      8 BR   UNL     1       7.240   5.604  24.776  0.00  0.00    -0.046 Br
ENDROOT
BRANCH   5   9
ATOM      9  C   UNL     1       9.641   0.884  24.279  0.00  0.00    +0.228 A 
ATOM     10  O   UNL     1       8.964   0.428  25.383  0.00  0.00    -0.435 OA
ATOM     11  C   UNL     1       9.014  -0.927  25.266  0.00  0.00    +0.156 A 
ATOM     12  C   UNL     1       8.470  -1.865  26.136  0.00  0.00    +0.048 A 
ATOM     13  C   UNL     1       8.665  -3.204  25.779  0.00  0.00    +0.004 A 
ATOM     14  C   UNL     1       9.365  -3.555  24.617  0.00  0.00    +0.002 A 
ATOM     15  C   UNL     1       9.898  -2.574  23.765  0.00  0.00    +0.031 A 
ATOM     16  C   UNL     1       9.711  -1.229  24.109  0.00  0.00    +0.110 A 
ATOM     17  N   UNL     1      10.106  -0.068  23.488  0.00  0.00    -0.209 NA
ENDBRANCH   5   9
BRANCH   1  18
ATOM     18  O   UNL     1      10.032   6.495  23.749  0.00  0.00    -0.505 OA
ATOM     19  H   UNL     1      10.304   6.861  24.610  0.00  0.00    +0.292 HD
ENDBRANCH   1  18
TORSDOF 2
ENDMDL
MODEL 4
REMARK VINA RESULT:      -6.0      1.077      1.598
REMARK  Name = 
REMARK  2 active torsions:
REMARK  status: ('A' for Active; 'I' for Inactive)
REMARK    1  A    between atoms: O_1  and  C_2
REMARK    2  A    between atoms: C_6  and  C_10
REMARK                            x       y       z     vdW  Elec       q    Type
REMARK                         _______ _______ _______ _____ _____    ______ ____
ROOT
ATOM      1  C   UNL     1       6.174  -5.129  24.523  0.00  0.00    +0.145 A 
ATOM      2  C   UNL     1       6.324  -4.128  25.483  0.00  0.00    +0.061 A 
ATOM      3 BR   UNL     1       5.648  -4.329  27.244  0.00  0.00    -0.046 Br
ATOM      4  C   UNL     1       6.987  -2.940  25.162  0.00  0.00    +0.032 A 
ATOM      5  C   UNL     1       7.510  -2.734  23.875  0.00  0.00    +0.039 A 
ATOM      6  C   UNL     1       7.354  -3.746  22.915  0.00  0.00    +0.032 A 
ATOM      7  C   UNL     1       6.691  -4.933  23.240  0.00  0.00    +0.061 A 
ATOM      8 BR   UNL     1       6.506  -6.271  21.909  0.00  0.00    -0.046 Br
ENDROOT
BRANCH   5   9
ATOM      9  C   UNL     1       8.204  -1.497  23.524  0.00  0.00    +0.228 A 
ATOM     10  O   UNL     1       8.859  -0.857  24.548  0.00  0.00    -0.435 OA
ATOM     11  C   UNL     1       9.406   0.240  23.956  0.00  0.00    +0.156 A 
ATOM     12  C   UNL     1      10.176   1.225  24.564  0.00  0.00    +0.048 A 
ATOM     13  C   UNL     1      10.617   2.252  23.722  0.00  0.00    +0.004 A 
ATOM     14  C   UNL     1      10.293   2.268  22.359  0.00  0.00    +0.002 A 
ATOM     15  C   UNL     1       9.511   1.252  21.785  0.00  0.00    +0.031 A 
ATOM     16  C   UNL     1       9.062   0.217  22.616  0.00  0.00    +0.110 A 
ATOM     17  N   UNL     1       8.297  -0.894  22.352  0.00  0.00    -0.209 NA
ENDBRANCH   5   9
BRANCH   1  18
ATOM     18  O   UNL     1       5.522  -6.288  24.854  0.00  0.00    -0.505 OA
ATOM     19  H   UNL     1       5.206  -6.701  24.030  0.00  0.00    +0.292 HD
ENDBRANCH   1  18
TORSDOF 2
ENDMDL
MODEL 5
REMARK VINA RESULT:      -6.0      5.012      7.957
REMARK  Name = 
REMARK  2 active torsions:
REMARK  status: ('A' for Active; 'I' for Inactive)
REMARK    1  A    between atoms: O_1  and  C_2
REMARK    2  A    between atoms: C_6  and  C_10
REMARK                            x       y       z     vdW  Elec       q    Type
REMARK                         _______ _______ _______ _____ _____    ______ ____
ROOT
ATOM      1  C   UNL     1       9.963   5.231  23.908  0.00  0.00    +0.145 A 
ATOM      2  C   UNL     1       8.779   4.650  24.363  0.00  0.00    +0.061 A 
ATOM      3 BR   UNL     1       7.274   5.701  24.839  0.00  0.00    -0.046 Br
ATOM      4  C   UNL     1       8.677   3.260  24.476  0.00  0.00    +0.032 A 
ATOM      5  C   UNL     1       9.757   2.430  24.137  0.00  0.00    +0.039 A 
ATOM      6  C   UNL     1      10.945   3.023  23.681  0.00  0.00    +0.032 A 
ATOM      7  C   UNL     1      11.043   4.413  23.569  0.00  0.00    +0.061 A 
ATOM      8 BR   UNL     1      12.669   5.167  22.948  0.00  0.00    -0.046 Br
ENDROOT
BRANCH   5   9
ATOM      9  C   UNL     1       9.666   0.976  24.251  0.00  0.00    +0.228 A 
ATOM     10  O   UNL     1       8.957   0.495  25.323  0.00  0.00    -0.435 OA
ATOM     11  C   UNL     1       9.030  -0.858  25.189  0.00  0.00    +0.156 A 
ATOM     12  C   UNL     1       8.470  -1.816  26.025  0.00  0.00    +0.048 A 
ATOM     13  C   UNL     1       8.696  -3.147  25.656  0.00  0.00    +0.004 A 
ATOM     14  C   UNL     1       9.440  -3.471  24.515  0.00  0.00    +0.002 A 
ATOM     15  C   UNL     1       9.989  -2.470  23.696  0.00  0.00    +0.031 A 
ATOM     16  C   UNL     1       9.771  -1.133  24.053  0.00  0.00    +0.110 A 
ATOM     17  N   UNL     1      10.170   0.042  23.463  0.00  0.00    -0.209 NA
ENDBRANCH   5   9
BRANCH   1  18
ATOM     18  O   UNL     1      10.047   6.594  23.803  0.00  0.00    -0.505 OA
ATOM     19  H   UNL     1      10.942   6.863  24.079  0.00  0.00    +0.292 HD
ENDBRANCH   1  18
TORSDOF 2
ENDMDL
MODEL 6
REMARK VINA RESULT:      -6.0      0.967      2.651
REMARK  Name = 
REMARK  2 active torsions:
REMARK  status: ('A' for Active; 'I' for Inactive)
REMARK    1  A    between atoms: O_1  and  C_2
REMARK    2  A    between atoms: C_6  and  C_10
REMARK                            x       y       z     vdW  Elec       q    Type
REMARK                         _______ _______ _______ _____ _____    ______ ____
ROOT
ATOM      1  C   UNL     1       6.285  -5.237  23.871  0.00  0.00    +0.145 A 
ATOM      2  C   UNL     1       6.613  -4.815  22.583  0.00  0.00    +0.061 A 
ATOM      3 BR   UNL     1       6.213  -5.869  21.058  0.00  0.00    -0.046 Br
ATOM      4  C   UNL     1       7.251  -3.586  22.388  0.00  0.00    +0.032 A 
ATOM      5  C   UNL     1       7.571  -2.762  23.478  0.00  0.00    +0.039 A 
ATOM      6  C   UNL     1       7.239  -3.195  24.770  0.00  0.00    +0.032 A 
ATOM      7  C   UNL     1       6.600  -4.423  24.962  0.00  0.00    +0.061 A 
ATOM      8 BR   UNL     1       6.170  -4.965  26.728  0.00  0.00    -0.046 Br
ENDROOT
BRANCH   5   9
ATOM      9  C   UNL     1       8.239  -1.475  23.289  0.00  0.00    +0.228 A 
ATOM     10  O   UNL     1       8.283  -0.647  24.383  0.00  0.00    -0.435 OA
ATOM     11  C   UNL     1       8.945   0.456  23.938  0.00  0.00    +0.156 A 
ATOM     12  C   UNL     1       9.256   1.599  24.665  0.00  0.00    +0.048 A 
ATOM     13  C   UNL     1       9.947   2.592  23.963  0.00  0.00    +0.004 A 
ATOM     14  C   UNL     1      10.296   2.426  22.617  0.00  0.00    +0.002 A 
ATOM     15  C   UNL     1       9.962   1.253  21.919  0.00  0.00    +0.031 A 
ATOM     16  C   UNL     1       9.270   0.249  22.609  0.00  0.00    +0.110 A 
ATOM     17  N   UNL     1       8.815  -0.983  22.206  0.00  0.00    -0.209 NA
ENDBRANCH   5   9
BRANCH   1  18
ATOM     18  O   UNL     1       5.659  -6.443  24.046  0.00  0.00    -0.505 OA
ATOM     19  H   UNL     1       4.781  -6.274  24.432  0.00  0.00    +0.292 HD
ENDBRANCH   1  18
TORSDOF 2
ENDMDL
MODEL 7
REMARK VINA RESULT:      -5.7      3.579      6.737
REMARK  Name = 
REMARK  2 active torsions:
REMARK  status: ('A' for Active; 'I' for Inactive)
REMARK    1  A    between atoms: O_1  and  C_2
REMARK    2  A    between atoms: C_6  and  C_10
REMARK                            x       y       z     vdW  Elec       q    Type
REMARK                         _______ _______ _______ _____ _____    ______ ____
ROOT
ATOM      1  C   UNL     1       8.857   1.907  23.380  0.00  0.00    +0.145 A 
ATOM      2  C   UNL     1       9.512   0.751  23.803  0.00  0.00    +0.061 A 
ATOM      3 BR   UNL     1      11.248   0.812  24.564  0.00  0.00    -0.046 Br
ATOM      4  C   UNL     1       8.891  -0.495  23.674  0.00  0.00    +0.032 A 
ATOM      5  C   UNL     1       7.606  -0.604  23.119  0.00  0.00    +0.039 A 
ATOM      6  C   UNL     1       6.954   0.565  22.696  0.00  0.00    +0.032 A 
ATOM      7  C   UNL     1       7.578   1.809  22.827  0.00  0.00    +0.061 A 
ATOM      8 BR   UNL     1       6.656   3.359  22.241  0.00  0.00    -0.046 Br
ENDROOT
BRANCH   5   9
ATOM      9  C   UNL     1       6.945  -1.900  22.977  0.00  0.00    +0.228 A 
ATOM     10  O   UNL     1       7.656  -2.876  22.325  0.00  0.00    -0.435 OA
ATOM     11  C   UNL     1       6.825  -3.954  22.333  0.00  0.00    +0.156 A 
ATOM     12  C   UNL     1       7.074  -5.210  21.794  0.00  0.00    +0.048 A 
ATOM     13  C   UNL     1       6.044  -6.146  21.941  0.00  0.00    +0.004 A 
ATOM     14  C   UNL     1       4.848  -5.818  22.592  0.00  0.00    +0.002 A 
ATOM     15  C   UNL     1       4.637  -4.534  23.123  0.00  0.00    +0.031 A 
ATOM     16  C   UNL     1       5.660  -3.587  22.984  0.00  0.00    +0.110 A 
ATOM     17  N   UNL     1       5.747  -2.277  23.390  0.00  0.00    -0.209 NA
ENDBRANCH   5   9
BRANCH   1  18
ATOM     18  O   UNL     1       9.478   3.121  23.514  0.00  0.00    -0.505 OA
ATOM     19  H   UNL     1      10.366   2.965  23.884  0.00  0.00    +0.292 HD
ENDBRANCH   1  18
TORSDOF 2
ENDMDL
MODEL 8
REMARK VINA RESULT:      -5.7      4.048      6.828
REMARK  Name = 
REMARK  2 active torsions:
REMARK  status: ('A' for Active; 'I' for Inactive)
REMARK    1  A    between atoms: O_1  and  C_2
REMARK    2  A    between atoms: C_6  and  C_10
REMARK                            x       y       z     vdW  Elec       q    Type
REMARK                         _______ _______ _______ _____ _____    ______ ____
ROOT
ATOM      1  C   UNL     1       8.448   3.365  23.001  0.00  0.00    +0.145 A 
ATOM      2  C   UNL     1       9.661   2.745  23.300  0.00  0.00    +0.061 A 
ATOM      3 BR   UNL     1      11.283   3.725  23.395  0.00  0.00    -0.046 Br
ATOM      4  C   UNL     1       9.706   1.369  23.542  0.00  0.00    +0.032 A 
ATOM      5  C   UNL     1       8.538   0.591  23.487  0.00  0.00    +0.039 A 
ATOM      6  C   UNL     1       7.322   1.223  23.184  0.00  0.00    +0.032 A 
ATOM      7  C   UNL     1       7.281   2.600  22.945  0.00  0.00    +0.061 A 
ATOM      8 BR   UNL     1       5.614   3.408  22.540  0.00  0.00    -0.046 Br
ENDROOT
BRANCH   5   9
ATOM      9  C   UNL     1       8.570  -0.849  23.736  0.00  0.00    +0.228 A 
ATOM     10  O   UNL     1       7.807  -1.626  22.900  0.00  0.00    -0.435 OA
ATOM     11  C   UNL     1       8.016  -2.896  23.345  0.00  0.00    +0.156 A 
ATOM     12  C   UNL     1       7.469  -4.066  22.833  0.00  0.00    +0.048 A 
ATOM     13  C   UNL     1       7.851  -5.245  23.481  0.00  0.00    +0.004 A 
ATOM     14  C   UNL     1       8.729  -5.227  24.572  0.00  0.00    +0.002 A 
ATOM     15  C   UNL     1       9.261  -4.021  25.058  0.00  0.00    +0.031 A 
ATOM     16  C   UNL     1       8.887  -2.831  24.419  0.00  0.00    +0.110 A 
ATOM     17  N   UNL     1       9.233  -1.523  24.659  0.00  0.00    -0.209 NA
ENDBRANCH   5   9
BRANCH   1  18
ATOM     18  O   UNL     1       8.421   4.715  22.768  0.00  0.00    -0.505 OA
ATOM     19  H   UNL     1       7.686   5.095  23.283  0.00  0.00    +0.292 HD
ENDBRANCH   1  18
TORSDOF 2
ENDMDL
MODEL 9
REMARK VINA RESULT:      -5.7      2.120      3.280
REMARK  Name = 
REMARK  2 active torsions:
REMARK  status: ('A' for Active; 'I' for Inactive)
REMARK    1  A    between atoms: O_1  and  C_2
REMARK    2  A    between atoms: C_6  and  C_10
REMARK                            x       y       z     vdW  Elec       q    Type
REMARK                         _______ _______ _______ _____ _____    ______ ____
ROOT
ATOM      1  C   UNL     1       7.839  -4.188  23.652  0.00  0.00    +0.145 A 
ATOM      2  C   UNL     1       7.227  -3.285  22.783  0.00  0.00    +0.061 A 
ATOM      3 BR   UNL     1       5.915  -3.842  21.530  0.00  0.00    -0.046 Br
ATOM      4  C   UNL     1       7.570  -1.930  22.821  0.00  0.00    +0.032 A 
ATOM      5  C   UNL     1       8.533  -1.459  23.727  0.00  0.00    +0.039 A 
ATOM      6  C   UNL     1       9.145  -2.374  24.597  0.00  0.00    +0.032 A 
ATOM      7  C   UNL     1       8.797  -3.728  24.557  0.00  0.00    +0.061 A 
ATOM      8 BR   UNL     1       9.652  -4.927  25.753  0.00  0.00    -0.046 Br
ENDROOT
BRANCH   5   9
ATOM      9  C   UNL     1       8.904  -0.046  23.777  0.00  0.00    +0.228 A 
ATOM     10  O   UNL     1       8.123   0.760  24.568  0.00  0.00    -0.435 OA
ATOM     11  C   UNL     1       8.678   1.996  24.434  0.00  0.00    +0.156 A 
ATOM     12  C   UNL     1       8.257   3.175  25.037  0.00  0.00    +0.048 A 
ATOM     13  C   UNL     1       9.010   4.313  24.728  0.00  0.00    +0.004 A 
ATOM     14  C   UNL     1      10.112   4.247  23.866  0.00  0.00    +0.002 A 
ATOM     15  C   UNL     1      10.504   3.033  23.278  0.00  0.00    +0.031 A 
ATOM     16  C   UNL     1       9.759   1.885  23.577  0.00  0.00    +0.110 A 
ATOM     17  N   UNL     1       9.895   0.581  23.165  0.00  0.00    -0.209 NA
ENDBRANCH   5   9
BRANCH   1  18
ATOM     18  O   UNL     1       7.490  -5.512  23.603  0.00  0.00    -0.505 OA
ATOM     19  H   UNL     1       6.801  -5.617  22.921  0.00  0.00    +0.292 HD
ENDBRANCH   1  18
TORSDOF 2
ENDMDL
