MODEL 1
REMARK VINA RESULT:      -7.5      0.000      0.000
REMARK  Name = 
REMARK  11 active torsions:
REMARK  status: ('A' for Active; 'I' for Inactive)
REMARK    1  A    between atoms: N_10  and  C_11
REMARK    2  A    between atoms: C_14  and  C_16
REMARK    3  A    between atoms: C_16  and  O_17
REMARK    4  A    between atoms: O_17  and  P_18
REMARK    5  A    between atoms: P_18  and  O_19
REMARK    6  A    between atoms: P_18  and  O_20
REMARK    7  A    between atoms: C_22  and  O_24
REMARK    8  A    between atoms: C_25  and  O_27
REMARK    9  A    between atoms: O_27  and  P_28
REMARK   10  A    between atoms: P_28  and  O_29
REMARK   11  A    between atoms: P_28  and  O_30
REMARK                            x       y       z     vdW  Elec       q    Type
REMARK                         _______ _______ _______ _____ _____    ______ ____
ROOT
ATOM      1  C   UNL     1       8.736  -3.258  23.905  0.00  0.00    +0.254 C 
ATOM      2  C   UNL     1       7.635  -3.070  24.971  0.00  0.00    +0.211 C 
ATOM      3  C   UNL     1       6.387  -3.689  24.345  0.00  0.00    +0.179 C 
ATOM      4  C   UNL     1       6.840  -4.220  22.989  0.00  0.00    +0.178 C 
ATOM      5  O   UNL     1       8.276  -4.310  23.034  0.00  0.00    -0.346 OA
ENDROOT
BRANCH   1  13
ATOM      6  N   UNL     1      10.234   2.217  21.770  0.00  0.00    -0.341 N 
ATOM      7  H   UNL     1      10.194   1.852  20.826  0.00  0.00    +0.144 HD
ATOM      8  H   UNL     1      10.929   2.922  21.974  0.00  0.00    +0.144 HD
ATOM      9  C   UNL     1      10.153   1.238  22.752  0.00  0.00    +0.147 A 
ATOM     10  C   UNL     1       9.632  -0.046  22.520  0.00  0.00    +0.147 A 
ATOM     11  N   UNL     1       9.152  -0.660  21.386  0.00  0.00    -0.231 NA
ATOM     12  C   UNL     1       8.822  -1.872  21.773  0.00  0.00    +0.203 A 
ATOM     13  N   UNL     1       9.009  -2.060  23.122  0.00  0.00    -0.285 N 
ATOM     14  C   UNL     1       9.578  -0.910  23.606  0.00  0.00    +0.167 A 
ATOM     15  N   UNL     1       9.985  -0.665  24.864  0.00  0.00    -0.216 NA
ATOM     16  C   UNL     1      10.513   0.581  24.952  0.00  0.00    +0.225 A 
ATOM     17  N   UNL     1      10.612   1.526  23.991  0.00  0.00    -0.219 NA
ENDBRANCH   1  13
BRANCH   3  18
ATOM     18  O   UNL     1       5.406  -2.665  24.169  0.00  0.00    -0.386 OA
ATOM     19  H   UNL     1       4.945  -2.528  25.016  0.00  0.00    +0.210 HD
ENDBRANCH   3  18
BRANCH   2  20
ATOM     20  O   UNL     1       7.915  -3.754  26.213  0.00  0.00    -0.276 OA
BRANCH  20  21
ATOM     21  P   UNL     1       6.912  -5.155  26.372  0.00  0.00    +0.473 P 
ATOM     22  O   UNL     1       6.016  -6.410  26.513  0.00  0.00    -0.228 OA
BRANCH  21  23
ATOM     23  O   UNL     1       6.675  -4.619  27.898  0.00  0.00    -0.303 OA
ATOM     24  H   UNL     1       7.198  -3.797  27.972  0.00  0.00    +0.222 HD
ENDBRANCH  21  23
BRANCH  21  25
ATOM     25  O   UNL     1       8.292  -5.952  26.750  0.00  0.00    -0.303 OA
ATOM     26  H   UNL     1       8.447  -6.672  26.111  0.00  0.00    +0.222 HD
ENDBRANCH  21  25
ENDBRANCH  20  21
ENDBRANCH   2  20
BRANCH   4  27
ATOM     27  C   UNL     1       6.259  -5.580  22.614  0.00  0.00    +0.206 C 
BRANCH  27  28
ATOM     28  O   UNL     1       4.872  -5.388  22.371  0.00  0.00    -0.284 OA
BRANCH  28  29
ATOM     29  P   UNL     1       3.824  -6.010  23.413  0.00  0.00    +0.472 P 
ATOM     30  O   UNL     1       3.327  -5.053  24.432  0.00  0.00    -0.228 OA
BRANCH  29  31
ATOM     31  O   UNL     1       4.628  -7.289  23.922  0.00  0.00    -0.303 OA
ATOM     32  H   UNL     1       5.428  -7.049  24.421  0.00  0.00    +0.222 HD
ENDBRANCH  29  31
BRANCH  29  33
ATOM     33  O   UNL     1       2.762  -6.615  22.387  0.00  0.00    -0.303 OA
ATOM     34  H   UNL     1       2.333  -5.916  21.863  0.00  0.00    +0.222 HD
ENDBRANCH  29  33
ENDBRANCH  28  29
ENDBRANCH  27  28
ENDBRANCH   4  27
TORSDOF 11
ENDMDL
MODEL 2
REMARK VINA RESULT:      -7.5      1.811      3.636
REMARK  Name = 
REMARK  11 active torsions:
REMARK  status: ('A' for Active; 'I' for Inactive)
REMARK    1  A    between atoms: N_10  and  C_11
REMARK    2  A    between atoms: C_14  and  C_16
REMARK    3  A    between atoms: C_16  and  O_17
REMARK    4  A    between atoms: O_17  and  P_18
REMARK    5  A    between atoms: P_18  and  O_19
REMARK    6  A    between atoms: P_18  and  O_20
REMARK    7  A    between atoms: C_22  and  O_24
REMARK    8  A    between atoms: C_25  and  O_27
REMARK    9  A    between atoms: O_27  and  P_28
REMARK   10  A    between atoms: P_28  and  O_29
REMARK   11  A    between atoms: P_28  and  O_30
REMARK                            x       y       z     vdW  Elec       q    Type
REMARK                         _______ _______ _______ _____ _____    ______ ____
ROOT
ATOM      1  C   UNL     1       7.729  -3.390  24.494  0.00  0.00    +0.254 C 
ATOM      2  C   UNL     1       8.635  -4.588  24.137  0.00  0.00    +0.211 C 
ATOM      3  C   UNL     1       8.825  -5.331  25.457  0.00  0.00    +0.179 C 
ATOM      4  C   UNL     1       8.004  -4.550  26.478  0.00  0.00    +0.178 C 
ATOM      5  O   UNL     1       7.082  -3.733  25.735  0.00  0.00    -0.346 OA
ENDROOT
BRANCH   1  13
ATOM      6  N   UNL     1      10.812   1.795  23.868  0.00  0.00    -0.341 N 
ATOM      7  H   UNL     1      10.595   2.032  24.829  0.00  0.00    +0.144 HD
ATOM      8  H   UNL     1      10.858   2.548  23.195  0.00  0.00    +0.144 HD
ATOM      9  C   UNL     1      10.119   0.688  23.394  0.00  0.00    +0.147 A 
ATOM     10  C   UNL     1       9.530  -0.271  24.235  0.00  0.00    +0.147 A 
ATOM     11  N   UNL     1       9.431  -0.366  25.604  0.00  0.00    -0.231 NA
ATOM     12  C   UNL     1       8.749  -1.470  25.817  0.00  0.00    +0.203 A 
ATOM     13  N   UNL     1       8.449  -2.132  24.650  0.00  0.00    -0.285 N 
ATOM     14  C   UNL     1       8.901  -1.345  23.622  0.00  0.00    +0.167 A 
ATOM     15  N   UNL     1       8.774  -1.572  22.301  0.00  0.00    -0.216 NA
ATOM     16  C   UNL     1       9.334  -0.558  21.596  0.00  0.00    +0.225 A 
ATOM     17  N   UNL     1       9.989   0.531  22.057  0.00  0.00    -0.219 NA
ENDBRANCH   1  13
BRANCH   3  18
ATOM     18  O   UNL     1      10.210  -5.295  25.809  0.00  0.00    -0.386 OA
ATOM     19  H   UNL     1      10.739  -5.325  24.991  0.00  0.00    +0.210 HD
ENDBRANCH   3  18
BRANCH   2  20
ATOM     20  O   UNL     1       8.040  -5.493  23.180  0.00  0.00    -0.276 OA
BRANCH  20  21
ATOM     21  P   UNL     1       6.542  -4.856  22.595  0.00  0.00    +0.473 P 
ATOM     22  O   UNL     1       5.201  -4.286  22.071  0.00  0.00    -0.228 OA
BRANCH  21  23
ATOM     23  O   UNL     1       5.866  -5.882  23.673  0.00  0.00    -0.303 OA
ATOM     24  H   UNL     1       5.202  -6.393  23.170  0.00  0.00    +0.222 HD
ENDBRANCH  21  23
BRANCH  21  25
ATOM     25  O   UNL     1       6.655  -5.992  21.421  0.00  0.00    -0.303 OA
ATOM     26  H   UNL     1       5.819  -6.490  21.357  0.00  0.00    +0.222 HD
ENDBRANCH  21  25
ENDBRANCH  20  21
ENDBRANCH   2  20
BRANCH   4  27
ATOM     27  C   UNL     1       7.229  -5.418  27.466  0.00  0.00    +0.206 C 
BRANCH  27  28
ATOM     28  O   UNL     1       6.382  -6.265  26.700  0.00  0.00    -0.284 OA
BRANCH  28  29
ATOM     29  P   UNL     1       4.889  -6.522  27.224  0.00  0.00    +0.472 P 
ATOM     30  O   UNL     1       4.149  -5.294  27.607  0.00  0.00    -0.228 OA
BRANCH  29  31
ATOM     31  O   UNL     1       5.151  -7.615  28.354  0.00  0.00    -0.303 OA
ATOM     32  H   UNL     1       5.007  -8.522  28.033  0.00  0.00    +0.222 HD
ENDBRANCH  29  31
BRANCH  29  33
ATOM     33  O   UNL     1       4.324  -7.373  25.998  0.00  0.00    -0.303 OA
ATOM     34  H   UNL     1       4.996  -7.981  25.645  0.00  0.00    +0.222 HD
ENDBRANCH  29  33
ENDBRANCH  28  29
ENDBRANCH  27  28
ENDBRANCH   4  27
TORSDOF 11
ENDMDL
MODEL 3
REMARK VINA RESULT:      -7.2      1.815      3.656
REMARK  Name = 
REMARK  11 active torsions:
REMARK  status: ('A' for Active; 'I' for Inactive)
REMARK    1  A    between atoms: N_10  and  C_11
REMARK    2  A    between atoms: C_14  and  C_16
REMARK    3  A    between atoms: C_16  and  O_17
REMARK    4  A    between atoms: O_17  and  P_18
REMARK    5  A    between atoms: P_18  and  O_19
REMARK    6  A    between atoms: P_18  and  O_20
REMARK    7  A    between atoms: C_22  and  O_24
REMARK    8  A    between atoms: C_25  and  O_27
REMARK    9  A    between atoms: O_27  and  P_28
REMARK   10  A    between atoms: P_28  and  O_29
REMARK   11  A    between atoms: P_28  and  O_30
REMARK                            x       y       z     vdW  Elec       q    Type
REMARK                         _______ _______ _______ _____ _____    ______ ____
ROOT
ATOM      1  C   UNL     1       7.552  -3.341  23.615  0.00  0.00    +0.254 C 
ATOM      2  C   UNL     1       8.177  -4.741  23.426  0.00  0.00    +0.211 C 
ATOM      3  C   UNL     1       8.636  -5.147  24.824  0.00  0.00    +0.179 C 
ATOM      4  C   UNL     1       8.228  -3.991  25.732  0.00  0.00    +0.178 C 
ATOM      5  O   UNL     1       7.239  -3.228  25.017  0.00  0.00    -0.346 OA
ENDROOT
BRANCH   1  13
ATOM      6  N   UNL     1      10.113   1.871  21.869  0.00  0.00    -0.341 N 
ATOM      7  H   UNL     1      11.019   1.511  22.146  0.00  0.00    +0.144 HD
ATOM      8  H   UNL     1       9.938   2.858  22.000  0.00  0.00    +0.144 HD
ATOM      9  C   UNL     1       9.048   1.075  22.270  0.00  0.00    +0.147 A 
ATOM     10  C   UNL     1       9.185  -0.279  22.618  0.00  0.00    +0.147 A 
ATOM     11  N   UNL     1      10.281  -1.107  22.703  0.00  0.00    -0.231 NA
ATOM     12  C   UNL     1       9.799  -2.264  23.100  0.00  0.00    +0.203 A 
ATOM     13  N   UNL     1       8.430  -2.246  23.221  0.00  0.00    -0.285 N 
ATOM     14  C   UNL     1       8.027  -0.962  22.963  0.00  0.00    +0.167 A 
ATOM     15  N   UNL     1       6.776  -0.470  23.020  0.00  0.00    -0.216 NA
ATOM     16  C   UNL     1       6.777   0.852  22.715  0.00  0.00    +0.225 A 
ATOM     17  N   UNL     1       7.818   1.632  22.346  0.00  0.00    -0.219 NA
ENDBRANCH   1  13
BRANCH   3  18
ATOM     18  O   UNL     1      10.058  -5.288  24.817  0.00  0.00    -0.386 OA
ATOM     19  H   UNL     1      10.280  -6.188  24.518  0.00  0.00    +0.210 HD
ENDBRANCH   3  18
BRANCH   2  20
ATOM     20  O   UNL     1       7.238  -5.729  22.944  0.00  0.00    -0.276 OA
BRANCH  20  21
ATOM     21  P   UNL     1       5.657  -5.042  22.802  0.00  0.00    +0.473 P 
ATOM     22  O   UNL     1       4.241  -4.427  22.674  0.00  0.00    -0.228 OA
BRANCH  21  23
ATOM     23  O   UNL     1       5.381  -5.775  24.237  0.00  0.00    -0.303 OA
ATOM     24  H   UNL     1       4.411  -5.772  24.352  0.00  0.00    +0.222 HD
ENDBRANCH  21  23
BRANCH  21  25
ATOM     25  O   UNL     1       5.287  -6.375  21.927  0.00  0.00    -0.303 OA
ATOM     26  H   UNL     1       5.534  -7.178  22.421  0.00  0.00    +0.222 HD
ENDBRANCH  21  25
ENDBRANCH  20  21
ENDBRANCH   2  20
BRANCH   4  27
ATOM     27  C   UNL     1       7.660  -4.416  27.083  0.00  0.00    +0.206 C 
BRANCH  27  28
ATOM     28  O   UNL     1       7.064  -5.693  26.901  0.00  0.00    -0.284 OA
BRANCH  28  29
ATOM     29  P   UNL     1       5.871  -6.122  27.882  0.00  0.00    +0.472 P 
ATOM     30  O   UNL     1       5.102  -4.987  28.450  0.00  0.00    -0.228 OA
BRANCH  29  31
ATOM     31  O   UNL     1       6.643  -7.080  28.895  0.00  0.00    -0.303 OA
ATOM     32  H   UNL     1       7.467  -6.684  29.225  0.00  0.00    +0.222 HD
ENDBRANCH  29  31
BRANCH  29  33
ATOM     33  O   UNL     1       5.094  -7.134  26.922  0.00  0.00    -0.303 OA
ATOM     34  H   UNL     1       5.232  -8.058  27.190  0.00  0.00    +0.222 HD
ENDBRANCH  29  33
ENDBRANCH  28  29
ENDBRANCH  27  28
ENDBRANCH   4  27
TORSDOF 11
ENDMDL
MODEL 4
REMARK VINA RESULT:      -7.0      4.167      7.067
REMARK  Name = 
REMARK  11 active torsions:
REMARK  status: ('A' for Active; 'I' for Inactive)
REMARK    1  A    between atoms: N_10  and  C_11
REMARK    2  A    between atoms: C_14  and  C_16
REMARK    3  A    between atoms: C_16  and  O_17
REMARK    4  A    between atoms: O_17  and  P_18
REMARK    5  A    between atoms: P_18  and  O_19
REMARK    6  A    between atoms: P_18  and  O_20
REMARK    7  A    between atoms: C_22  and  O_24
REMARK    8  A    between atoms: C_25  and  O_27
REMARK    9  A    between atoms: O_27  and  P_28
REMARK   10  A    between atoms: P_28  and  O_29
REMARK   11  A    between atoms: P_28  and  O_30
REMARK                            x       y       z     vdW  Elec       q    Type
REMARK                         _______ _______ _______ _____ _____    ______ ____
ROOT
ATOM      1  C   UNL     1       7.954  -3.957  23.651  0.00  0.00    +0.254 C 
ATOM      2  C   UNL     1       6.913  -2.874  23.293  0.00  0.00    +0.211 C 
ATOM      3  C   UNL     1       7.686  -1.559  23.375  0.00  0.00    +0.179 C 
ATOM      4  C   UNL     1       9.114  -1.955  23.738  0.00  0.00    +0.178 C 
ATOM      5  O   UNL     1       9.247  -3.357  23.439  0.00  0.00    -0.346 OA
ENDROOT
BRANCH   1  13
ATOM      6  N   UNL     1       6.438  -6.442  28.971  0.00  0.00    -0.341 N 
ATOM      7  H   UNL     1       7.386  -6.297  29.301  0.00  0.00    +0.144 HD
ATOM      8  H   UNL     1       5.951  -7.270  29.285  0.00  0.00    +0.144 HD
ATOM      9  C   UNL     1       6.276  -6.201  27.613  0.00  0.00    +0.147 A 
ATOM     10  C   UNL     1       7.170  -5.427  26.854  0.00  0.00    +0.147 A 
ATOM     11  N   UNL     1       8.350  -4.796  27.173  0.00  0.00    -0.231 NA
ATOM     12  C   UNL     1       8.752  -4.244  26.050  0.00  0.00    +0.203 A 
ATOM     13  N   UNL     1       7.857  -4.437  25.024  0.00  0.00    -0.285 N 
ATOM     14  C   UNL     1       6.860  -5.239  25.514  0.00  0.00    +0.167 A 
ATOM     15  N   UNL     1       5.801  -5.730  24.845  0.00  0.00    -0.216 NA
ATOM     16  C   UNL     1       5.043  -6.499  25.665  0.00  0.00    +0.225 A 
ATOM     17  N   UNL     1       5.213  -6.751  26.982  0.00  0.00    -0.219 NA
ENDBRANCH   1  13
BRANCH   3  18
ATOM     18  O   UNL     1       7.119  -0.758  24.414  0.00  0.00    -0.386 OA
ATOM     19  H   UNL     1       7.643  -0.886  25.225  0.00  0.00    +0.210 HD
ENDBRANCH   3  18
BRANCH   2  20
ATOM     20  O   UNL     1       6.377  -3.010  21.957  0.00  0.00    -0.276 OA
BRANCH  20  21
ATOM     21  P   UNL     1       6.301  -4.678  21.504  0.00  0.00    +0.473 P 
ATOM     22  O   UNL     1       6.232  -6.171  21.099  0.00  0.00    -0.228 OA
BRANCH  21  23
ATOM     23  O   UNL     1       5.800  -4.100  20.060  0.00  0.00    -0.303 OA
ATOM     24  H   UNL     1       6.614  -3.930  19.547  0.00  0.00    +0.222 HD
ENDBRANCH  21  23
BRANCH  21  25
ATOM     25  O   UNL     1       4.798  -4.662  22.154  0.00  0.00    -0.303 OA
ATOM     26  H   UNL     1       4.278  -5.413  21.812  0.00  0.00    +0.222 HD
ENDBRANCH  21  25
ENDBRANCH  20  21
ENDBRANCH   2  20
BRANCH   4  27
ATOM     27  C   UNL     1      10.196  -1.175  22.997  0.00  0.00    +0.206 C 
BRANCH  27  28
ATOM     28  O   UNL     1       9.566  -0.042  22.413  0.00  0.00    -0.284 OA
BRANCH  28  29
ATOM     29  P   UNL     1       9.894   1.406  23.018  0.00  0.00    +0.472 P 
ATOM     30  O   UNL     1      10.955   1.415  24.056  0.00  0.00    -0.228 OA
BRANCH  29  31
ATOM     31  O   UNL     1       8.437   1.894  23.439  0.00  0.00    -0.303 OA
ATOM     32  H   UNL     1       7.777   1.736  22.742  0.00  0.00    +0.222 HD
ENDBRANCH  29  31
BRANCH  29  33
ATOM     33  O   UNL     1      10.181   2.197  21.662  0.00  0.00    -0.303 OA
ATOM     34  H   UNL     1       9.840   3.107  21.700  0.00  0.00    +0.222 HD
ENDBRANCH  29  33
ENDBRANCH  28  29
ENDBRANCH  27  28
ENDBRANCH   4  27
TORSDOF 11
ENDMDL
MODEL 5
REMARK VINA RESULT:      -6.8      4.390      6.887
REMARK  Name = 
REMARK  11 active torsions:
REMARK  status: ('A' for Active; 'I' for Inactive)
REMARK    1  A    between atoms: N_10  and  C_11
REMARK    2  A    between atoms: C_14  and  C_16
REMARK    3  A    between atoms: C_16  and  O_17
REMARK    4  A    between atoms: O_17  and  P_18
REMARK    5  A    between atoms: P_18  and  O_19
REMARK    6  A    between atoms: P_18  and  O_20
REMARK    7  A    between atoms: C_22  and  O_24
REMARK    8  A    between atoms: C_25  and  O_27
REMARK    9  A    between atoms: O_27  and  P_28
REMARK   10  A    between atoms: P_28  and  O_29
REMARK   11  A    between atoms: P_28  and  O_30
REMARK                            x       y       z     vdW  Elec       q    Type
REMARK                         _______ _______ _______ _____ _____    ______ ____
ROOT
ATOM      1  C   UNL     1       7.400  -1.293  23.995  0.00  0.00    +0.254 C 
ATOM      2  C   UNL     1       8.835  -1.603  24.473  0.00  0.00    +0.211 C 
ATOM      3  C   UNL     1       9.722  -1.239  23.285  0.00  0.00    +0.179 C 
ATOM      4  C   UNL     1       8.766  -0.719  22.216  0.00  0.00    +0.178 C 
ATOM      5  O   UNL     1       7.535  -0.386  22.883  0.00  0.00    -0.346 OA
ENDROOT
BRANCH   1  13
ATOM      6  N   UNL     1       4.654  -6.665  23.382  0.00  0.00    -0.341 N 
ATOM      7  H   UNL     1       4.134  -6.302  22.591  0.00  0.00    +0.144 HD
ATOM      8  H   UNL     1       4.188  -7.328  23.987  0.00  0.00    +0.144 HD
ATOM      9  C   UNL     1       5.358  -5.695  24.083  0.00  0.00    +0.147 A 
ATOM     10  C   UNL     1       5.695  -4.444  23.539  0.00  0.00    +0.147 A 
ATOM     11  N   UNL     1       5.424  -3.858  22.325  0.00  0.00    -0.231 NA
ATOM     12  C   UNL     1       5.979  -2.668  22.393  0.00  0.00    +0.203 A 
ATOM     13  N   UNL     1       6.652  -2.472  23.575  0.00  0.00    -0.285 N 
ATOM     14  C   UNL     1       6.435  -3.587  24.343  0.00  0.00    +0.167 A 
ATOM     15  N   UNL     1       6.857  -3.809  25.601  0.00  0.00    -0.216 NA
ATOM     16  C   UNL     1       6.429  -5.021  26.032  0.00  0.00    +0.225 A 
ATOM     17  N   UNL     1       5.725  -5.957  25.358  0.00  0.00    -0.219 NA
ENDBRANCH   1  13
BRANCH   3  18
ATOM     18  O   UNL     1      10.378  -2.422  22.823  0.00  0.00    -0.386 OA
ATOM     19  H   UNL     1      11.237  -2.171  22.438  0.00  0.00    +0.210 HD
ENDBRANCH   3  18
BRANCH   2  20
ATOM     20  O   UNL     1       9.244  -0.811  25.612  0.00  0.00    -0.276 OA
BRANCH  20  21
ATOM     21  P   UNL     1       7.893  -0.490  26.643  0.00  0.00    +0.473 P 
ATOM     22  O   UNL     1       6.683  -0.202  27.566  0.00  0.00    -0.228 OA
BRANCH  21  23
ATOM     23  O   UNL     1       8.110   1.063  26.181  0.00  0.00    -0.303 OA
ATOM     24  H   UNL     1       8.683   1.463  26.864  0.00  0.00    +0.222 HD
ENDBRANCH  21  23
BRANCH  21  25
ATOM     25  O   UNL     1       8.991  -0.398  27.853  0.00  0.00    -0.303 OA
ATOM     26  H   UNL     1       8.807  -1.083  28.523  0.00  0.00    +0.222 HD
ENDBRANCH  21  25
ENDBRANCH  20  21
ENDBRANCH   2  20
BRANCH   4  27
ATOM     27  C   UNL     1       9.273   0.500  21.451  0.00  0.00    +0.206 C 
BRANCH  27  28
ATOM     28  O   UNL     1      10.250   1.129  22.270  0.00  0.00    -0.284 OA
BRANCH  28  29
ATOM     29  P   UNL     1       9.873   2.521  22.970  0.00  0.00    +0.472 P 
ATOM     30  O   UNL     1       9.645   2.434  24.434  0.00  0.00    -0.228 OA
BRANCH  29  31
ATOM     31  O   UNL     1       8.659   3.000  22.055  0.00  0.00    -0.303 OA
ATOM     32  H   UNL     1       8.959   3.411  21.227  0.00  0.00    +0.222 HD
ENDBRANCH  29  31
BRANCH  29  33
ATOM     33  O   UNL     1      11.101   3.408  22.465  0.00  0.00    -0.303 OA
ATOM     34  H   UNL     1      11.502   3.038  21.660  0.00  0.00    +0.222 HD
ENDBRANCH  29  33
ENDBRANCH  28  29
ENDBRANCH  27  28
ENDBRANCH   4  27
TORSDOF 11
ENDMDL
MODEL 6
REMARK VINA RESULT:      -6.7      1.756      2.709
REMARK  Name = 
REMARK  11 active torsions:
REMARK  status: ('A' for Active; 'I' for Inactive)
REMARK    1  A    between atoms: N_10  and  C_11
REMARK    2  A    between atoms: C_14  and  C_16
REMARK    3  A    between atoms: C_16  and  O_17
REMARK    4  A    between atoms: O_17  and  P_18
REMARK    5  A    between atoms: P_18  and  O_19
REMARK    6  A    between atoms: P_18  and  O_20
REMARK    7  A    between atoms: C_22  and  O_24
REMARK    8  A    between atoms: C_25  and  O_27
REMARK    9  A    between atoms: O_27  and  P_28
REMARK   10  A    between atoms: P_28  and  O_29
REMARK   11  A    between atoms: P_28  and  O_30
REMARK                            x       y       z     vdW  Elec       q    Type
REMARK                         _______ _______ _______ _____ _____    ______ ____
ROOT
ATOM      1  C   UNL     1       8.141  -2.226  25.015  0.00  0.00    +0.254 C 
ATOM      2  C   UNL     1       7.540  -2.552  26.400  0.00  0.00    +0.211 C 
ATOM      3  C   UNL     1       6.045  -2.718  26.139  0.00  0.00    +0.179 C 
ATOM      4  C   UNL     1       5.875  -2.514  24.636  0.00  0.00    +0.178 C 
ATOM      5  O   UNL     1       7.177  -2.676  24.044  0.00  0.00    -0.346 OA
ENDROOT
BRANCH   1  13
ATOM      6  N   UNL     1       9.756   3.277  23.044  0.00  0.00    -0.341 N 
ATOM      7  H   UNL     1       9.207   3.696  23.785  0.00  0.00    +0.144 HD
ATOM      8  H   UNL     1       9.796   3.759  22.156  0.00  0.00    +0.144 HD
ATOM      9  C   UNL     1       9.561   1.909  22.908  0.00  0.00    +0.147 A 
ATOM     10  C   UNL     1       9.028   1.100  23.927  0.00  0.00    +0.147 A 
ATOM     11  N   UNL     1       8.555   1.389  25.186  0.00  0.00    -0.231 NA
ATOM     12  C   UNL     1       8.165   0.232  25.673  0.00  0.00    +0.203 A 
ATOM     13  N   UNL     1       8.416  -0.809  24.811  0.00  0.00    -0.285 N 
ATOM     14  C   UNL     1       8.925  -0.259  23.663  0.00  0.00    +0.167 A 
ATOM     15  N   UNL     1       9.262  -0.898  22.529  0.00  0.00    -0.216 NA
ATOM     16  C   UNL     1       9.712  -0.012  21.607  0.00  0.00    +0.225 A 
ATOM     17  N   UNL     1       9.882   1.323  21.732  0.00  0.00    -0.219 NA
ENDBRANCH   1  13
BRANCH   3  18
ATOM     18  O   UNL     1       5.339  -1.703  26.855  0.00  0.00    -0.386 OA
ATOM     19  H   UNL     1       4.421  -1.674  26.529  0.00  0.00    +0.210 HD
ENDBRANCH   3  18
BRANCH   2  20
ATOM     20  O   UNL     1       8.047  -3.780  26.972  0.00  0.00    -0.276 OA
BRANCH  20  21
ATOM     21  P   UNL     1       8.762  -4.768  25.746  0.00  0.00    +0.473 P 
ATOM     22  O   UNL     1       9.403  -5.653  24.648  0.00  0.00    -0.228 OA
BRANCH  21  23
ATOM     23  O   UNL     1       7.959  -5.987  26.481  0.00  0.00    -0.303 OA
ATOM     24  H   UNL     1       8.543  -6.291  27.201  0.00  0.00    +0.222 HD
ENDBRANCH  21  23
BRANCH  21  25
ATOM     25  O   UNL     1      10.052  -4.869  26.748  0.00  0.00    -0.303 OA
ATOM     26  H   UNL     1      10.855  -4.556  26.292  0.00  0.00    +0.222 HD
ENDBRANCH  21  25
ENDBRANCH  20  21
ENDBRANCH   2  20
BRANCH   4  27
ATOM     27  C   UNL     1       4.893  -3.474  23.973  0.00  0.00    +0.206 C 
BRANCH  27  28
ATOM     28  O   UNL     1       5.605  -4.674  23.700  0.00  0.00    -0.284 OA
BRANCH  28  29
ATOM     29  P   UNL     1       5.951  -5.023  22.174  0.00  0.00    +0.472 P 
ATOM     30  O   UNL     1       5.582  -3.965  21.201  0.00  0.00    -0.228 OA
BRANCH  29  31
ATOM     31  O   UNL     1       5.253  -6.448  22.024  0.00  0.00    -0.303 OA
ATOM     32  H   UNL     1       5.741  -7.038  21.424  0.00  0.00    +0.222 HD
ENDBRANCH  29  31
BRANCH  29  33
ATOM     33  O   UNL     1       7.500  -5.374  22.330  0.00  0.00    -0.303 OA
ATOM     34  H   UNL     1       7.712  -6.239  21.937  0.00  0.00    +0.222 HD
ENDBRANCH  29  33
ENDBRANCH  28  29
ENDBRANCH  27  28
ENDBRANCH   4  27
TORSDOF 11
ENDMDL
MODEL 7
REMARK VINA RESULT:      -6.7      2.418      4.111
REMARK  Name = 
REMARK  11 active torsions:
REMARK  status: ('A' for Active; 'I' for Inactive)
REMARK    1  A    between atoms: N_10  and  C_11
REMARK    2  A    between atoms: C_14  and  C_16
REMARK    3  A    between atoms: C_16  and  O_17
REMARK    4  A    between atoms: O_17  and  P_18
REMARK    5  A    between atoms: P_18  and  O_19
REMARK    6  A    between atoms: P_18  and  O_20
REMARK    7  A    between atoms: C_22  and  O_24
REMARK    8  A    between atoms: C_25  and  O_27
REMARK    9  A    between atoms: O_27  and  P_28
REMARK   10  A    between atoms: P_28  and  O_29
REMARK   11  A    between atoms: P_28  and  O_30
REMARK                            x       y       z     vdW  Elec       q    Type
REMARK                         _______ _______ _______ _____ _____    ______ ____
ROOT
ATOM      1  C   UNL     1       8.119  -0.859  25.195  0.00  0.00    +0.254 C 
ATOM      2  C   UNL     1       7.170  -1.307  24.062  0.00  0.00    +0.211 C 
ATOM      3  C   UNL     1       7.714  -2.664  23.622  0.00  0.00    +0.179 C 
ATOM      4  C   UNL     1       8.909  -2.932  24.532  0.00  0.00    +0.178 C 
ATOM      5  O   UNL     1       8.776  -2.053  25.663  0.00  0.00    -0.346 OA
ENDROOT
BRANCH   1  13
ATOM      6  N   UNL     1      11.260   3.922  23.181  0.00  0.00    -0.341 N 
ATOM      7  H   UNL     1      12.106   3.521  23.569  0.00  0.00    +0.144 HD
ATOM      8  H   UNL     1      11.163   4.928  23.200  0.00  0.00    +0.144 HD
ATOM      9  C   UNL     1      10.101   3.260  23.563  0.00  0.00    +0.147 A 
ATOM     10  C   UNL     1      10.090   1.943  24.051  0.00  0.00    +0.147 A 
ATOM     11  N   UNL     1      11.098   1.043  24.312  0.00  0.00    -0.231 NA
ATOM     12  C   UNL     1      10.486  -0.024  24.775  0.00  0.00    +0.203 A 
ATOM     13  N   UNL     1       9.119   0.116  24.774  0.00  0.00    -0.285 N 
ATOM     14  C   UNL     1       8.852   1.395  24.359  0.00  0.00    +0.167 A 
ATOM     15  N   UNL     1       7.649   1.989  24.259  0.00  0.00    -0.216 NA
ATOM     16  C   UNL     1       7.791   3.267  23.829  0.00  0.00    +0.225 A 
ATOM     17  N   UNL     1       8.922   3.918  23.478  0.00  0.00    -0.219 NA
ENDBRANCH   1  13
BRANCH   3  18
ATOM     18  O   UNL     1       8.144  -2.566  22.262  0.00  0.00    -0.386 OA
ATOM     19  H   UNL     1       8.248  -1.624  22.037  0.00  0.00    +0.210 HD
ENDBRANCH   3  18
BRANCH   2  20
ATOM     20  O   UNL     1       5.801  -1.478  24.495  0.00  0.00    -0.276 OA
BRANCH  20  21
ATOM     21  P   UNL     1       5.472  -0.483  25.871  0.00  0.00    +0.473 P 
ATOM     22  O   UNL     1       5.178   0.407  27.103  0.00  0.00    -0.228 OA
BRANCH  21  23
ATOM     23  O   UNL     1       4.031  -1.255  25.888  0.00  0.00    -0.303 OA
ATOM     24  H   UNL     1       4.154  -2.031  26.468  0.00  0.00    +0.222 HD
ENDBRANCH  21  23
BRANCH  21  25
ATOM     25  O   UNL     1       4.980   0.643  24.790  0.00  0.00    -0.303 OA
ATOM     26  H   UNL     1       4.242   1.161  25.161  0.00  0.00    +0.222 HD
ENDBRANCH  21  25
ENDBRANCH  20  21
ENDBRANCH   2  20
BRANCH   4  27
ATOM     27  C   UNL     1       9.022  -4.373  25.020  0.00  0.00    +0.206 C 
BRANCH  27  28
ATOM     28  O   UNL     1       7.706  -4.910  25.044  0.00  0.00    -0.284 OA
BRANCH  28  29
ATOM     29  P   UNL     1       7.063  -5.286  26.463  0.00  0.00    +0.472 P 
ATOM     30  O   UNL     1       5.977  -6.294  26.400  0.00  0.00    -0.228 OA
BRANCH  29  31
ATOM     31  O   UNL     1       6.703  -3.838  27.024  0.00  0.00    -0.303 OA
ATOM     32  H   UNL     1       7.272  -3.144  26.650  0.00  0.00    +0.222 HD
ENDBRANCH  29  31
BRANCH  29  33
ATOM     33  O   UNL     1       8.391  -5.679  27.256  0.00  0.00    -0.303 OA
ATOM     34  H   UNL     1       8.989  -4.918  27.353  0.00  0.00    +0.222 HD
ENDBRANCH  29  33
ENDBRANCH  28  29
ENDBRANCH  27  28
ENDBRANCH   4  27
TORSDOF 11
ENDMDL
MODEL 8
REMARK VINA RESULT:      -6.6      1.982      4.255
REMARK  Name = 
REMARK  11 active torsions:
REMARK  status: ('A' for Active; 'I' for Inactive)
REMARK    1  A    between atoms: N_10  and  C_11
REMARK    2  A    between atoms: C_14  and  C_16
REMARK    3  A    between atoms: C_16  and  O_17
REMARK    4  A    between atoms: O_17  and  P_18
REMARK    5  A    between atoms: P_18  and  O_19
REMARK    6  A    between atoms: P_18  and  O_20
REMARK    7  A    between atoms: C_22  and  O_24
REMARK    8  A    between atoms: C_25  and  O_27
REMARK    9  A    between atoms: O_27  and  P_28
REMARK   10  A    between atoms: P_28  and  O_29
REMARK   11  A    between atoms: P_28  and  O_30
REMARK                            x       y       z     vdW  Elec       q    Type
REMARK                         _______ _______ _______ _____ _____    ______ ____
ROOT
ATOM      1  C   UNL     1       5.883  -1.958  24.542  0.00  0.00    +0.254 C 
ATOM      2  C   UNL     1       6.279  -3.340  23.977  0.00  0.00    +0.211 C 
ATOM      3  C   UNL     1       6.292  -4.262  25.194  0.00  0.00    +0.179 C 
ATOM      4  C   UNL     1       5.878  -3.381  26.369  0.00  0.00    +0.178 C 
ATOM      5  O   UNL     1       5.251  -2.211  25.813  0.00  0.00    -0.346 OA
ENDROOT
BRANCH   1  13
ATOM      6  N   UNL     1      10.899   1.426  24.143  0.00  0.00    -0.341 N 
ATOM      7  H   UNL     1      10.603   1.950  24.958  0.00  0.00    +0.144 HD
ATOM      8  H   UNL     1      11.396   1.925  23.417  0.00  0.00    +0.144 HD
ATOM      9  C   UNL     1       9.926   0.571  23.643  0.00  0.00    +0.147 A 
ATOM     10  C   UNL     1       8.828   0.126  24.398  0.00  0.00    +0.147 A 
ATOM     11  N   UNL     1       8.411   0.405  25.679  0.00  0.00    -0.231 NA
ATOM     12  C   UNL     1       7.304  -0.287  25.832  0.00  0.00    +0.203 A 
ATOM     13  N   UNL     1       7.011  -1.053  24.729  0.00  0.00    -0.285 N 
ATOM     14  C   UNL     1       7.955  -0.758  23.780  0.00  0.00    +0.167 A 
ATOM     15  N   UNL     1       8.027  -1.232  22.523  0.00  0.00    -0.216 NA
ATOM     16  C   UNL     1       9.093  -0.695  21.880  0.00  0.00    +0.225 A 
ATOM     17  N   UNL     1      10.028   0.155  22.360  0.00  0.00    -0.219 NA
ENDBRANCH   1  13
BRANCH   3  18
ATOM     18  O   UNL     1       7.622  -4.747  25.388  0.00  0.00    -0.386 OA
ATOM     19  H   UNL     1       7.609  -5.719  25.340  0.00  0.00    +0.210 HD
ENDBRANCH   3  18
BRANCH   2  20
ATOM     20  O   UNL     1       5.332  -3.860  23.016  0.00  0.00    -0.276 OA
BRANCH  20  21
ATOM     21  P   UNL     1       6.112  -4.965  21.937  0.00  0.00    +0.473 P 
ATOM     22  O   UNL     1       6.809  -5.954  20.971  0.00  0.00    -0.228 OA
BRANCH  21  23
ATOM     23  O   UNL     1       7.464  -4.122  22.301  0.00  0.00    -0.303 OA
ATOM     24  H   UNL     1       7.725  -4.416  23.195  0.00  0.00    +0.222 HD
ENDBRANCH  21  23
BRANCH  21  25
ATOM     25  O   UNL     1       5.659  -3.935  20.747  0.00  0.00    -0.303 OA
ATOM     26  H   UNL     1       6.006  -3.043  20.929  0.00  0.00    +0.222 HD
ENDBRANCH  21  25
ENDBRANCH  20  21
ENDBRANCH   2  20
BRANCH   4  27
ATOM     27  C   UNL     1       4.923  -4.047  27.355  0.00  0.00    +0.206 C 
BRANCH  27  28
ATOM     28  O   UNL     1       5.209  -5.439  27.336  0.00  0.00    -0.284 OA
BRANCH  28  29
ATOM     29  P   UNL     1       6.018  -6.066  28.571  0.00  0.00    +0.472 P 
ATOM     30  O   UNL     1       5.850  -5.336  29.852  0.00  0.00    -0.228 OA
BRANCH  29  31
ATOM     31  O   UNL     1       7.484  -6.160  27.954  0.00  0.00    -0.303 OA
ATOM     32  H   UNL     1       8.175  -6.145  28.638  0.00  0.00    +0.222 HD
ENDBRANCH  29  31
BRANCH  29  33
ATOM     33  O   UNL     1       5.480  -7.568  28.500  0.00  0.00    -0.303 OA
ATOM     34  H   UNL     1       6.030  -8.170  29.030  0.00  0.00    +0.222 HD
ENDBRANCH  29  33
ENDBRANCH  28  29
ENDBRANCH  27  28
ENDBRANCH   4  27
TORSDOF 11
ENDMDL
MODEL 9
REMARK VINA RESULT:      -6.5      1.844      3.896
REMARK  Name = 
REMARK  11 active torsions:
REMARK  status: ('A' for Active; 'I' for Inactive)
REMARK    1  A    between atoms: N_10  and  C_11
REMARK    2  A    between atoms: C_14  and  C_16
REMARK    3  A    between atoms: C_16  and  O_17
REMARK    4  A    between atoms: O_17  and  P_18
REMARK    5  A    between atoms: P_18  and  O_19
REMARK    6  A    between atoms: P_18  and  O_20
REMARK    7  A    between atoms: C_22  and  O_24
REMARK    8  A    between atoms: C_25  and  O_27
REMARK    9  A    between atoms: O_27  and  P_28
REMARK   10  A    between atoms: P_28  and  O_29
REMARK   11  A    between atoms: P_28  and  O_30
REMARK                            x       y       z     vdW  Elec       q    Type
REMARK                         _______ _______ _______ _____ _____    ______ ____
ROOT
ATOM      1  C   UNL     1       7.057  -1.991  24.010  0.00  0.00    +0.254 C 
ATOM      2  C   UNL     1       8.013  -2.821  23.126  0.00  0.00    +0.211 C 
ATOM      3  C   UNL     1       9.001  -3.443  24.110  0.00  0.00    +0.179 C 
ATOM      4  C   UNL     1       8.547  -2.970  25.488  0.00  0.00    +0.178 C 
ATOM      5  O   UNL     1       7.188  -2.517  25.346  0.00  0.00    -0.346 OA
ENDROOT
BRANCH   1  13
ATOM      6  N   UNL     1       9.147   3.636  23.151  0.00  0.00    -0.341 N 
ATOM      7  H   UNL     1       8.347   4.003  23.656  0.00  0.00    +0.144 HD
ATOM      8  H   UNL     1       9.505   4.179  22.377  0.00  0.00    +0.144 HD
ATOM      9  C   UNL     1       9.054   2.281  22.864  0.00  0.00    +0.147 A 
ATOM     10  C   UNL     1       8.199   1.404  23.553  0.00  0.00    +0.147 A 
ATOM     11  N   UNL     1       7.279   1.603  24.555  0.00  0.00    -0.231 NA
ATOM     12  C   UNL     1       6.765   0.415  24.784  0.00  0.00    +0.203 A 
ATOM     13  N   UNL     1       7.350  -0.563  24.016  0.00  0.00    -0.285 N 
ATOM     14  C   UNL     1       8.238   0.066  23.183  0.00  0.00    +0.167 A 
ATOM     15  N   UNL     1       8.996  -0.493  22.221  0.00  0.00    -0.216 NA
ATOM     16  C   UNL     1       9.736   0.456  21.596  0.00  0.00    +0.225 A 
ATOM     17  N   UNL     1       9.810   1.779  21.862  0.00  0.00    -0.219 NA
ENDBRANCH   1  13
BRANCH   3  18
ATOM     18  O   UNL     1      10.309  -2.942  23.826  0.00  0.00    -0.386 OA
ATOM     19  H   UNL     1      10.817  -2.910  24.656  0.00  0.00    +0.210 HD
ENDBRANCH   3  18
BRANCH   2  20
ATOM     20  O   UNL     1       7.351  -3.885  22.404  0.00  0.00    -0.276 OA
BRANCH  20  21
ATOM     21  P   UNL     1       5.696  -4.008  22.893  0.00  0.00    +0.473 P 
ATOM     22  O   UNL     1       4.215  -4.119  23.330  0.00  0.00    -0.228 OA
BRANCH  21  23
ATOM     23  O   UNL     1       6.153  -5.447  23.520  0.00  0.00    -0.303 OA
ATOM     24  H   UNL     1       6.823  -5.238  24.199  0.00  0.00    +0.222 HD
ENDBRANCH  21  23
BRANCH  21  25
ATOM     25  O   UNL     1       5.426  -4.622  21.399  0.00  0.00    -0.303 OA
ATOM     26  H   UNL     1       6.215  -5.103  21.089  0.00  0.00    +0.222 HD
ENDBRANCH  21  25
ENDBRANCH  20  21
ENDBRANCH   2  20
BRANCH   4  27
ATOM     27  C   UNL     1       8.613  -4.036  26.578  0.00  0.00    +0.206 C 
BRANCH  27  28
ATOM     28  O   UNL     1       7.846  -5.144  26.125  0.00  0.00    -0.284 OA
BRANCH  28  29
ATOM     29  P   UNL     1       6.609  -5.629  27.020  0.00  0.00    +0.472 P 
ATOM     30  O   UNL     1       5.634  -6.492  26.309  0.00  0.00    -0.228 OA
BRANCH  29  31
ATOM     31  O   UNL     1       6.089  -4.237  27.597  0.00  0.00    -0.303 OA
ATOM     32  H   UNL     1       6.058  -4.227  28.569  0.00  0.00    +0.222 HD
ENDBRANCH  29  31
BRANCH  29  33
ATOM     33  O   UNL     1       7.408  -6.271  28.244  0.00  0.00    -0.303 OA
ATOM     34  H   UNL     1       7.878  -7.080  27.979  0.00  0.00    +0.222 HD
ENDBRANCH  29  33
ENDBRANCH  28  29
ENDBRANCH  27  28
ENDBRANCH   4  27
TORSDOF 11
ENDMDL
