MODEL 1
REMARK VINA RESULT:      -6.6      0.000      0.000
REMARK  Name = 
REMARK  16 active torsions:
REMARK  status: ('A' for Active; 'I' for Inactive)
REMARK    1  A    between atoms: N_1  and  C_2
REMARK    2  A    between atoms: C_2  and  C_4
REMARK    3  A    between atoms: C_2  and  C_30
REMARK    4  A    between atoms: C_4  and  C_5
REMARK    5  A    between atoms: C_5  and  C_6
REMARK    6  A    between atoms: N_8  and  C_9
REMARK    7  A    between atoms: C_9  and  C_11
REMARK    8  A    between atoms: C_9  and  C_23
REMARK    9  A    between atoms: C_11  and  S_12
REMARK   10  A    between atoms: S_12  and  C_13
REMARK   11  A    between atoms: C_13  and  C_14
REMARK   12  A    between atoms: C_17  and  N_20
REMARK   13  A    between atoms: N_25  and  CA_26
REMARK   14  A    between atoms: CA_26  and  C_27
REMARK   15  A    between atoms: C_27  and  O_28
REMARK   16  A    between atoms: C_30  and  O_31
REMARK                            x       y       z     vdW  Elec       q    Type
REMARK                         _______ _______ _______ _____ _____    ______ ____
ROOT
ATOM      1  C   UNK A   1       7.194  -4.888  22.878  0.00  0.00    +0.169 C 
ENDROOT
BRANCH   1   2
ATOM      2  C   UNK A   1       5.846  -5.577  22.558  0.00  0.00    +0.235 C 
ATOM      3  N   GLY A   2       4.742  -5.120  23.257  0.00  0.00    -0.303 N 
ATOM      4  H   GLY A   2       4.889  -4.445  24.002  0.00  0.00    +0.149 HD
ATOM      5  O   UNK A   1       5.770  -6.509  21.758  0.00  0.00    -0.274 OA
BRANCH   3   6
ATOM      6  CA  GLY A   2       3.438  -5.748  23.028  0.00  0.00    +0.224 C 
BRANCH   6   7
ATOM      7  C   GLY A   2       3.005  -7.049  23.714  0.00  0.00    +0.322 C 
ATOM      8  OXT GLY A   2       1.858  -7.484  23.646  0.00  0.00    -0.249 OA
BRANCH   7   9
ATOM      9  O   GLY A   2       3.985  -7.773  24.280  0.00  0.00    -0.480 OA
ATOM     10  H   GLY A   2       4.845  -7.580  23.855  0.00  0.00    +0.295 HD
ENDBRANCH   7   9
ENDBRANCH   6   7
ENDBRANCH   3   6
ENDBRANCH   1   2
BRANCH   1  12
ATOM     11  C   UNK A   1       8.448  -5.054  25.030  0.00  0.00    +0.214 C 
ATOM     12  N   UNK A   1       7.341  -4.662  24.327  0.00  0.00    -0.303 N 
ATOM     13  H   UNK A   1       6.641  -4.083  24.775  0.00  0.00    +0.149 HD
ATOM     14  O   UNK A   1       9.378  -5.680  24.526  0.00  0.00    -0.276 OA
BRANCH  11  15
ATOM     15  C   UNK A   1       8.463  -4.683  26.505  0.00  0.00    +0.098 C 
BRANCH  15  16
ATOM     16  C   UNK A   1       7.110  -4.293  27.120  0.00  0.00    +0.039 C 
BRANCH  16  17
ATOM     17  C   UNK A   1       6.363  -5.391  27.891  0.00  0.00    +0.161 C 
BRANCH  17  18
ATOM     18  N   UNK A   1       7.203  -6.473  28.445  0.00  0.00    -0.318 NA
ATOM     19  H   UNK A   1       8.146  -6.141  28.648  0.00  0.00    +0.119 HD
ATOM     20  H   UNK A   1       6.822  -6.718  29.367  0.00  0.00    +0.119 HD
ENDBRANCH  17  18
BRANCH  17  21
ATOM     21  C   UNK A   1       5.307  -5.967  26.980  0.00  0.00    +0.322 C 
ATOM     22  O   UNK A   1       4.758  -5.339  26.089  0.00  0.00    -0.249 OA
BRANCH  21  23
ATOM     23  O   UNK A   1       5.048  -7.281  27.165  0.00  0.00    -0.480 OA
ATOM     24  H   UNK A   1       5.072  -7.435  28.145  0.00  0.00    +0.295 HD
ENDBRANCH  21  23
ENDBRANCH  17  21
ENDBRANCH  16  17
ENDBRANCH  15  16
ENDBRANCH  11  15
ENDBRANCH   1  12
BRANCH   1  25
ATOM     25  C   UNK A   1       7.280  -3.563  22.089  0.00  0.00    +0.101 C 
BRANCH  25  26
ATOM     26  S   UNK A   1       7.544  -2.066  23.116  0.00  0.00    -0.154 S 
BRANCH  26  27
ATOM     27  C   UNK A   1       9.324  -1.802  22.829  0.00  0.00    +0.104 C 
BRANCH  27  28
ATOM     28  C   UNK A   1       9.709  -0.351  22.994  0.00  0.00    -0.037 A 
ATOM     29  C   UNK A   1       9.566   0.551  21.930  0.00  0.00    +0.011 A 
ATOM     30  C   UNK A   1       9.950   1.887  22.078  0.00  0.00    +0.084 A 
ATOM     31  C   UNK A   1      10.480   2.326  23.297  0.00  0.00    +0.273 A 
ATOM     32  C   UNK A   1      10.628   1.438  24.369  0.00  0.00    +0.084 A 
ATOM     33  C   UNK A   1      10.249   0.106  24.210  0.00  0.00    +0.011 A 
BRANCH  31  34
ATOM     34  N   UNK A   1      10.876   3.720  23.456  0.00  0.00    +0.080 N 
ATOM     35  O   UNK A   1       9.997   4.547  23.752  0.00  0.00    +0.041 OA
ATOM     36  O   UNK A   1      12.078   4.009  23.312  0.00  0.00    -0.576 OA
ENDBRANCH  31  34
ENDBRANCH  27  28
ENDBRANCH  26  27
ENDBRANCH  25  26
ENDBRANCH   1  25
TORSDOF 16
ENDMDL
MODEL 2
REMARK VINA RESULT:      -6.3      3.121      9.042
REMARK  Name = 
REMARK  16 active torsions:
REMARK  status: ('A' for Active; 'I' for Inactive)
REMARK    1  A    between atoms: N_1  and  C_2
REMARK    2  A    between atoms: C_2  and  C_4
REMARK    3  A    between atoms: C_2  and  C_30
REMARK    4  A    between atoms: C_4  and  C_5
REMARK    5  A    between atoms: C_5  and  C_6
REMARK    6  A    between atoms: N_8  and  C_9
REMARK    7  A    between atoms: C_9  and  C_11
REMARK    8  A    between atoms: C_9  and  C_23
REMARK    9  A    between atoms: C_11  and  S_12
REMARK   10  A    between atoms: S_12  and  C_13
REMARK   11  A    between atoms: C_13  and  C_14
REMARK   12  A    between atoms: C_17  and  N_20
REMARK   13  A    between atoms: N_25  and  CA_26
REMARK   14  A    between atoms: CA_26  and  C_27
REMARK   15  A    between atoms: C_27  and  O_28
REMARK   16  A    between atoms: C_30  and  O_31
REMARK                            x       y       z     vdW  Elec       q    Type
REMARK                         _______ _______ _______ _____ _____    ______ ____
ROOT
ATOM      1  C   UNK A   1       9.244   2.747  24.093  0.00  0.00    +0.169 C 
ENDROOT
BRANCH   1   2
ATOM      2  C   UNK A   1       9.887   4.095  23.687  0.00  0.00    +0.235 C 
ATOM      3  N   GLY A   2      11.246   4.071  23.422  0.00  0.00    -0.303 N 
ATOM      4  H   GLY A   2      11.758   3.213  23.606  0.00  0.00    +0.149 HD
ATOM      5  O   UNK A   1       9.233   5.136  23.646  0.00  0.00    -0.274 OA
BRANCH   3   6
ATOM      6  CA  GLY A   2      11.928   5.318  23.063  0.00  0.00    +0.224 C 
BRANCH   6   7
ATOM      7  C   GLY A   2      13.368   5.361  22.538  0.00  0.00    +0.322 C 
ATOM      8  OXT GLY A   2      13.670   5.903  21.477  0.00  0.00    -0.249 OA
BRANCH   7   9
ATOM      9  O   GLY A   2      14.315   4.898  23.370  0.00  0.00    -0.480 OA
ATOM     10  H   GLY A   2      14.731   5.635  23.862  0.00  0.00    +0.295 HD
ENDBRANCH   7   9
ENDBRANCH   6   7
ENDBRANCH   3   6
ENDBRANCH   1   2
BRANCH   1  12
ATOM     11  C   UNK A   1      10.114   0.605  23.150  0.00  0.00    +0.214 C 
ATOM     12  N   UNK A   1       9.378   1.752  23.014  0.00  0.00    -0.303 N 
ATOM     13  H   UNK A   1       8.795   1.880  22.196  0.00  0.00    +0.149 HD
ATOM     14  O   UNK A   1      10.772   0.344  24.155  0.00  0.00    -0.276 OA
BRANCH  11  15
ATOM     15  C   UNK A   1      10.091  -0.342  21.960  0.00  0.00    +0.098 C 
BRANCH  15  16
ATOM     16  C   UNK A   1       8.934  -1.352  21.919  0.00  0.00    +0.039 C 
BRANCH  16  17
ATOM     17  C   UNK A   1       8.792  -2.284  23.131  0.00  0.00    +0.161 C 
BRANCH  17  18
ATOM     18  N   UNK A   1      10.050  -2.856  23.654  0.00  0.00    -0.318 NA
ATOM     19  H   UNK A   1      10.773  -2.878  22.933  0.00  0.00    +0.119 HD
ATOM     20  H   UNK A   1      10.419  -2.201  24.354  0.00  0.00    +0.119 HD
ENDBRANCH  17  18
BRANCH  17  21
ATOM     21  C   UNK A   1       7.834  -3.390  22.762  0.00  0.00    +0.322 C 
ATOM     22  O   UNK A   1       7.885  -4.519  23.224  0.00  0.00    -0.249 OA
BRANCH  21  23
ATOM     23  O   UNK A   1       6.840  -3.028  21.920  0.00  0.00    -0.480 OA
ATOM     24  H   UNK A   1       7.256  -2.921  21.026  0.00  0.00    +0.295 HD
ENDBRANCH  21  23
ENDBRANCH  17  21
ENDBRANCH  16  17
ENDBRANCH  15  16
ENDBRANCH  11  15
ENDBRANCH   1  12
BRANCH   1  25
ATOM     25  C   UNK A   1       7.763   2.987  24.457  0.00  0.00    +0.101 C 
BRANCH  25  26
ATOM     26  S   UNK A   1       6.627   1.613  24.026  0.00  0.00    -0.154 S 
BRANCH  26  27
ATOM     27  C   UNK A   1       6.170   1.051  25.698  0.00  0.00    +0.104 C 
BRANCH  27  28
ATOM     28  C   UNK A   1       6.708  -0.328  25.993  0.00  0.00    -0.037 A 
ATOM     29  C   UNK A   1       8.028  -0.501  26.431  0.00  0.00    +0.011 A 
ATOM     30  C   UNK A   1       8.532  -1.782  26.676  0.00  0.00    +0.084 A 
ATOM     31  C   UNK A   1       7.710  -2.898  26.484  0.00  0.00    +0.273 A 
ATOM     32  C   UNK A   1       6.389  -2.743  26.048  0.00  0.00    +0.084 A 
ATOM     33  C   UNK A   1       5.898  -1.462  25.798  0.00  0.00    +0.011 A 
BRANCH  31  34
ATOM     34  N   UNK A   1       8.230  -4.236  26.744  0.00  0.00    +0.080 N 
ATOM     35  O   UNK A   1       9.329  -4.542  26.251  0.00  0.00    +0.041 OA
ATOM     36  O   UNK A   1       7.559  -4.997  27.465  0.00  0.00    -0.576 OA
ENDBRANCH  31  34
ENDBRANCH  27  28
ENDBRANCH  26  27
ENDBRANCH  25  26
ENDBRANCH   1  25
TORSDOF 16
ENDMDL
MODEL 3
REMARK VINA RESULT:      -6.3      2.594      4.452
REMARK  Name = 
REMARK  16 active torsions:
REMARK  status: ('A' for Active; 'I' for Inactive)
REMARK    1  A    between atoms: N_1  and  C_2
REMARK    2  A    between atoms: C_2  and  C_4
REMARK    3  A    between atoms: C_2  and  C_30
REMARK    4  A    between atoms: C_4  and  C_5
REMARK    5  A    between atoms: C_5  and  C_6
REMARK    6  A    between atoms: N_8  and  C_9
REMARK    7  A    between atoms: C_9  and  C_11
REMARK    8  A    between atoms: C_9  and  C_23
REMARK    9  A    between atoms: C_11  and  S_12
REMARK   10  A    between atoms: S_12  and  C_13
REMARK   11  A    between atoms: C_13  and  C_14
REMARK   12  A    between atoms: C_17  and  N_20
REMARK   13  A    between atoms: N_25  and  CA_26
REMARK   14  A    between atoms: CA_26  and  C_27
REMARK   15  A    between atoms: C_27  and  O_28
REMARK   16  A    between atoms: C_30  and  O_31
REMARK                            x       y       z     vdW  Elec       q    Type
REMARK                         _______ _______ _______ _____ _____    ______ ____
ROOT
ATOM      1  C   UNK A   1       6.853  -5.339  26.465  0.00  0.00    +0.169 C 
ENDROOT
BRANCH   1   2
ATOM      2  C   UNK A   1       7.441  -5.204  25.040  0.00  0.00    +0.235 C 
ATOM      3  N   GLY A   2       6.529  -5.023  24.015  0.00  0.00    -0.303 N 
ATOM      4  H   GLY A   2       5.539  -5.092  24.233  0.00  0.00    +0.149 HD
ATOM      5  O   UNK A   1       8.650  -5.296  24.829  0.00  0.00    -0.274 OA
BRANCH   3   6
ATOM      6  CA  GLY A   2       7.012  -4.919  22.636  0.00  0.00    +0.224 C 
BRANCH   6   7
ATOM      7  C   GLY A   2       6.092  -5.052  21.416  0.00  0.00    +0.322 C 
ATOM      8  OXT GLY A   2       5.798  -4.096  20.701  0.00  0.00    -0.249 OA
BRANCH   7   9
ATOM      9  O   GLY A   2       5.733  -6.301  21.079  0.00  0.00    -0.480 OA
ATOM     10  H   GLY A   2       6.467  -6.757  20.619  0.00  0.00    +0.295 HD
ENDBRANCH   7   9
ENDBRANCH   6   7
ENDBRANCH   3   6
ENDBRANCH   1   2
BRANCH   1  12
ATOM     11  C   UNK A   1       4.944  -6.690  27.338  0.00  0.00    +0.214 C 
ATOM     12  N   UNK A   1       5.460  -5.815  26.419  0.00  0.00    -0.303 N 
ATOM     13  H   UNK A   1       4.843  -5.369  25.750  0.00  0.00    +0.149 HD
ATOM     14  O   UNK A   1       5.615  -7.197  28.234  0.00  0.00    -0.276 OA
BRANCH  11  15
ATOM     15  C   UNK A   1       3.469  -7.025  27.179  0.00  0.00    +0.098 C 
BRANCH  15  16
ATOM     16  C   UNK A   1       2.748  -6.369  25.992  0.00  0.00    +0.039 C 
BRANCH  16  17
ATOM     17  C   UNK A   1       2.484  -7.260  24.770  0.00  0.00    +0.161 C 
BRANCH  17  18
ATOM     18  N   UNK A   1       2.605  -8.715  24.996  0.00  0.00    -0.318 NA
ATOM     19  H   UNK A   1       2.244  -8.977  25.914  0.00  0.00    +0.119 HD
ATOM     20  H   UNK A   1       1.971  -9.184  24.337  0.00  0.00    +0.119 HD
ENDBRANCH  17  18
BRANCH  17  21
ATOM     21  C   UNK A   1       3.414  -6.827  23.664  0.00  0.00    +0.322 C 
ATOM     22  O   UNK A   1       3.114  -6.020  22.797  0.00  0.00    -0.249 OA
BRANCH  21  23
ATOM     23  O   UNK A   1       4.662  -7.342  23.732  0.00  0.00    -0.480 OA
ATOM     24  H   UNK A   1       4.612  -8.248  23.330  0.00  0.00    +0.295 HD
ENDBRANCH  21  23
ENDBRANCH  17  21
ENDBRANCH  16  17
ENDBRANCH  15  16
ENDBRANCH  11  15
ENDBRANCH   1  12
BRANCH   1  25
ATOM     25  C   UNK A   1       6.959  -3.975  27.184  0.00  0.00    +0.101 C 
BRANCH  25  26
ATOM     26  S   UNK A   1       5.500  -2.881  26.988  0.00  0.00    -0.154 S 
BRANCH  26  27
ATOM     27  C   UNK A   1       6.338  -1.270  26.835  0.00  0.00    +0.104 C 
BRANCH  27  28
ATOM     28  C   UNK A   1       7.220  -1.211  25.610  0.00  0.00    -0.037 A 
ATOM     29  C   UNK A   1       6.671  -1.349  24.328  0.00  0.00    +0.011 A 
ATOM     30  C   UNK A   1       7.493  -1.321  23.198  0.00  0.00    +0.084 A 
ATOM     31  C   UNK A   1       8.874  -1.153  23.349  0.00  0.00    +0.273 A 
ATOM     32  C   UNK A   1       9.439  -1.013  24.623  0.00  0.00    +0.084 A 
ATOM     33  C   UNK A   1       8.611  -1.049  25.745  0.00  0.00    +0.011 A 
BRANCH  31  34
ATOM     34  N   UNK A   1       9.735  -1.117  22.173  0.00  0.00    +0.080 N 
ATOM     35  O   UNK A   1       9.388  -0.403  21.216  0.00  0.00    +0.041 OA
ATOM     36  O   UNK A   1      10.785  -1.785  22.193  0.00  0.00    -0.576 OA
ENDBRANCH  31  34
ENDBRANCH  27  28
ENDBRANCH  26  27
ENDBRANCH  25  26
ENDBRANCH   1  25
TORSDOF 16
ENDMDL
MODEL 4
REMARK VINA RESULT:      -6.3      2.393      7.933
REMARK  Name = 
REMARK  16 active torsions:
REMARK  status: ('A' for Active; 'I' for Inactive)
REMARK    1  A    between atoms: N_1  and  C_2
REMARK    2  A    between atoms: C_2  and  C_4
REMARK    3  A    between atoms: C_2  and  C_30
REMARK    4  A    between atoms: C_4  and  C_5
REMARK    5  A    between atoms: C_5  and  C_6
REMARK    6  A    between atoms: N_8  and  C_9
REMARK    7  A    between atoms: C_9  and  C_11
REMARK    8  A    between atoms: C_9  and  C_23
REMARK    9  A    between atoms: C_11  and  S_12
REMARK   10  A    between atoms: S_12  and  C_13
REMARK   11  A    between atoms: C_13  and  C_14
REMARK   12  A    between atoms: C_17  and  N_20
REMARK   13  A    between atoms: N_25  and  CA_26
REMARK   14  A    between atoms: CA_26  and  C_27
REMARK   15  A    between atoms: C_27  and  O_28
REMARK   16  A    between atoms: C_30  and  O_31
REMARK                            x       y       z     vdW  Elec       q    Type
REMARK                         _______ _______ _______ _____ _____    ______ ____
ROOT
ATOM      1  C   UNK A   1       9.191  -1.876  24.965  0.00  0.00    +0.169 C 
ENDROOT
BRANCH   1   2
ATOM      2  C   UNK A   1       9.587  -0.946  23.794  0.00  0.00    +0.235 C 
ATOM      3  N   GLY A   2       8.825  -1.051  22.643  0.00  0.00    -0.303 N 
ATOM      4  H   GLY A   2       8.130  -1.791  22.591  0.00  0.00    +0.149 HD
ATOM      5  O   UNK A   1      10.552  -0.187  23.869  0.00  0.00    -0.274 OA
BRANCH   3   6
ATOM      6  CA  GLY A   2       9.162  -0.223  21.482  0.00  0.00    +0.224 C 
BRANCH   6   7
ATOM      7  C   GLY A   2       8.967   1.298  21.455  0.00  0.00    +0.322 C 
ATOM      8  OXT GLY A   2       7.856   1.823  21.457  0.00  0.00    -0.249 OA
BRANCH   7   9
ATOM      9  O   GLY A   2      10.081   2.039  21.575  0.00  0.00    -0.480 OA
ATOM     10  H   GLY A   2      10.216   2.307  22.507  0.00  0.00    +0.295 HD
ENDBRANCH   7   9
ENDBRANCH   6   7
ENDBRANCH   3   6
ENDBRANCH   1   2
BRANCH   1  12
ATOM     11  C   UNK A   1       9.011  -4.321  24.494  0.00  0.00    +0.214 C 
ATOM     12  N   UNK A   1       8.469  -3.064  24.476  0.00  0.00    -0.303 N 
ATOM     13  H   UNK A   1       7.491  -2.942  24.241  0.00  0.00    +0.149 HD
ATOM     14  O   UNK A   1      10.163  -4.552  24.857  0.00  0.00    -0.276 OA
BRANCH  11  15
ATOM     15  C   UNK A   1       8.102  -5.442  24.012  0.00  0.00    +0.098 C 
BRANCH  15  16
ATOM     16  C   UNK A   1       7.648  -5.365  22.547  0.00  0.00    +0.039 C 
BRANCH  16  17
ATOM     17  C   UNK A   1       6.162  -5.066  22.302  0.00  0.00    +0.161 C 
BRANCH  17  18
ATOM     18  N   UNK A   1       5.434  -6.054  21.479  0.00  0.00    -0.318 NA
ATOM     19  H   UNK A   1       4.578  -5.653  21.093  0.00  0.00    +0.119 HD
ATOM     20  H   UNK A   1       6.011  -6.250  20.651  0.00  0.00    +0.119 HD
ENDBRANCH  17  18
BRANCH  17  21
ATOM     21  C   UNK A   1       6.055  -3.694  21.684  0.00  0.00    +0.322 C 
ATOM     22  O   UNK A   1       6.338  -2.659  22.266  0.00  0.00    -0.249 OA
BRANCH  21  23
ATOM     23  O   UNK A   1       5.687  -3.681  20.383  0.00  0.00    -0.480 OA
ATOM     24  H   UNK A   1       5.084  -2.901  20.272  0.00  0.00    +0.295 HD
ENDBRANCH  21  23
ENDBRANCH  17  21
ENDBRANCH  16  17
ENDBRANCH  15  16
ENDBRANCH  11  15
ENDBRANCH   1  12
BRANCH   1  25
ATOM     25  C   UNK A   1       8.341  -1.076  25.977  0.00  0.00    +0.101 C 
BRANCH  25  26
ATOM     26  S   UNK A   1       6.535  -1.098  25.659  0.00  0.00    -0.154 S 
BRANCH  26  27
ATOM     27  C   UNK A   1       6.023  -2.369  26.859  0.00  0.00    +0.104 C 
BRANCH  27  28
ATOM     28  C   UNK A   1       5.352  -3.542  26.183  0.00  0.00    -0.037 A 
ATOM     29  C   UNK A   1       4.400  -3.335  25.176  0.00  0.00    +0.011 A 
ATOM     30  C   UNK A   1       3.760  -4.421  24.572  0.00  0.00    +0.084 A 
ATOM     31  C   UNK A   1       4.075  -5.724  24.976  0.00  0.00    +0.273 A 
ATOM     32  C   UNK A   1       5.024  -5.947  25.980  0.00  0.00    +0.084 A 
ATOM     33  C   UNK A   1       5.651  -4.857  26.583  0.00  0.00    +0.011 A 
BRANCH  31  34
ATOM     34  N   UNK A   1       3.414  -6.860  24.345  0.00  0.00    +0.080 N 
ATOM     35  O   UNK A   1       3.486  -7.965  24.909  0.00  0.00    +0.041 OA
ATOM     36  O   UNK A   1       2.793  -6.664  23.285  0.00  0.00    -0.576 OA
ENDBRANCH  31  34
ENDBRANCH  27  28
ENDBRANCH  26  27
ENDBRANCH  25  26
ENDBRANCH   1  25
TORSDOF 16
ENDMDL
MODEL 5
REMARK VINA RESULT:      -6.2      2.621      4.423
REMARK  Name = 
REMARK  16 active torsions:
REMARK  status: ('A' for Active; 'I' for Inactive)
REMARK    1  A    between atoms: N_1  and  C_2
REMARK    2  A    between atoms: C_2  and  C_4
REMARK    3  A    between atoms: C_2  and  C_30
REMARK    4  A    between atoms: C_4  and  C_5
REMARK    5  A    between atoms: C_5  and  C_6
REMARK    6  A    between atoms: N_8  and  C_9
REMARK    7  A    between atoms: C_9  and  C_11
REMARK    8  A    between atoms: C_9  and  C_23
REMARK    9  A    between atoms: C_11  and  S_12
REMARK   10  A    between atoms: S_12  and  C_13
REMARK   11  A    between atoms: C_13  and  C_14
REMARK   12  A    between atoms: C_17  and  N_20
REMARK   13  A    between atoms: N_25  and  CA_26
REMARK   14  A    between atoms: CA_26  and  C_27
REMARK   15  A    between atoms: C_27  and  O_28
REMARK   16  A    between atoms: C_30  and  O_31
REMARK                            x       y       z     vdW  Elec       q    Type
REMARK                         _______ _______ _______ _____ _____    ______ ____
ROOT
ATOM      1  C   UNK A   1       6.288  -2.257  23.052  0.00  0.00    +0.169 C 
ENDROOT
BRANCH   1   2
ATOM      2  C   UNK A   1       6.465  -1.066  24.024  0.00  0.00    +0.235 C 
ATOM      3  N   GLY A   2       6.231  -1.328  25.363  0.00  0.00    -0.303 N 
ATOM      4  H   GLY A   2       5.861  -2.239  25.619  0.00  0.00    +0.149 HD
ATOM      5  O   UNK A   1       6.756   0.059  23.621  0.00  0.00    -0.274 OA
BRANCH   3   6
ATOM      6  CA  GLY A   2       6.349  -0.239  26.337  0.00  0.00    +0.224 C 
BRANCH   6   7
ATOM      7  C   GLY A   2       7.616   0.008  27.165  0.00  0.00    +0.322 C 
ATOM      8  OXT GLY A   2       8.582  -0.751  27.139  0.00  0.00    -0.249 OA
BRANCH   7   9
ATOM      9  O   GLY A   2       7.678   1.180  27.817  0.00  0.00    -0.480 OA
ATOM     10  H   GLY A   2       6.927   1.267  28.439  0.00  0.00    +0.295 HD
ENDBRANCH   7   9
ENDBRANCH   6   7
ENDBRANCH   3   6
ENDBRANCH   1   2
BRANCH   1  12
ATOM     11  C   UNK A   1       5.094  -4.450  23.033  0.00  0.00    +0.214 C 
ATOM     12  N   UNK A   1       5.624  -3.391  23.720  0.00  0.00    -0.303 N 
ATOM     13  H   UNK A   1       5.686  -3.428  24.731  0.00  0.00    +0.149 HD
ATOM     14  O   UNK A   1       5.071  -4.511  21.805  0.00  0.00    -0.276 OA
BRANCH  11  15
ATOM     15  C   UNK A   1       4.505  -5.564  23.884  0.00  0.00    +0.098 C 
BRANCH  15  16
ATOM     16  C   UNK A   1       4.610  -5.384  25.406  0.00  0.00    +0.039 C 
BRANCH  16  17
ATOM     17  C   UNK A   1       5.648  -6.253  26.131  0.00  0.00    +0.161 C 
BRANCH  17  18
ATOM     18  N   UNK A   1       5.145  -7.025  27.287  0.00  0.00    -0.318 NA
ATOM     19  H   UNK A   1       4.328  -6.577  27.702  0.00  0.00    +0.119 HD
ATOM     20  H   UNK A   1       4.784  -7.917  26.928  0.00  0.00    +0.119 HD
ENDBRANCH  17  18
BRANCH  17  21
ATOM     21  C   UNK A   1       6.789  -5.363  26.558  0.00  0.00    +0.322 C 
ATOM     22  O   UNK A   1       6.778  -4.145  26.459  0.00  0.00    -0.249 OA
BRANCH  21  23
ATOM     23  O   UNK A   1       7.825  -6.003  27.143  0.00  0.00    -0.480 OA
ATOM     24  H   UNK A   1       8.621  -5.425  27.011  0.00  0.00    +0.295 HD
ENDBRANCH  21  23
ENDBRANCH  17  21
ENDBRANCH  16  17
ENDBRANCH  15  16
ENDBRANCH  11  15
ENDBRANCH   1  12
BRANCH   1  25
ATOM     25  C   UNK A   1       7.671  -2.662  22.496  0.00  0.00    +0.101 C 
BRANCH  25  26
ATOM     26  S   UNK A   1       9.003  -2.791  23.751  0.00  0.00    -0.154 S 
BRANCH  26  27
ATOM     27  C   UNK A   1      10.327  -1.879  22.894  0.00  0.00    +0.104 C 
BRANCH  27  28
ATOM     28  C   UNK A   1      10.165  -0.384  23.040  0.00  0.00    -0.037 A 
ATOM     29  C   UNK A   1      10.292   0.228  24.294  0.00  0.00    +0.011 A 
ATOM     30  C   UNK A   1      10.114   1.608  24.430  0.00  0.00    +0.084 A 
ATOM     31  C   UNK A   1       9.807   2.382  23.306  0.00  0.00    +0.273 A 
ATOM     32  C   UNK A   1       9.677   1.786  22.046  0.00  0.00    +0.084 A 
ATOM     33  C   UNK A   1       9.849   0.407  21.921  0.00  0.00    +0.011 A 
BRANCH  31  34
ATOM     34  N   UNK A   1       9.625   3.822  23.442  0.00  0.00    +0.080 N 
ATOM     35  O   UNK A   1       8.476   4.280  23.322  0.00  0.00    +0.041 OA
ATOM     36  O   UNK A   1      10.625   4.519  23.695  0.00  0.00    -0.576 OA
ENDBRANCH  31  34
ENDBRANCH  27  28
ENDBRANCH  26  27
ENDBRANCH  25  26
ENDBRANCH   1  25
TORSDOF 16
ENDMDL
MODEL 6
REMARK VINA RESULT:      -6.2      2.893      4.867
REMARK  Name = 
REMARK  16 active torsions:
REMARK  status: ('A' for Active; 'I' for Inactive)
REMARK    1  A    between atoms: N_1  and  C_2
REMARK    2  A    between atoms: C_2  and  C_4
REMARK    3  A    between atoms: C_2  and  C_30
REMARK    4  A    between atoms: C_4  and  C_5
REMARK    5  A    between atoms: C_5  and  C_6
REMARK    6  A    between atoms: N_8  and  C_9
REMARK    7  A    between atoms: C_9  and  C_11
REMARK    8  A    between atoms: C_9  and  C_23
REMARK    9  A    between atoms: C_11  and  S_12
REMARK   10  A    between atoms: S_12  and  C_13
REMARK   11  A    between atoms: C_13  and  C_14
REMARK   12  A    between atoms: C_17  and  N_20
REMARK   13  A    between atoms: N_25  and  CA_26
REMARK   14  A    between atoms: CA_26  and  C_27
REMARK   15  A    between atoms: C_27  and  O_28
REMARK   16  A    between atoms: C_30  and  O_31
REMARK                            x       y       z     vdW  Elec       q    Type
REMARK                         _______ _______ _______ _____ _____    ______ ____
ROOT
ATOM      1  C   UNK A   1       7.742  -2.986  25.759  0.00  0.00    +0.169 C 
ENDROOT
BRANCH   1   2
ATOM      2  C   UNK A   1       6.692  -4.052  26.156  0.00  0.00    +0.235 C 
ATOM      3  N   GLY A   2       6.474  -4.222  27.512  0.00  0.00    -0.303 N 
ATOM      4  H   GLY A   2       7.076  -3.726  28.163  0.00  0.00    +0.149 HD
ATOM      5  O   UNK A   1       6.117  -4.738  25.312  0.00  0.00    -0.274 OA
BRANCH   3   6
ATOM      6  CA  GLY A   2       5.517  -5.237  27.962  0.00  0.00    +0.224 C 
BRANCH   6   7
ATOM      7  C   GLY A   2       5.902  -6.393  28.893  0.00  0.00    +0.322 C 
ATOM      8  OXT GLY A   2       6.427  -6.213  29.990  0.00  0.00    -0.249 OA
BRANCH   7   9
ATOM      9  O   GLY A   2       5.504  -7.618  28.512  0.00  0.00    -0.480 OA
ATOM     10  H   GLY A   2       6.274  -8.212  28.405  0.00  0.00    +0.295 HD
ENDBRANCH   7   9
ENDBRANCH   6   7
ENDBRANCH   3   6
ENDBRANCH   1   2
BRANCH   1  12
ATOM     11  C   UNK A   1       7.977  -0.682  26.692  0.00  0.00    +0.214 C 
ATOM     12  N   UNK A   1       7.241  -1.626  26.027  0.00  0.00    -0.303 N 
ATOM     13  H   UNK A   1       6.369  -1.362  25.584  0.00  0.00    +0.149 HD
ATOM     14  O   UNK A   1       9.085  -0.911  27.175  0.00  0.00    -0.276 OA
BRANCH  11  15
ATOM     15  C   UNK A   1       7.333   0.689  26.824  0.00  0.00    +0.098 C 
BRANCH  15  16
ATOM     16  C   UNK A   1       7.286   1.542  25.548  0.00  0.00    +0.039 C 
BRANCH  16  17
ATOM     17  C   UNK A   1       5.980   1.502  24.741  0.00  0.00    +0.161 C 
BRANCH  17  18
ATOM     18  N   UNK A   1       4.894   0.681  25.316  0.00  0.00    -0.318 NA
ATOM     19  H   UNK A   1       4.984  -0.297  25.039  0.00  0.00    +0.119 HD
ATOM     20  H   UNK A   1       5.026   0.664  26.334  0.00  0.00    +0.119 HD
ENDBRANCH  17  18
BRANCH  17  21
ATOM     21  C   UNK A   1       6.306   1.028  23.346  0.00  0.00    +0.322 C 
ATOM     22  O   UNK A   1       6.498   1.775  22.399  0.00  0.00    -0.249 OA
BRANCH  21  23
ATOM     23  O   UNK A   1       6.450  -0.310  23.215  0.00  0.00    -0.480 OA
ATOM     24  H   UNK A   1       7.406  -0.468  23.001  0.00  0.00    +0.295 HD
ENDBRANCH  21  23
ENDBRANCH  17  21
ENDBRANCH  16  17
ENDBRANCH  15  16
ENDBRANCH  11  15
ENDBRANCH   1  12
BRANCH   1  25
ATOM     25  C   UNK A   1       8.105  -3.169  24.269  0.00  0.00    +0.101 C 
BRANCH  25  26
ATOM     26  S   UNK A   1       9.850  -2.795  23.846  0.00  0.00    -0.154 S 
BRANCH  26  27
ATOM     27  C   UNK A   1       9.595  -1.724  22.393  0.00  0.00    +0.104 C 
BRANCH  27  28
ATOM     28  C   UNK A   1       9.930  -0.282  22.693  0.00  0.00    -0.037 A 
ATOM     29  C   UNK A   1      10.408   0.092  23.957  0.00  0.00    +0.011 A 
ATOM     30  C   UNK A   1      10.691   1.431  24.239  0.00  0.00    +0.084 A 
ATOM     31  C   UNK A   1      10.497   2.404  23.252  0.00  0.00    +0.273 A 
ATOM     32  C   UNK A   1      10.022   2.047  21.985  0.00  0.00    +0.084 A 
ATOM     33  C   UNK A   1       9.735   0.710  21.714  0.00  0.00    +0.011 A 
BRANCH  31  34
ATOM     34  N   UNK A   1      10.797   3.802  23.541  0.00  0.00    +0.080 N 
ATOM     35  O   UNK A   1      11.963   4.197  23.371  0.00  0.00    +0.041 OA
ATOM     36  O   UNK A   1       9.867   4.535  23.922  0.00  0.00    -0.576 OA
ENDBRANCH  31  34
ENDBRANCH  27  28
ENDBRANCH  26  27
ENDBRANCH  25  26
ENDBRANCH   1  25
TORSDOF 16
ENDMDL
MODEL 7
REMARK VINA RESULT:      -6.2      2.243      4.033
REMARK  Name = 
REMARK  16 active torsions:
REMARK  status: ('A' for Active; 'I' for Inactive)
REMARK    1  A    between atoms: N_1  and  C_2
REMARK    2  A    between atoms: C_2  and  C_4
REMARK    3  A    between atoms: C_2  and  C_30
REMARK    4  A    between atoms: C_4  and  C_5
REMARK    5  A    between atoms: C_5  and  C_6
REMARK    6  A    between atoms: N_8  and  C_9
REMARK    7  A    between atoms: C_9  and  C_11
REMARK    8  A    between atoms: C_9  and  C_23
REMARK    9  A    between atoms: C_11  and  S_12
REMARK   10  A    between atoms: S_12  and  C_13
REMARK   11  A    between atoms: C_13  and  C_14
REMARK   12  A    between atoms: C_17  and  N_20
REMARK   13  A    between atoms: N_25  and  CA_26
REMARK   14  A    between atoms: CA_26  and  C_27
REMARK   15  A    between atoms: C_27  and  O_28
REMARK   16  A    between atoms: C_30  and  O_31
REMARK                            x       y       z     vdW  Elec       q    Type
REMARK                         _______ _______ _______ _____ _____    ______ ____
ROOT
ATOM      1  C   UNK A   1       8.109  -2.729  24.131  0.00  0.00    +0.169 C 
ENDROOT
BRANCH   1   2
ATOM      2  C   UNK A   1       7.810  -3.347  25.518  0.00  0.00    +0.235 C 
ATOM      3  N   GLY A   2       6.503  -3.743  25.743  0.00  0.00    -0.303 N 
ATOM      4  H   GLY A   2       5.802  -3.515  25.044  0.00  0.00    +0.149 HD
ATOM      5  O   UNK A   1       8.678  -3.441  26.384  0.00  0.00    -0.274 OA
BRANCH   3   6
ATOM      6  CA  GLY A   2       6.140  -4.308  27.046  0.00  0.00    +0.224 C 
BRANCH   6   7
ATOM      7  C   GLY A   2       6.422  -5.765  27.433  0.00  0.00    +0.322 C 
ATOM      8  OXT GLY A   2       5.591  -6.660  27.292  0.00  0.00    -0.249 OA
BRANCH   7   9
ATOM      9  O   GLY A   2       7.682  -6.046  27.804  0.00  0.00    -0.480 OA
ATOM     10  H   GLY A   2       8.016  -5.367  28.426  0.00  0.00    +0.295 HD
ENDBRANCH   7   9
ENDBRANCH   6   7
ENDBRANCH   3   6
ENDBRANCH   1   2
BRANCH   1  12
ATOM     11  C   UNK A   1       7.894  -4.965  23.040  0.00  0.00    +0.214 C 
ATOM     12  N   UNK A   1       7.652  -3.617  23.047  0.00  0.00    -0.303 N 
ATOM     13  H   UNK A   1       7.030  -3.215  22.355  0.00  0.00    +0.149 HD
ATOM     14  O   UNK A   1       8.565  -5.531  23.901  0.00  0.00    -0.276 OA
BRANCH  11  15
ATOM     15  C   UNK A   1       7.295  -5.740  21.878  0.00  0.00    +0.098 C 
BRANCH  15  16
ATOM     16  C   UNK A   1       5.776  -5.962  21.922  0.00  0.00    +0.039 C 
BRANCH  16  17
ATOM     17  C   UNK A   1       5.120  -5.957  23.310  0.00  0.00    +0.161 C 
BRANCH  17  18
ATOM     18  N   UNK A   1       4.452  -7.213  23.711  0.00  0.00    -0.318 NA
ATOM     19  H   UNK A   1       3.649  -7.027  24.313  0.00  0.00    +0.119 HD
ATOM     20  H   UNK A   1       4.038  -7.626  22.866  0.00  0.00    +0.119 HD
ENDBRANCH  17  18
BRANCH  17  21
ATOM     21  C   UNK A   1       4.142  -4.809  23.362  0.00  0.00    +0.322 C 
ATOM     22  O   UNK A   1       4.453  -3.661  23.637  0.00  0.00    -0.249 OA
BRANCH  21  23
ATOM     23  O   UNK A   1       2.876  -5.119  23.004  0.00  0.00    -0.480 OA
ATOM     24  H   UNK A   1       2.327  -4.317  23.198  0.00  0.00    +0.295 HD
ENDBRANCH  21  23
ENDBRANCH  17  21
ENDBRANCH  16  17
ENDBRANCH  15  16
ENDBRANCH  11  15
ENDBRANCH   1  12
BRANCH   1  25
ATOM     25  C   UNK A   1       9.623  -2.442  24.025  0.00  0.00    +0.101 C 
BRANCH  25  26
ATOM     26  S   UNK A   1      10.118  -1.415  22.588  0.00  0.00    -0.154 S 
BRANCH  26  27
ATOM     27  C   UNK A   1      10.616   0.109  23.453  0.00  0.00    +0.104 C 
BRANCH  27  28
ATOM     28  C   UNK A   1       9.667   1.250  23.172  0.00  0.00    -0.037 A 
ATOM     29  C   UNK A   1       9.454   2.252  24.128  0.00  0.00    +0.011 A 
ATOM     30  C   UNK A   1       8.553   3.292  23.876  0.00  0.00    +0.084 A 
ATOM     31  C   UNK A   1       7.862   3.331  22.659  0.00  0.00    +0.273 A 
ATOM     32  C   UNK A   1       8.065   2.338  21.694  0.00  0.00    +0.084 A 
ATOM     33  C   UNK A   1       8.959   1.301  21.957  0.00  0.00    +0.011 A 
BRANCH  31  34
ATOM     34  N   UNK A   1       6.926   4.416  22.390  0.00  0.00    +0.080 N 
ATOM     35  O   UNK A   1       5.749   4.279  22.765  0.00  0.00    +0.041 OA
ATOM     36  O   UNK A   1       7.357   5.435  21.819  0.00  0.00    -0.576 OA
ENDBRANCH  31  34
ENDBRANCH  27  28
ENDBRANCH  26  27
ENDBRANCH  25  26
ENDBRANCH   1  25
TORSDOF 16
ENDMDL
MODEL 8
REMARK VINA RESULT:      -6.2      2.549      4.602
REMARK  Name = 
REMARK  16 active torsions:
REMARK  status: ('A' for Active; 'I' for Inactive)
REMARK    1  A    between atoms: N_1  and  C_2
REMARK    2  A    between atoms: C_2  and  C_4
REMARK    3  A    between atoms: C_2  and  C_30
REMARK    4  A    between atoms: C_4  and  C_5
REMARK    5  A    between atoms: C_5  and  C_6
REMARK    6  A    between atoms: N_8  and  C_9
REMARK    7  A    between atoms: C_9  and  C_11
REMARK    8  A    between atoms: C_9  and  C_23
REMARK    9  A    between atoms: C_11  and  S_12
REMARK   10  A    between atoms: S_12  and  C_13
REMARK   11  A    between atoms: C_13  and  C_14
REMARK   12  A    between atoms: C_17  and  N_20
REMARK   13  A    between atoms: N_25  and  CA_26
REMARK   14  A    between atoms: CA_26  and  C_27
REMARK   15  A    between atoms: C_27  and  O_28
REMARK   16  A    between atoms: C_30  and  O_31
REMARK                            x       y       z     vdW  Elec       q    Type
REMARK                         _______ _______ _______ _____ _____    ______ ____
ROOT
ATOM      1  C   UNK A   1       5.987  -2.479  23.315  0.00  0.00    +0.169 C 
ENDROOT
BRANCH   1   2
ATOM      2  C   UNK A   1       6.294  -1.136  24.020  0.00  0.00    +0.235 C 
ATOM      3  N   GLY A   2       6.427  -0.029  23.200  0.00  0.00    -0.303 N 
ATOM      4  H   GLY A   2       6.423  -0.171  22.194  0.00  0.00    +0.149 HD
ATOM      5  O   UNK A   1       6.452  -1.067  25.238  0.00  0.00    -0.274 OA
BRANCH   3   6
ATOM      6  CA  GLY A   2       6.750   1.270  23.796  0.00  0.00    +0.224 C 
BRANCH   6   7
ATOM      7  C   GLY A   2       5.694   2.347  24.075  0.00  0.00    +0.322 C 
ATOM      8  OXT GLY A   2       4.514   2.076  24.289  0.00  0.00    -0.249 OA
BRANCH   7   9
ATOM      9  O   GLY A   2       6.151   3.601  24.218  0.00  0.00    -0.480 OA
ATOM     10  H   GLY A   2       6.023   3.911  25.138  0.00  0.00    +0.295 HD
ENDBRANCH   7   9
ENDBRANCH   6   7
ENDBRANCH   3   6
ENDBRANCH   1   2
BRANCH   1  12
ATOM     11  C   UNK A   1       4.413  -4.362  23.772  0.00  0.00    +0.214 C 
ATOM     12  N   UNK A   1       5.280  -3.401  24.220  0.00  0.00    -0.303 N 
ATOM     13  H   UNK A   1       5.556  -3.390  25.195  0.00  0.00    +0.149 HD
ATOM     14  O   UNK A   1       4.106  -4.490  22.588  0.00  0.00    -0.276 OA
BRANCH  11  15
ATOM     15  C   UNK A   1       3.821  -5.271  24.838  0.00  0.00    +0.098 C 
BRANCH  15  16
ATOM     16  C   UNK A   1       4.438  -5.164  26.240  0.00  0.00    +0.039 C 
BRANCH  16  17
ATOM     17  C   UNK A   1       5.575  -6.143  26.567  0.00  0.00    +0.161 C 
BRANCH  17  18
ATOM     18  N   UNK A   1       5.274  -7.154  27.603  0.00  0.00    -0.318 NA
ATOM     19  H   UNK A   1       6.131  -7.552  27.989  0.00  0.00    +0.119 HD
ATOM     20  H   UNK A   1       4.849  -6.663  28.399  0.00  0.00    +0.119 HD
ENDBRANCH  17  18
BRANCH  17  21
ATOM     21  C   UNK A   1       6.788  -5.339  26.963  0.00  0.00    +0.322 C 
ATOM     22  O   UNK A   1       6.949  -4.162  26.678  0.00  0.00    -0.249 OA
BRANCH  21  23
ATOM     23  O   UNK A   1       7.680  -5.994  27.739  0.00  0.00    -0.480 OA
ATOM     24  H   UNK A   1       8.505  -6.088  27.196  0.00  0.00    +0.295 HD
ENDBRANCH  21  23
ENDBRANCH  17  21
ENDBRANCH  16  17
ENDBRANCH  15  16
ENDBRANCH  11  15
ENDBRANCH   1  12
BRANCH   1  25
ATOM     25  C   UNK A   1       7.310  -3.092  22.806  0.00  0.00    +0.101 C 
BRANCH  25  26
ATOM     26  S   UNK A   1       8.765  -2.799  23.883  0.00  0.00    -0.154 S 
BRANCH  26  27
ATOM     27  C   UNK A   1       9.892  -2.022  22.679  0.00  0.00    +0.104 C 
BRANCH  27  28
ATOM     28  C   UNK A   1      10.023  -0.536  22.911  0.00  0.00    -0.037 A 
ATOM     29  C   UNK A   1      10.288  -0.034  24.192  0.00  0.00    +0.011 A 
ATOM     30  C   UNK A   1      10.381   1.344  24.409  0.00  0.00    +0.084 A 
ATOM     31  C   UNK A   1      10.209   2.227  23.337  0.00  0.00    +0.273 A 
ATOM     32  C   UNK A   1       9.943   1.742  22.051  0.00  0.00    +0.084 A 
ATOM     33  C   UNK A   1       9.845   0.366  21.846  0.00  0.00    +0.011 A 
BRANCH  31  34
ATOM     34  N   UNK A   1      10.310   3.665  23.557  0.00  0.00    +0.080 N 
ATOM     35  O   UNK A   1       9.279   4.282  23.877  0.00  0.00    +0.041 OA
ATOM     36  O   UNK A   1      11.427   4.200  23.437  0.00  0.00    -0.576 OA
ENDBRANCH  31  34
ENDBRANCH  27  28
ENDBRANCH  26  27
ENDBRANCH  25  26
ENDBRANCH   1  25
TORSDOF 16
ENDMDL
MODEL 9
REMARK VINA RESULT:      -6.2      3.007      9.077
REMARK  Name = 
REMARK  16 active torsions:
REMARK  status: ('A' for Active; 'I' for Inactive)
REMARK    1  A    between atoms: N_1  and  C_2
REMARK    2  A    between atoms: C_2  and  C_4
REMARK    3  A    between atoms: C_2  and  C_30
REMARK    4  A    between atoms: C_4  and  C_5
REMARK    5  A    between atoms: C_5  and  C_6
REMARK    6  A    between atoms: N_8  and  C_9
REMARK    7  A    between atoms: C_9  and  C_11
REMARK    8  A    between atoms: C_9  and  C_23
REMARK    9  A    between atoms: C_11  and  S_12
REMARK   10  A    between atoms: S_12  and  C_13
REMARK   11  A    between atoms: C_13  and  C_14
REMARK   12  A    between atoms: C_17  and  N_20
REMARK   13  A    between atoms: N_25  and  CA_26
REMARK   14  A    between atoms: CA_26  and  C_27
REMARK   15  A    between atoms: C_27  and  O_28
REMARK   16  A    between atoms: C_30  and  O_31
REMARK                            x       y       z     vdW  Elec       q    Type
REMARK                         _______ _______ _______ _____ _____    ______ ____
ROOT
ATOM      1  C   UNK A   1       8.896   2.109  22.631  0.00  0.00    +0.169 C 
ENDROOT
BRANCH   1   2
ATOM      2  C   UNK A   1       9.761   3.162  23.364  0.00  0.00    +0.235 C 
ATOM      3  N   GLY A   2      10.954   3.509  22.752  0.00  0.00    -0.303 N 
ATOM      4  H   GLY A   2      11.242   2.989  21.928  0.00  0.00    +0.149 HD
ATOM      5  O   UNK A   1       9.426   3.630  24.451  0.00  0.00    -0.274 OA
BRANCH   3   6
ATOM      6  CA  GLY A   2      11.839   4.476  23.406  0.00  0.00    +0.224 C 
BRANCH   6   7
ATOM      7  C   GLY A   2      13.070   5.080  22.718  0.00  0.00    +0.322 C 
ATOM      8  OXT GLY A   2      12.993   5.741  21.685  0.00  0.00    -0.249 OA
BRANCH   7   9
ATOM      9  O   GLY A   2      14.232   4.972  23.383  0.00  0.00    -0.480 OA
ATOM     10  H   GLY A   2      14.966   5.344  22.853  0.00  0.00    +0.295 HD
ENDBRANCH   7   9
ENDBRANCH   6   7
ENDBRANCH   3   6
ENDBRANCH   1   2
BRANCH   1  12
ATOM     11  C   UNK A   1       6.648   1.429  23.477  0.00  0.00    +0.214 C 
ATOM     12  N   UNK A   1       8.013   1.401  23.574  0.00  0.00    -0.303 N 
ATOM     13  H   UNK A   1       8.456   0.774  24.236  0.00  0.00    +0.149 HD
ATOM     14  O   UNK A   1       6.048   2.097  22.637  0.00  0.00    -0.276 OA
BRANCH  11  15
ATOM     15  C   UNK A   1       5.893   0.588  24.495  0.00  0.00    +0.098 C 
BRANCH  15  16
ATOM     16  C   UNK A   1       5.577   1.268  25.835  0.00  0.00    +0.039 C 
BRANCH  16  17
ATOM     17  C   UNK A   1       6.738   1.400  26.831  0.00  0.00    +0.161 C 
BRANCH  17  18
ATOM     18  N   UNK A   1       7.647   2.544  26.610  0.00  0.00    -0.318 NA
ATOM     19  H   UNK A   1       8.209   2.734  27.441  0.00  0.00    +0.119 HD
ATOM     20  H   UNK A   1       8.337   2.259  25.904  0.00  0.00    +0.119 HD
ENDBRANCH  17  18
BRANCH  17  21
ATOM     21  C   UNK A   1       7.517   0.108  26.817  0.00  0.00    +0.322 C 
ATOM     22  O   UNK A   1       7.053  -0.971  27.150  0.00  0.00    -0.249 OA
BRANCH  21  23
ATOM     23  O   UNK A   1       8.774   0.203  26.329  0.00  0.00    -0.480 OA
ATOM     24  H   UNK A   1       9.329  -0.420  26.866  0.00  0.00    +0.295 HD
ENDBRANCH  21  23
ENDBRANCH  17  21
ENDBRANCH  16  17
ENDBRANCH  15  16
ENDBRANCH  11  15
ENDBRANCH   1  12
BRANCH   1  25
ATOM     25  C   UNK A   1       9.825   1.128  21.883  0.00  0.00    +0.101 C 
BRANCH  25  26
ATOM     26  S   UNK A   1      10.305  -0.364  22.836  0.00  0.00    -0.154 S 
BRANCH  26  27
ATOM     27  C   UNK A   1       9.245  -1.605  22.026  0.00  0.00    +0.104 C 
BRANCH  27  28
ATOM     28  C   UNK A   1       8.658  -2.577  23.021  0.00  0.00    -0.037 A 
ATOM     29  C   UNK A   1       9.191  -2.686  24.313  0.00  0.00    +0.011 A 
ATOM     30  C   UNK A   1       8.663  -3.607  25.222  0.00  0.00    +0.084 A 
ATOM     31  C   UNK A   1       7.593  -4.424  24.839  0.00  0.00    +0.273 A 
ATOM     32  C   UNK A   1       7.049  -4.328  23.553  0.00  0.00    +0.084 A 
ATOM     33  C   UNK A   1       7.587  -3.412  22.650  0.00  0.00    +0.011 A 
BRANCH  31  34
ATOM     34  N   UNK A   1       7.036  -5.382  25.787  0.00  0.00    +0.080 N 
ATOM     35  O   UNK A   1       7.750  -5.748  26.736  0.00  0.00    +0.041 OA
ATOM     36  O   UNK A   1       5.866  -5.768  25.612  0.00  0.00    -0.576 OA
ENDBRANCH  31  34
ENDBRANCH  27  28
ENDBRANCH  26  27
ENDBRANCH  25  26
ENDBRANCH   1  25
TORSDOF 16
ENDMDL
