MODEL 1
REMARK VINA RESULT:      -4.0      0.000      0.000
REMARK  Name = 
REMARK  4 active torsions:
REMARK  status: ('A' for Active; 'I' for Inactive)
REMARK    1  A    between atoms: O_1  and  C_2
REMARK    2  A    between atoms: C_2  and  C_4
REMARK    3  A    between atoms: C_2  and  C_8
REMARK    4  A    between atoms: C_5  and  O_6
REMARK                            x       y       z     vdW  Elec       q    Type
REMARK                         _______ _______ _______ _____ _____    ______ ____
ROOT
ATOM      1  C   UNL     1       9.565  -1.001  22.730  0.00  0.00    +0.185 C 
ENDROOT
BRANCH   1   2
ATOM      2  C   UNL     1       9.677  -1.961  23.968  0.00  0.00    +0.074 C 
ATOM      3  O   UNL     1       9.258  -1.447  25.059  0.00  0.00    -0.547 OA
ATOM      4  O   UNL     1      10.265  -3.069  23.789  0.00  0.00    -0.547 OA
ENDBRANCH   1   2
BRANCH   1   5
ATOM      5  C   UNL     1      10.148   0.369  22.993  0.00  0.00    +0.039 C 
ATOM      6  C   UNL     1      10.012   1.518  22.285  0.00  0.00    +0.046 C 
ATOM      7  O   UNL     1      10.519   2.626  22.608  0.00  0.00    -0.848 OA
BRANCH   6   8
ATOM      8  O   UNL     1       9.226   1.405  21.130  0.00  0.00    -0.522 OA
ATOM      9  H   UNL     1       9.856   1.464  20.383  0.00  0.00    +0.290 HD
ENDBRANCH   6   8
ENDBRANCH   1   5
BRANCH   1  10
ATOM     10  O   UNL     1      10.245  -1.622  21.602  0.00  0.00    -0.382 OA
ATOM     11  H   UNL     1      10.219  -0.876  20.954  0.00  0.00    +0.211 HD
ENDBRANCH   1  10
TORSDOF 4
ENDMDL
MODEL 2
REMARK VINA RESULT:      -4.0      1.584      3.795
REMARK  Name = 
REMARK  4 active torsions:
REMARK  status: ('A' for Active; 'I' for Inactive)
REMARK    1  A    between atoms: O_1  and  C_2
REMARK    2  A    between atoms: C_2  and  C_4
REMARK    3  A    between atoms: C_2  and  C_8
REMARK    4  A    between atoms: C_5  and  O_6
REMARK                            x       y       z     vdW  Elec       q    Type
REMARK                         _______ _______ _______ _____ _____    ______ ____
ROOT
ATOM      1  C   UNL     1       9.726   1.723  22.765  0.00  0.00    +0.185 C 
ENDROOT
BRANCH   1   2
ATOM      2  C   UNL     1       8.161   1.857  22.753  0.00  0.00    +0.074 C 
ATOM      3  O   UNL     1       7.648   1.802  21.586  0.00  0.00    -0.547 OA
ATOM      4  O   UNL     1       7.595   2.120  23.855  0.00  0.00    -0.547 OA
ENDBRANCH   1   2
BRANCH   1   5
ATOM      5  C   UNL     1      10.194   0.304  23.000  0.00  0.00    +0.039 C 
ATOM      6  C   UNL     1      10.123  -0.776  22.182  0.00  0.00    +0.046 C 
ATOM      7  O   UNL     1      10.575  -1.919  22.461  0.00  0.00    -0.848 OA
BRANCH   6   8
ATOM      8  O   UNL     1       9.509  -0.537  20.946  0.00  0.00    -0.522 OA
ATOM      9  H   UNL     1       9.113  -1.394  20.684  0.00  0.00    +0.290 HD
ENDBRANCH   6   8
ENDBRANCH   1   5
BRANCH   1  10
ATOM     10  O   UNL     1      10.240   2.211  21.493  0.00  0.00    -0.382 OA
ATOM     11  H   UNL     1      10.186   1.382  20.957  0.00  0.00    +0.211 HD
ENDBRANCH   1  10
TORSDOF 4
ENDMDL
MODEL 3
REMARK VINA RESULT:      -4.0      1.559      3.730
REMARK  Name = 
REMARK  4 active torsions:
REMARK  status: ('A' for Active; 'I' for Inactive)
REMARK    1  A    between atoms: O_1  and  C_2
REMARK    2  A    between atoms: C_2  and  C_4
REMARK    3  A    between atoms: C_2  and  C_8
REMARK    4  A    between atoms: C_5  and  O_6
REMARK                            x       y       z     vdW  Elec       q    Type
REMARK                         _______ _______ _______ _____ _____    ______ ____
ROOT
ATOM      1  C   UNL     1      10.110   1.076  22.213  0.00  0.00    +0.185 C 
ENDROOT
BRANCH   1   2
ATOM      2  C   UNL     1      10.361   1.458  23.715  0.00  0.00    +0.074 C 
ATOM      3  O   UNL     1      11.122   0.641  24.335  0.00  0.00    -0.547 OA
ATOM      4  O   UNL     1       9.706   2.437  24.179  0.00  0.00    -0.547 OA
ENDBRANCH   1   2
BRANCH   1   5
ATOM      5  C   UNL     1       9.127  -0.062  22.051  0.00  0.00    +0.039 C 
ATOM      6  C   UNL     1       9.333  -1.400  22.124  0.00  0.00    +0.046 C 
ATOM      7  O   UNL     1       8.432  -2.274  22.004  0.00  0.00    -0.848 OA
BRANCH   6   8
ATOM      8  O   UNL     1      10.660  -1.777  22.370  0.00  0.00    -0.522 OA
ATOM      9  H   UNL     1      10.604  -2.528  22.995  0.00  0.00    +0.290 HD
ENDBRANCH   6   8
ENDBRANCH   1   5
BRANCH   1  10
ATOM     10  O   UNL     1       9.623   2.256  21.512  0.00  0.00    -0.382 OA
ATOM     11  H   UNL     1       9.232   1.831  20.710  0.00  0.00    +0.211 HD
ENDBRANCH   1  10
TORSDOF 4
ENDMDL
MODEL 4
REMARK VINA RESULT:      -4.0      3.840      5.201
REMARK  Name = 
REMARK  4 active torsions:
REMARK  status: ('A' for Active; 'I' for Inactive)
REMARK    1  A    between atoms: O_1  and  C_2
REMARK    2  A    between atoms: C_2  and  C_4
REMARK    3  A    between atoms: C_2  and  C_8
REMARK    4  A    between atoms: C_5  and  O_6
REMARK                            x       y       z     vdW  Elec       q    Type
REMARK                         _______ _______ _______ _____ _____    ______ ____
ROOT
ATOM      1  C   UNL     1       8.747  -5.549  25.354  0.00  0.00    +0.185 C 
ENDROOT
BRANCH   1   2
ATOM      2  C   UNL     1       8.303  -4.960  26.741  0.00  0.00    +0.074 C 
ATOM      3  O   UNL     1       8.802  -3.814  26.999  0.00  0.00    -0.547 OA
ATOM      4  O   UNL     1       7.615  -5.712  27.494  0.00  0.00    -0.547 OA
ENDBRANCH   1   2
BRANCH   1   5
ATOM      5  C   UNL     1       8.171  -4.790  24.181  0.00  0.00    +0.039 C 
ATOM      6  C   UNL     1       8.572  -3.618  23.626  0.00  0.00    +0.046 C 
ATOM      7  O   UNL     1       8.038  -3.080  22.620  0.00  0.00    -0.848 OA
BRANCH   6   8
ATOM      8  O   UNL     1       9.675  -3.021  24.251  0.00  0.00    -0.522 OA
ATOM      9  H   UNL     1      10.451  -3.539  23.955  0.00  0.00    +0.290 HD
ENDBRANCH   6   8
ENDBRANCH   1   5
BRANCH   1  10
ATOM     10  O   UNL     1      10.203  -5.529  25.291  0.00  0.00    -0.382 OA
ATOM     11  H   UNL     1      10.417  -5.614  26.253  0.00  0.00    +0.211 HD
ENDBRANCH   1  10
TORSDOF 4
ENDMDL
MODEL 5
REMARK VINA RESULT:      -3.9      1.595      2.189
REMARK  Name = 
REMARK  4 active torsions:
REMARK  status: ('A' for Active; 'I' for Inactive)
REMARK    1  A    between atoms: O_1  and  C_2
REMARK    2  A    between atoms: C_2  and  C_4
REMARK    3  A    between atoms: C_2  and  C_8
REMARK    4  A    between atoms: C_5  and  O_6
REMARK                            x       y       z     vdW  Elec       q    Type
REMARK                         _______ _______ _______ _____ _____    ______ ____
ROOT
ATOM      1  C   UNL     1       9.386   0.003  23.387  0.00  0.00    +0.185 C 
ENDROOT
BRANCH   1   2
ATOM      2  C   UNL     1       9.902  -0.847  22.172  0.00  0.00    +0.074 C 
ATOM      3  O   UNL     1       9.395  -0.505  21.050  0.00  0.00    -0.547 OA
ATOM      4  O   UNL     1      10.651  -1.834  22.433  0.00  0.00    -0.547 OA
ENDBRANCH   1   2
BRANCH   1   5
ATOM      5  C   UNL     1      10.242   1.218  23.661  0.00  0.00    +0.039 C 
ATOM      6  C   UNL     1      10.390   2.354  22.935  0.00  0.00    +0.046 C 
ATOM      7  O   UNL     1      11.111   3.332  23.269  0.00  0.00    -0.848 OA
BRANCH   6   8
ATOM      8  O   UNL     1       9.649   2.391  21.747  0.00  0.00    -0.522 OA
ATOM      9  H   UNL     1       9.485   1.454  21.516  0.00  0.00    +0.290 HD
ENDBRANCH   6   8
ENDBRANCH   1   5
BRANCH   1  10
ATOM     10  O   UNL     1       8.015   0.413  23.113  0.00  0.00    -0.382 OA
ATOM     11  H   UNL     1       8.163   0.988  22.322  0.00  0.00    +0.211 HD
ENDBRANCH   1  10
TORSDOF 4
ENDMDL
MODEL 6
REMARK VINA RESULT:      -3.8      5.298      6.779
REMARK  Name = 
REMARK  4 active torsions:
REMARK  status: ('A' for Active; 'I' for Inactive)
REMARK    1  A    between atoms: O_1  and  C_2
REMARK    2  A    between atoms: C_2  and  C_4
REMARK    3  A    between atoms: C_2  and  C_8
REMARK    4  A    between atoms: C_5  and  O_6
REMARK                            x       y       z     vdW  Elec       q    Type
REMARK                         _______ _______ _______ _____ _____    ______ ____
ROOT
ATOM      1  C   UNL     1       7.877  -4.749  24.463  0.00  0.00    +0.185 C 
ENDROOT
BRANCH   1   2
ATOM      2  C   UNL     1       6.973  -5.000  23.204  0.00  0.00    +0.074 C 
ATOM      3  O   UNL     1       6.019  -5.824  23.409  0.00  0.00    -0.547 OA
ATOM      4  O   UNL     1       7.341  -4.471  22.113  0.00  0.00    -0.547 OA
ENDBRANCH   1   2
BRANCH   1   5
ATOM      5  C   UNL     1       7.269  -5.284  25.740  0.00  0.00    +0.039 C 
ATOM      6  C   UNL     1       7.806  -5.372  26.983  0.00  0.00    +0.046 C 
ATOM      7  O   UNL     1       7.200  -5.808  27.998  0.00  0.00    -0.848 OA
BRANCH   6   8
ATOM      8  O   UNL     1       9.126  -4.913  27.085  0.00  0.00    -0.522 OA
ATOM      9  H   UNL     1       9.403  -4.717  26.167  0.00  0.00    +0.290 HD
ENDBRANCH   6   8
ENDBRANCH   1   5
BRANCH   1  10
ATOM     10  O   UNL     1       9.173  -5.372  24.231  0.00  0.00    -0.382 OA
ATOM     11  H   UNL     1       9.257  -5.235  23.255  0.00  0.00    +0.211 HD
ENDBRANCH   1  10
TORSDOF 4
ENDMDL
MODEL 7
REMARK VINA RESULT:      -3.8      1.381      2.295
REMARK  Name = 
REMARK  4 active torsions:
REMARK  status: ('A' for Active; 'I' for Inactive)
REMARK    1  A    between atoms: O_1  and  C_2
REMARK    2  A    between atoms: C_2  and  C_4
REMARK    3  A    between atoms: C_2  and  C_8
REMARK    4  A    between atoms: C_5  and  O_6
REMARK                            x       y       z     vdW  Elec       q    Type
REMARK                         _______ _______ _______ _____ _____    ______ ____
ROOT
ATOM      1  C   UNL     1       8.092  -2.103  23.389  0.00  0.00    +0.185 C 
ENDROOT
BRANCH   1   2
ATOM      2  C   UNL     1       9.103  -2.640  24.464  0.00  0.00    +0.074 C 
ATOM      3  O   UNL     1      10.139  -3.196  23.966  0.00  0.00    -0.547 OA
ATOM      4  O   UNL     1       8.743  -2.579  25.677  0.00  0.00    -0.547 OA
ENDBRANCH   1   2
BRANCH   1   5
ATOM      5  C   UNL     1       8.490  -0.758  22.826  0.00  0.00    +0.039 C 
ATOM      6  C   UNL     1       9.445  -0.450  21.913  0.00  0.00    +0.046 C 
ATOM      7  O   UNL     1       9.680   0.711  21.482  0.00  0.00    -0.848 OA
BRANCH   6   8
ATOM      8  O   UNL     1      10.179  -1.546  21.440  0.00  0.00    -0.522 OA
ATOM      9  H   UNL     1      10.791  -1.177  20.770  0.00  0.00    +0.290 HD
ENDBRANCH   6   8
ENDBRANCH   1   5
BRANCH   1  10
ATOM     10  O   UNL     1       7.999  -3.083  22.314  0.00  0.00    -0.382 OA
ATOM     11  H   UNL     1       8.309  -3.891  22.792  0.00  0.00    +0.211 HD
ENDBRANCH   1  10
TORSDOF 4
ENDMDL
MODEL 8
REMARK VINA RESULT:      -3.7      4.282      6.676
REMARK  Name = 
REMARK  4 active torsions:
REMARK  status: ('A' for Active; 'I' for Inactive)
REMARK    1  A    between atoms: O_1  and  C_2
REMARK    2  A    between atoms: C_2  and  C_4
REMARK    3  A    between atoms: C_2  and  C_8
REMARK    4  A    between atoms: C_5  and  O_6
REMARK                            x       y       z     vdW  Elec       q    Type
REMARK                         _______ _______ _______ _____ _____    ______ ____
ROOT
ATOM      1  C   UNL     1       7.979  -3.624  25.328  0.00  0.00    +0.185 C 
ENDROOT
BRANCH   1   2
ATOM      2  C   UNL     1       9.224  -4.173  24.544  0.00  0.00    +0.074 C 
ATOM      3  O   UNL     1       9.319  -5.447  24.554  0.00  0.00    -0.547 OA
ATOM      4  O   UNL     1      10.049  -3.322  24.099  0.00  0.00    -0.547 OA
ENDBRANCH   1   2
BRANCH   1   5
ATOM      5  C   UNL     1       6.923  -4.679  25.571  0.00  0.00    +0.039 C 
ATOM      6  C   UNL     1       6.875  -5.653  26.514  0.00  0.00    +0.046 C 
ATOM      7  O   UNL     1       5.927  -6.471  26.654  0.00  0.00    -0.848 OA
BRANCH   6   8
ATOM      8  O   UNL     1       7.980  -5.691  27.375  0.00  0.00    -0.522 OA
ATOM      9  H   UNL     1       8.453  -6.519  27.151  0.00  0.00    +0.290 HD
ENDBRANCH   6   8
ENDBRANCH   1   5
BRANCH   1  10
ATOM     10  O   UNL     1       8.438  -3.079  26.598  0.00  0.00    -0.382 OA
ATOM     11  H   UNL     1       7.595  -2.682  26.929  0.00  0.00    +0.211 HD
ENDBRANCH   1  10
TORSDOF 4
ENDMDL
MODEL 9
REMARK VINA RESULT:      -3.7      1.499      2.257
REMARK  Name = 
REMARK  4 active torsions:
REMARK  status: ('A' for Active; 'I' for Inactive)
REMARK    1  A    between atoms: O_1  and  C_2
REMARK    2  A    between atoms: C_2  and  C_4
REMARK    3  A    between atoms: C_2  and  C_8
REMARK    4  A    between atoms: C_5  and  O_6
REMARK                            x       y       z     vdW  Elec       q    Type
REMARK                         _______ _______ _______ _____ _____    ______ ____
ROOT
ATOM      1  C   UNL     1      10.413   0.614  23.947  0.00  0.00    +0.185 C 
ENDROOT
BRANCH   1   2
ATOM      2  C   UNL     1      10.117  -0.806  23.345  0.00  0.00    +0.074 C 
ATOM      3  O   UNL     1       9.923  -1.710  24.225  0.00  0.00    -0.547 OA
ATOM      4  O   UNL     1      10.219  -0.933  22.089  0.00  0.00    -0.547 OA
ENDBRANCH   1   2
BRANCH   1   5
ATOM      5  C   UNL     1       9.319   1.616  23.659  0.00  0.00    +0.039 C 
ATOM      6  C   UNL     1       9.075   2.331  22.532  0.00  0.00    +0.046 C 
ATOM      7  O   UNL     1       8.108   3.125  22.380  0.00  0.00    -0.848 OA
BRANCH   6   8
ATOM      8  O   UNL     1       9.989   2.116  21.493  0.00  0.00    -0.522 OA
ATOM      9  H   UNL     1       9.702   2.711  20.770  0.00  0.00    +0.290 HD
ENDBRANCH   6   8
ENDBRANCH   1   5
BRANCH   1  10
ATOM     10  O   UNL     1      10.592   0.475  25.386  0.00  0.00    -0.382 OA
ATOM     11  H   UNL     1      10.775   1.416  25.628  0.00  0.00    +0.211 HD
ENDBRANCH   1  10
TORSDOF 4
ENDMDL
