MODEL 1
REMARK VINA RESULT:      -7.7      0.000      0.000
REMARK  Name = 
REMARK  5 active torsions:
REMARK  status: ('A' for Active; 'I' for Inactive)
REMARK    1  A    between atoms: C_1  and  C_2
REMARK    2  A    between atoms: C_4  and  C_5
REMARK    3  A    between atoms: C_6  and  C_8
REMARK    4  A    between atoms: N_13  and  C_14
REMARK    5  A    between atoms: C_17  and  C_20
REMARK                            x       y       z     vdW  Elec       q    Type
REMARK                         _______ _______ _______ _____ _____    ______ ____
ROOT
ATOM      1  C   UNL     1       7.984  -2.884  24.018  0.00  0.00    +0.084 A 
ATOM      2  N   UNL     1       8.391  -1.802  24.719  0.00  0.00    -0.214 NA
ATOM      3  C   UNL     1       8.819  -0.727  24.038  0.00  0.00    +0.220 A 
ATOM      4  N   UNL     1       9.167   0.376  24.816  0.00  0.00    -0.284 N 
ATOM      5  H   UNL     1       9.027   0.151  25.790  0.00  0.00    +0.155 HD
ATOM      6  N   UNL     1       8.876  -0.685  22.701  0.00  0.00    -0.223 NA
ATOM      7  C   UNL     1       8.485  -1.775  22.027  0.00  0.00    +0.116 A 
ATOM      8  C   UNL     1       8.024  -2.910  22.639  0.00  0.00    +0.049 A 
ENDROOT
BRANCH   1  12
ATOM      9  C   UNL     1       4.947  -6.497  26.450  0.00  0.00    +0.073 C 
ATOM     10  C   UNL     1       6.080  -5.667  25.962  0.00  0.00    +0.076 A 
ATOM     11  S   UNL     1       5.796  -4.413  24.839  0.00  0.00    -0.071 S 
ATOM     12  C   UNL     1       7.477  -4.002  24.836  0.00  0.00    +0.060 A 
ATOM     13  C   UNL     1       8.137  -4.877  25.700  0.00  0.00    +0.055 A 
ATOM     14  C   UNL     1       9.590  -4.908  26.026  0.00  0.00    +0.067 C 
ATOM     15  N   UNL     1       7.330  -5.814  26.334  0.00  0.00    -0.249 NA
ENDBRANCH   1  12
BRANCH   4  16
ATOM     16  C   UNL     1       9.396   1.720  24.496  0.00  0.00    +0.034 A 
ATOM     17  C   UNL     1       8.535   2.761  24.857  0.00  0.00    +0.024 A 
ATOM     18  C   UNL     1       8.843   4.096  24.571  0.00  0.00    +0.014 A 
ATOM     19  C   UNL     1      10.031   4.430  23.912  0.00  0.00    +0.055 A 
ATOM     20  C   UNL     1      10.891   3.395  23.525  0.00  0.00    +0.014 A 
ATOM     21  C   UNL     1      10.571   2.062  23.809  0.00  0.00    +0.024 A 
BRANCH  19  22
ATOM     22  C   UNL     1      10.362   5.876  23.641  0.00  0.00    +0.417 C 
ATOM     23  F   UNL     1      11.479   6.020  22.874  0.00  0.00    -0.166 F 
ATOM     24  F   UNL     1      10.601   6.578  24.783  0.00  0.00    -0.166 F 
ATOM     25  F   UNL     1       9.374   6.550  22.989  0.00  0.00    -0.166 F 
ENDBRANCH  19  22
ENDBRANCH   4  16
TORSDOF 3
ENDMDL
MODEL 2
REMARK VINA RESULT:      -7.1      1.945      2.560
REMARK  Name = 
REMARK  5 active torsions:
REMARK  status: ('A' for Active; 'I' for Inactive)
REMARK    1  A    between atoms: C_1  and  C_2
REMARK    2  A    between atoms: C_4  and  C_5
REMARK    3  A    between atoms: C_6  and  C_8
REMARK    4  A    between atoms: N_13  and  C_14
REMARK    5  A    between atoms: C_17  and  C_20
REMARK                            x       y       z     vdW  Elec       q    Type
REMARK                         _______ _______ _______ _____ _____    ______ ____
ROOT
ATOM      1  C   UNL     1       7.427  -3.049  23.631  0.00  0.00    +0.084 A 
ATOM      2  N   UNL     1       7.168  -1.724  23.690  0.00  0.00    -0.214 NA
ATOM      3  C   UNL     1       8.188  -0.888  23.945  0.00  0.00    +0.220 A 
ATOM      4  N   UNL     1       7.869   0.468  23.934  0.00  0.00    -0.284 N 
ATOM      5  H   UNL     1       6.887   0.575  23.728  0.00  0.00    +0.155 HD
ATOM      6  N   UNL     1       9.441  -1.310  24.157  0.00  0.00    -0.223 NA
ATOM      7  C   UNL     1       9.671  -2.629  24.110  0.00  0.00    +0.116 A 
ATOM      8  C   UNL     1       8.694  -3.551  23.846  0.00  0.00    +0.049 A 
ENDROOT
BRANCH   1  12
ATOM      9  C   UNL     1       2.638  -5.331  23.382  0.00  0.00    +0.073 C 
ATOM     10  C   UNL     1       4.061  -4.952  23.178  0.00  0.00    +0.076 A 
ATOM     11  S   UNL     1       4.733  -3.653  24.057  0.00  0.00    -0.071 S 
ATOM     12  C   UNL     1       6.265  -3.896  23.292  0.00  0.00    +0.060 A 
ATOM     13  C   UNL     1       6.140  -4.962  22.401  0.00  0.00    +0.055 A 
ATOM     14  C   UNL     1       7.193  -5.540  21.522  0.00  0.00    +0.067 C 
ATOM     15  N   UNL     1       4.883  -5.554  22.350  0.00  0.00    -0.249 NA
ENDBRANCH   1  12
BRANCH   4  16
ATOM     16  C   UNL     1       8.661   1.622  23.890  0.00  0.00    +0.034 A 
ATOM     17  C   UNL     1       9.848   1.721  23.157  0.00  0.00    +0.024 A 
ATOM     18  C   UNL     1      10.567   2.920  23.091  0.00  0.00    +0.014 A 
ATOM     19  C   UNL     1      10.116   4.062  23.761  0.00  0.00    +0.055 A 
ATOM     20  C   UNL     1       8.942   3.970  24.517  0.00  0.00    +0.014 A 
ATOM     21  C   UNL     1       8.231   2.765  24.582  0.00  0.00    +0.024 A 
BRANCH  19  22
ATOM     22  C   UNL     1      10.888   5.353  23.653  0.00  0.00    +0.417 C 
ATOM     23  F   UNL     1      10.196   6.319  22.986  0.00  0.00    -0.166 F 
ATOM     24  F   UNL     1      12.062   5.203  22.979  0.00  0.00    -0.166 F 
ATOM     25  F   UNL     1      11.216   5.897  24.858  0.00  0.00    -0.166 F 
ENDBRANCH  19  22
ENDBRANCH   4  16
TORSDOF 3
ENDMDL
MODEL 3
REMARK VINA RESULT:      -6.9      1.647      2.179
REMARK  Name = 
REMARK  5 active torsions:
REMARK  status: ('A' for Active; 'I' for Inactive)
REMARK    1  A    between atoms: C_1  and  C_2
REMARK    2  A    between atoms: C_4  and  C_5
REMARK    3  A    between atoms: C_6  and  C_8
REMARK    4  A    between atoms: N_13  and  C_14
REMARK    5  A    between atoms: C_17  and  C_20
REMARK                            x       y       z     vdW  Elec       q    Type
REMARK                         _______ _______ _______ _____ _____    ______ ____
ROOT
ATOM      1  C   UNL     1       7.907  -2.815  24.169  0.00  0.00    +0.084 A 
ATOM      2  N   UNL     1       7.304  -1.616  24.333  0.00  0.00    -0.214 NA
ATOM      3  C   UNL     1       8.048  -0.507  24.190  0.00  0.00    +0.220 A 
ATOM      4  N   UNL     1       7.358   0.698  24.311  0.00  0.00    -0.284 N 
ATOM      5  H   UNL     1       6.383   0.504  24.491  0.00  0.00    +0.155 HD
ATOM      6  N   UNL     1       9.357  -0.537  23.911  0.00  0.00    -0.223 NA
ATOM      7  C   UNL     1       9.937  -1.737  23.771  0.00  0.00    +0.116 A 
ATOM      8  C   UNL     1       9.253  -2.918  23.889  0.00  0.00    +0.049 A 
ENDROOT
BRANCH   1  12
ATOM      9  C   UNL     1       4.711  -6.675  25.926  0.00  0.00    +0.073 C 
ATOM     10  C   UNL     1       5.541  -5.765  25.093  0.00  0.00    +0.076 A 
ATOM     11  S   UNL     1       6.336  -4.438  25.814  0.00  0.00    -0.071 S 
ATOM     12  C   UNL     1       7.011  -3.983  24.287  0.00  0.00    +0.060 A 
ATOM     13  C   UNL     1       6.560  -4.889  23.327  0.00  0.00    +0.055 A 
ATOM     14  C   UNL     1       6.877  -4.906  21.872  0.00  0.00    +0.067 C 
ATOM     15  N   UNL     1       5.728  -5.897  23.801  0.00  0.00    -0.249 NA
ENDBRANCH   1  12
BRANCH   4  16
ATOM     16  C   UNL     1       7.697   2.015  23.980  0.00  0.00    +0.034 A 
ATOM     17  C   UNL     1       7.327   2.635  22.782  0.00  0.00    +0.024 A 
ATOM     18  C   UNL     1       7.633   3.977  22.529  0.00  0.00    +0.014 A 
ATOM     19  C   UNL     1       8.323   4.743  23.474  0.00  0.00    +0.055 A 
ATOM     20  C   UNL     1       8.721   4.128  24.668  0.00  0.00    +0.014 A 
ATOM     21  C   UNL     1       8.415   2.783  24.910  0.00  0.00    +0.024 A 
BRANCH  19  22
ATOM     22  C   UNL     1       8.617   6.196  23.198  0.00  0.00    +0.417 C 
ATOM     23  F   UNL     1       8.048   6.631  22.038  0.00  0.00    -0.166 F 
ATOM     24  F   UNL     1       9.951   6.443  23.074  0.00  0.00    -0.166 F 
ATOM     25  F   UNL     1       8.170   7.039  24.169  0.00  0.00    -0.166 F 
ENDBRANCH  19  22
ENDBRANCH   4  16
TORSDOF 3
ENDMDL
MODEL 4
REMARK VINA RESULT:      -6.8      2.805      4.084
REMARK  Name = 
REMARK  5 active torsions:
REMARK  status: ('A' for Active; 'I' for Inactive)
REMARK    1  A    between atoms: C_1  and  C_2
REMARK    2  A    between atoms: C_4  and  C_5
REMARK    3  A    between atoms: C_6  and  C_8
REMARK    4  A    between atoms: N_13  and  C_14
REMARK    5  A    between atoms: C_17  and  C_20
REMARK                            x       y       z     vdW  Elec       q    Type
REMARK                         _______ _______ _______ _____ _____    ______ ____
ROOT
ATOM      1  C   UNL     1       5.400  -5.554  23.564  0.00  0.00    +0.084 A 
ATOM      2  N   UNL     1       5.734  -4.395  24.174  0.00  0.00    -0.214 NA
ATOM      3  C   UNL     1       6.758  -3.685  23.673  0.00  0.00    +0.220 A 
ATOM      4  N   UNL     1       7.014  -2.471  24.308  0.00  0.00    -0.284 N 
ATOM      5  H   UNL     1       6.353  -2.346  25.060  0.00  0.00    +0.155 HD
ATOM      6  N   UNL     1       7.470  -4.081  22.610  0.00  0.00    -0.223 NA
ATOM      7  C   UNL     1       7.132  -5.243  22.033  0.00  0.00    +0.116 A 
ATOM      8  C   UNL     1       6.097  -6.025  22.470  0.00  0.00    +0.049 A 
ENDROOT
BRANCH   1  12
ATOM      9  C   UNL     1       0.639  -7.747  24.413  0.00  0.00    +0.073 C 
ATOM     10  C   UNL     1       2.037  -7.255  24.537  0.00  0.00    +0.076 A 
ATOM     11  S   UNL     1       2.788  -6.481  23.215  0.00  0.00    -0.071 S 
ATOM     12  C   UNL     1       4.231  -6.247  24.141  0.00  0.00    +0.060 A 
ATOM     13  C   UNL     1       4.027  -6.798  25.406  0.00  0.00    +0.055 A 
ATOM     14  C   UNL     1       4.982  -6.833  26.547  0.00  0.00    +0.067 C 
ATOM     15  N   UNL     1       2.774  -7.364  25.616  0.00  0.00    -0.249 NA
ENDBRANCH   1  12
BRANCH   4  16
ATOM     16  C   UNL     1       7.785  -1.361  23.943  0.00  0.00    +0.034 A 
ATOM     17  C   UNL     1       7.382  -0.413  22.998  0.00  0.00    +0.024 A 
ATOM     18  C   UNL     1       8.160   0.716  22.718  0.00  0.00    +0.014 A 
ATOM     19  C   UNL     1       9.373   0.930  23.381  0.00  0.00    +0.055 A 
ATOM     20  C   UNL     1       9.800  -0.025  24.312  0.00  0.00    +0.014 A 
ATOM     21  C   UNL     1       9.018  -1.154  24.582  0.00  0.00    +0.024 A 
BRANCH  19  22
ATOM     22  C   UNL     1      10.184   2.168  23.090  0.00  0.00    +0.417 C 
ATOM     23  F   UNL     1       9.473   3.314  23.283  0.00  0.00    -0.166 F 
ATOM     24  F   UNL     1      10.620   2.213  21.800  0.00  0.00    -0.166 F 
ATOM     25  F   UNL     1      11.298   2.287  23.865  0.00  0.00    -0.166 F 
ENDBRANCH  19  22
ENDBRANCH   4  16
TORSDOF 3
ENDMDL
MODEL 5
REMARK VINA RESULT:      -6.7      1.665      2.511
REMARK  Name = 
REMARK  5 active torsions:
REMARK  status: ('A' for Active; 'I' for Inactive)
REMARK    1  A    between atoms: C_1  and  C_2
REMARK    2  A    between atoms: C_4  and  C_5
REMARK    3  A    between atoms: C_6  and  C_8
REMARK    4  A    between atoms: N_13  and  C_14
REMARK    5  A    between atoms: C_17  and  C_20
REMARK                            x       y       z     vdW  Elec       q    Type
REMARK                         _______ _______ _______ _____ _____    ______ ____
ROOT
ATOM      1  C   UNL     1       7.660  -2.470  25.024  0.00  0.00    +0.084 A 
ATOM      2  N   UNL     1       7.683  -1.366  24.244  0.00  0.00    -0.214 NA
ATOM      3  C   UNL     1       8.254  -0.253  24.735  0.00  0.00    +0.220 A 
ATOM      4  N   UNL     1       8.301   0.832  23.861  0.00  0.00    -0.284 N 
ATOM      5  H   UNL     1       7.878   0.568  22.983  0.00  0.00    +0.155 HD
ATOM      6  N   UNL     1       8.784  -0.185  25.963  0.00  0.00    -0.223 NA
ATOM      7  C   UNL     1       8.733  -1.287  26.724  0.00  0.00    +0.116 A 
ATOM      8  C   UNL     1       8.181  -2.466  26.301  0.00  0.00    +0.049 A 
ENDROOT
BRANCH   1  12
ATOM      9  C   UNL     1       6.224  -6.318  21.658  0.00  0.00    +0.073 C 
ATOM     10  C   UNL     1       6.399  -5.438  22.844  0.00  0.00    +0.076 A 
ATOM     11  S   UNL     1       7.433  -4.084  22.755  0.00  0.00    -0.071 S 
ATOM     12  C   UNL     1       7.066  -3.665  24.393  0.00  0.00    +0.060 A 
ATOM     13  C   UNL     1       6.175  -4.615  24.893  0.00  0.00    +0.055 A 
ATOM     14  C   UNL     1       5.573  -4.670  26.253  0.00  0.00    +0.067 C 
ATOM     15  N   UNL     1       5.803  -5.614  24.000  0.00  0.00    -0.249 NA
ENDBRANCH   1  12
BRANCH   4  16
ATOM     16  C   UNL     1       9.018   2.034  23.890  0.00  0.00    +0.034 A 
ATOM     17  C   UNL     1      10.321   2.173  23.403  0.00  0.00    +0.024 A 
ATOM     18  C   UNL     1      10.969   3.413  23.394  0.00  0.00    +0.014 A 
ATOM     19  C   UNL     1      10.326   4.559  23.874  0.00  0.00    +0.055 A 
ATOM     20  C   UNL     1       9.030   4.429  24.386  0.00  0.00    +0.014 A 
ATOM     21  C   UNL     1       8.391   3.184  24.397  0.00  0.00    +0.024 A 
BRANCH  19  22
ATOM     22  C   UNL     1      11.029   5.893  23.827  0.00  0.00    +0.417 C 
ATOM     23  F   UNL     1      11.753   6.060  22.685  0.00  0.00    -0.166 F 
ATOM     24  F   UNL     1      11.909   6.055  24.854  0.00  0.00    -0.166 F 
ATOM     25  F   UNL     1      10.183   6.958  23.889  0.00  0.00    -0.166 F 
ENDBRANCH  19  22
ENDBRANCH   4  16
TORSDOF 3
ENDMDL
MODEL 6
REMARK VINA RESULT:      -6.7      5.687      9.136
REMARK  Name = 
REMARK  5 active torsions:
REMARK  status: ('A' for Active; 'I' for Inactive)
REMARK    1  A    between atoms: C_1  and  C_2
REMARK    2  A    between atoms: C_4  and  C_5
REMARK    3  A    between atoms: C_6  and  C_8
REMARK    4  A    between atoms: N_13  and  C_14
REMARK    5  A    between atoms: C_17  and  C_20
REMARK                            x       y       z     vdW  Elec       q    Type
REMARK                         _______ _______ _______ _____ _____    ______ ____
ROOT
ATOM      1  C   UNL     1       9.589   2.114  23.975  0.00  0.00    +0.084 A 
ATOM      2  N   UNL     1       8.533   1.452  23.451  0.00  0.00    -0.214 NA
ATOM      3  C   UNL     1       8.559   0.109  23.456  0.00  0.00    +0.220 A 
ATOM      4  N   UNL     1       7.416  -0.515  22.958  0.00  0.00    -0.284 N 
ATOM      5  H   UNL     1       6.752   0.190  22.674  0.00  0.00    +0.155 HD
ATOM      6  N   UNL     1       9.587  -0.600  23.940  0.00  0.00    -0.223 NA
ATOM      7  C   UNL     1      10.631   0.078  24.438  0.00  0.00    +0.116 A 
ATOM      8  C   UNL     1      10.684   1.446  24.482  0.00  0.00    +0.049 A 
ENDROOT
BRANCH   1  12
ATOM      9  C   UNL     1       7.812   7.108  24.292  0.00  0.00    +0.073 C 
ATOM     10  C   UNL     1       8.644   5.887  24.124  0.00  0.00    +0.076 A 
ATOM     11  S   UNL     1       7.951   4.345  24.356  0.00  0.00    -0.071 S 
ATOM     12  C   UNL     1       9.460   3.584  23.982  0.00  0.00    +0.060 A 
ATOM     13  C   UNL     1      10.394   4.585  23.715  0.00  0.00    +0.055 A 
ATOM     14  C   UNL     1      11.826   4.416  23.342  0.00  0.00    +0.067 C 
ATOM     15  N   UNL     1       9.915   5.888  23.797  0.00  0.00    -0.249 NA
ENDBRANCH   1  12
BRANCH   4  16
ATOM     16  C   UNL     1       6.955  -1.835  23.033  0.00  0.00    +0.034 A 
ATOM     17  C   UNL     1       5.866  -2.234  23.814  0.00  0.00    +0.024 A 
ATOM     18  C   UNL     1       5.403  -3.555  23.801  0.00  0.00    +0.014 A 
ATOM     19  C   UNL     1       6.021  -4.521  23.000  0.00  0.00    +0.055 A 
ATOM     20  C   UNL     1       7.127  -4.140  22.232  0.00  0.00    +0.014 A 
ATOM     21  C   UNL     1       7.587  -2.818  22.255  0.00  0.00    +0.024 A 
BRANCH  19  22
ATOM     22  C   UNL     1       5.488  -5.931  22.975  0.00  0.00    +0.417 C 
ATOM     23  F   UNL     1       4.263  -6.016  22.384  0.00  0.00    -0.166 F 
ATOM     24  F   UNL     1       5.336  -6.453  24.224  0.00  0.00    -0.166 F 
ATOM     25  F   UNL     1       6.286  -6.805  22.301  0.00  0.00    -0.166 F 
ENDBRANCH  19  22
ENDBRANCH   4  16
TORSDOF 3
ENDMDL
MODEL 7
REMARK VINA RESULT:      -6.6      5.539      9.260
REMARK  Name = 
REMARK  5 active torsions:
REMARK  status: ('A' for Active; 'I' for Inactive)
REMARK    1  A    between atoms: C_1  and  C_2
REMARK    2  A    between atoms: C_4  and  C_5
REMARK    3  A    between atoms: C_6  and  C_8
REMARK    4  A    between atoms: N_13  and  C_14
REMARK    5  A    between atoms: C_17  and  C_20
REMARK                            x       y       z     vdW  Elec       q    Type
REMARK                         _______ _______ _______ _____ _____    ______ ____
ROOT
ATOM      1  C   UNL     1       8.845   2.383  24.406  0.00  0.00    +0.084 A 
ATOM      2  N   UNL     1       9.265   1.204  23.897  0.00  0.00    -0.214 NA
ATOM      3  C   UNL     1       8.502   0.117  24.098  0.00  0.00    +0.220 A 
ATOM      4  N   UNL     1       8.958  -1.055  23.497  0.00  0.00    -0.284 N 
ATOM      5  H   UNL     1       9.815  -0.861  23.001  0.00  0.00    +0.155 HD
ATOM      6  N   UNL     1       7.357   0.147  24.792  0.00  0.00    -0.223 NA
ATOM      7  C   UNL     1       6.970   1.324  25.302  0.00  0.00    +0.116 A 
ATOM      8  C   UNL     1       7.679   2.483  25.137  0.00  0.00    +0.049 A 
ENDROOT
BRANCH   1  12
ATOM      9  C   UNL     1      12.846   5.552  22.941  0.00  0.00    +0.073 C 
ATOM     10  C   UNL     1      11.552   5.003  23.425  0.00  0.00    +0.076 A 
ATOM     11  S   UNL     1      11.294   3.316  23.438  0.00  0.00    -0.071 S 
ATOM     12  C   UNL     1       9.709   3.539  24.095  0.00  0.00    +0.060 A 
ATOM     13  C   UNL     1       9.492   4.909  24.245  0.00  0.00    +0.055 A 
ATOM     14  C   UNL     1       8.276   5.584  24.776  0.00  0.00    +0.067 C 
ATOM     15  N   UNL     1      10.550   5.727  23.862  0.00  0.00    -0.249 NA
ENDBRANCH   1  12
BRANCH   4  16
ATOM     16  C   UNL     1       8.343  -2.289  23.252  0.00  0.00    +0.034 A 
ATOM     17  C   UNL     1       8.652  -3.462  23.948  0.00  0.00    +0.024 A 
ATOM     18  C   UNL     1       7.960  -4.655  23.711  0.00  0.00    +0.014 A 
ATOM     19  C   UNL     1       6.931  -4.708  22.765  0.00  0.00    +0.055 A 
ATOM     20  C   UNL     1       6.628  -3.547  22.044  0.00  0.00    +0.014 A 
ATOM     21  C   UNL     1       7.330  -2.359  22.284  0.00  0.00    +0.024 A 
BRANCH  19  22
ATOM     22  C   UNL     1       6.175  -5.995  22.545  0.00  0.00    +0.417 C 
ATOM     23  F   UNL     1       5.566  -6.441  23.679  0.00  0.00    -0.166 F 
ATOM     24  F   UNL     1       6.983  -7.010  22.132  0.00  0.00    -0.166 F 
ATOM     25  F   UNL     1       5.190  -5.897  21.609  0.00  0.00    -0.166 F 
ENDBRANCH  19  22
ENDBRANCH   4  16
TORSDOF 3
ENDMDL
MODEL 8
REMARK VINA RESULT:      -6.6      5.905      9.378
REMARK  Name = 
REMARK  5 active torsions:
REMARK  status: ('A' for Active; 'I' for Inactive)
REMARK    1  A    between atoms: C_1  and  C_2
REMARK    2  A    between atoms: C_4  and  C_5
REMARK    3  A    between atoms: C_6  and  C_8
REMARK    4  A    between atoms: N_13  and  C_14
REMARK    5  A    between atoms: C_17  and  C_20
REMARK                            x       y       z     vdW  Elec       q    Type
REMARK                         _______ _______ _______ _____ _____    ______ ____
ROOT
ATOM      1  C   UNL     1       8.719   1.323  22.636  0.00  0.00    +0.084 A 
ATOM      2  N   UNL     1       7.624   0.729  23.162  0.00  0.00    -0.214 NA
ATOM      3  C   UNL     1       7.462  -0.590  22.968  0.00  0.00    +0.220 A 
ATOM      4  N   UNL     1       6.347  -1.154  23.585  0.00  0.00    -0.284 N 
ATOM      5  H   UNL     1       5.846  -0.434  24.085  0.00  0.00    +0.155 HD
ATOM      6  N   UNL     1       8.324  -1.336  22.266  0.00  0.00    -0.223 NA
ATOM      7  C   UNL     1       9.393  -0.723  21.739  0.00  0.00    +0.116 A 
ATOM      8  C   UNL     1       9.643   0.614  21.896  0.00  0.00    +0.049 A 
ENDROOT
BRANCH   1  12
ATOM      9  C   UNL     1      10.435   6.099  24.199  0.00  0.00    +0.073 C 
ATOM     10  C   UNL     1       9.639   4.963  23.663  0.00  0.00    +0.076 A 
ATOM     11  S   UNL     1      10.312   3.395  23.623  0.00  0.00    -0.071 S 
ATOM     12  C   UNL     1       8.854   2.761  22.940  0.00  0.00    +0.060 A 
ATOM     13  C   UNL     1       7.955   3.817  22.783  0.00  0.00    +0.055 A 
ATOM     14  C   UNL     1       6.571   3.759  22.238  0.00  0.00    +0.067 C 
ATOM     15  N   UNL     1       8.415   5.061  23.200  0.00  0.00    -0.249 NA
ENDBRANCH   1  12
BRANCH   4  16
ATOM     16  C   UNL     1       5.982  -2.481  23.840  0.00  0.00    +0.034 A 
ATOM     17  C   UNL     1       6.291  -3.158  25.024  0.00  0.00    +0.024 A 
ATOM     18  C   UNL     1       5.844  -4.464  25.257  0.00  0.00    +0.014 A 
ATOM     19  C   UNL     1       5.069  -5.134  24.305  0.00  0.00    +0.055 A 
ATOM     20  C   UNL     1       4.772  -4.477  23.105  0.00  0.00    +0.014 A 
ATOM     21  C   UNL     1       5.228  -3.173  22.878  0.00  0.00    +0.024 A 
BRANCH  19  22
ATOM     22  C   UNL     1       4.570  -6.529  24.587  0.00  0.00    +0.417 C 
ATOM     23  F   UNL     1       4.977  -7.428  23.648  0.00  0.00    -0.166 F 
ATOM     24  F   UNL     1       3.210  -6.601  24.607  0.00  0.00    -0.166 F 
ATOM     25  F   UNL     1       4.987  -7.028  25.784  0.00  0.00    -0.166 F 
ENDBRANCH  19  22
ENDBRANCH   4  16
TORSDOF 3
ENDMDL
MODEL 9
REMARK VINA RESULT:      -6.2      5.941      9.407
REMARK  Name = 
REMARK  5 active torsions:
REMARK  status: ('A' for Active; 'I' for Inactive)
REMARK    1  A    between atoms: C_1  and  C_2
REMARK    2  A    between atoms: C_4  and  C_5
REMARK    3  A    between atoms: C_6  and  C_8
REMARK    4  A    between atoms: N_13  and  C_14
REMARK    5  A    between atoms: C_17  and  C_20
REMARK                            x       y       z     vdW  Elec       q    Type
REMARK                         _______ _______ _______ _____ _____    ______ ____
ROOT
ATOM      1  C   UNL     1       8.362   0.945  22.731  0.00  0.00    +0.084 A 
ATOM      2  N   UNL     1       7.262   0.444  23.337  0.00  0.00    -0.214 NA
ATOM      3  C   UNL     1       7.023  -0.874  23.231  0.00  0.00    +0.220 A 
ATOM      4  N   UNL     1       5.909  -1.339  23.927  0.00  0.00    -0.284 N 
ATOM      5  H   UNL     1       5.469  -0.564  24.402  0.00  0.00    +0.155 HD
ATOM      6  N   UNL     1       7.814  -1.706  22.542  0.00  0.00    -0.223 NA
ATOM      7  C   UNL     1       8.889  -1.184  21.935  0.00  0.00    +0.116 A 
ATOM      8  C   UNL     1       9.214   0.145  21.998  0.00  0.00    +0.049 A 
ENDROOT
BRANCH   1  12
ATOM      9  C   UNL     1      10.359   5.700  23.994  0.00  0.00    +0.073 C 
ATOM     10  C   UNL     1       9.499   4.582  23.524  0.00  0.00    +0.076 A 
ATOM     11  S   UNL     1      10.071   2.977  23.599  0.00  0.00    -0.071 S 
ATOM     12  C   UNL     1       8.584   2.390  22.939  0.00  0.00    +0.060 A 
ATOM     13  C   UNL     1       7.755   3.486  22.698  0.00  0.00    +0.055 A 
ATOM     14  C   UNL     1       6.375   3.477  22.139  0.00  0.00    +0.067 C 
ATOM     15  N   UNL     1       8.288   4.725  23.038  0.00  0.00    -0.249 NA
ENDBRANCH   1  12
BRANCH   4  16
ATOM     16  C   UNL     1       5.488  -2.627  24.278  0.00  0.00    +0.034 A 
ATOM     17  C   UNL     1       4.677  -3.427  23.467  0.00  0.00    +0.024 A 
ATOM     18  C   UNL     1       4.340  -4.735  23.834  0.00  0.00    +0.014 A 
ATOM     19  C   UNL     1       4.808  -5.283  25.033  0.00  0.00    +0.055 A 
ATOM     20  C   UNL     1       5.601  -4.484  25.866  0.00  0.00    +0.014 A 
ATOM     21  C   UNL     1       5.929  -3.175  25.493  0.00  0.00    +0.024 A 
BRANCH  19  22
ATOM     22  C   UNL     1       4.461  -6.705  25.397  0.00  0.00    +0.417 C 
ATOM     23  F   UNL     1       5.168  -7.155  26.471  0.00  0.00    -0.166 F 
ATOM     24  F   UNL     1       4.720  -7.580  24.387  0.00  0.00    -0.166 F 
ATOM     25  F   UNL     1       3.148  -6.882  25.717  0.00  0.00    -0.166 F 
ENDBRANCH  19  22
ENDBRANCH   4  16
TORSDOF 3
ENDMDL
