MODEL 1
REMARK VINA RESULT:      -6.6      0.000      0.000
REMARK  Name = 
REMARK  5 active torsions:
REMARK  status: ('A' for Active; 'I' for Inactive)
REMARK    1  A    between atoms: N_11  and  C1*_12
REMARK    2  A    between atoms: C4*_15  and  C5*_17
REMARK    3  A    between atoms: C5*_17  and  O5*_18
REMARK    4  A    between atoms: C3*_19  and  O3*_21
REMARK    5  A    between atoms: C2*_22  and  O2*_24
REMARK                            x       y       z     vdW  Elec       q    Type
REMARK                         _______ _______ _______ _____ _____    ______ ____
ROOT
ATOM      1  N   UNL     1       8.693   2.361  25.228  0.00  0.00    -0.341 N 
ATOM      2  H   UNL     1       8.779   2.268  26.234  0.00  0.00    +0.144 HD
ATOM      3  H   UNL     1       9.111   3.172  24.791  0.00  0.00    +0.144 HD
ATOM      4  C   UNL     1       8.941   1.187  24.530  0.00  0.00    +0.150 A 
ATOM      5  C   UNL     1       8.881  -0.086  25.123  0.00  0.00    +0.147 A 
ATOM      6  N   UNL     1       8.614  -0.500  26.408  0.00  0.00    -0.231 NA
ATOM      7  C   UNL     1       8.693  -1.812  26.361  0.00  0.00    +0.203 A 
ATOM      8  N   UNL     1       9.033  -2.270  25.107  0.00  0.00    -0.285 N 
ATOM      9  C   UNL     1       9.132  -1.169  24.298  0.00  0.00    +0.170 A 
ATOM     10  N   UNL     1       9.416  -1.127  22.989  0.00  0.00    -0.182 NA
ATOM     11  C   UNL     1       9.483   0.140  22.535  0.00  0.00    +0.313 A 
ATOM     12  F   UNL     1       9.818   0.284  21.243  0.00  0.00    -0.161 F 
ATOM     13  N   UNL     1       9.272   1.279  23.226  0.00  0.00    -0.185 NA
ENDROOT
BRANCH   8  14
ATOM     14  C1* UNL     1       9.148  -3.669  24.735  0.00  0.00    +0.253 C 
ATOM     15  C2* UNL     1       9.348  -4.713  25.850  0.00  0.00    +0.195 C 
ATOM     16  C3* UNL     1       7.948  -5.267  26.136  0.00  0.00    +0.178 C 
ATOM     17  C4* UNL     1       7.048  -4.506  25.174  0.00  0.00    +0.177 C 
ATOM     18  O4* UNL     1       7.907  -4.084  24.093  0.00  0.00    -0.346 OA
BRANCH  15  19
ATOM     19  O2* UNL     1      10.188  -5.787  25.374  0.00  0.00    -0.385 OA
ATOM     20  H2* UNL     1      11.101  -5.462  25.303  0.00  0.00    +0.210 HD
ENDBRANCH  15  19
BRANCH  16  21
ATOM     21  O3* UNL     1       7.568  -5.029  27.485  0.00  0.00    -0.386 OA
ATOM     22  H3* UNL     1       7.914  -5.754  28.035  0.00  0.00    +0.210 HD
ENDBRANCH  16  21
BRANCH  17  23
ATOM     23  C5* UNL     1       5.898  -5.354  24.643  0.00  0.00    +0.190 C 
BRANCH  23  24
ATOM     24  O5* UNL     1       5.493  -6.304  25.624  0.00  0.00    -0.392 OA
ATOM     25  H5* UNL     1       4.726  -6.779  25.252  0.00  0.00    +0.210 HD
ENDBRANCH  23  24
ENDBRANCH  17  23
ENDBRANCH   8  14
TORSDOF 5
ENDMDL
MODEL 2
REMARK VINA RESULT:      -6.4      2.363      3.145
REMARK  Name = 
REMARK  5 active torsions:
REMARK  status: ('A' for Active; 'I' for Inactive)
REMARK    1  A    between atoms: N_11  and  C1*_12
REMARK    2  A    between atoms: C4*_15  and  C5*_17
REMARK    3  A    between atoms: C5*_17  and  O5*_18
REMARK    4  A    between atoms: C3*_19  and  O3*_21
REMARK    5  A    between atoms: C2*_22  and  O2*_24
REMARK                            x       y       z     vdW  Elec       q    Type
REMARK                         _______ _______ _______ _____ _____    ______ ____
ROOT
ATOM      1  N   UNL     1      10.219   2.239  21.727  0.00  0.00    -0.341 N 
ATOM      2  H   UNL     1      10.948   1.681  21.296  0.00  0.00    +0.144 HD
ATOM      3  H   UNL     1       9.989   3.128  21.302  0.00  0.00    +0.144 HD
ATOM      4  C   UNL     1       9.095   1.511  22.092  0.00  0.00    +0.150 A 
ATOM      5  C   UNL     1       9.107   0.116  22.268  0.00  0.00    +0.147 A 
ATOM      6  N   UNL     1      10.098  -0.828  22.132  0.00  0.00    -0.231 NA
ATOM      7  C   UNL     1       9.519  -1.969  22.438  0.00  0.00    +0.203 A 
ATOM      8  N   UNL     1       8.183  -1.812  22.736  0.00  0.00    -0.285 N 
ATOM      9  C   UNL     1       7.914  -0.472  22.654  0.00  0.00    +0.170 A 
ATOM     10  N   UNL     1       6.753   0.155  22.886  0.00  0.00    -0.182 NA
ATOM     11  C   UNL     1       6.847   1.479  22.653  0.00  0.00    +0.313 A 
ATOM     12  F   UNL     1       5.715   2.184  22.806  0.00  0.00    -0.161 F 
ATOM     13  N   UNL     1       7.934   2.177  22.267  0.00  0.00    -0.185 NA
ENDROOT
BRANCH   8  14
ATOM     14  C1* UNL     1       7.294  -2.880  23.158  0.00  0.00    +0.253 C 
ATOM     15  C2* UNL     1       7.822  -4.328  23.137  0.00  0.00    +0.195 C 
ATOM     16  C3* UNL     1       8.271  -4.611  24.574  0.00  0.00    +0.178 C 
ATOM     17  C4* UNL     1       7.976  -3.315  25.314  0.00  0.00    +0.177 C 
ATOM     18  O4* UNL     1       6.935  -2.665  24.554  0.00  0.00    -0.346 OA
BRANCH  15  19
ATOM     19  O2* UNL     1       6.753  -5.236  22.794  0.00  0.00    -0.385 OA
ATOM     20  H2* UNL     1       6.512  -5.098  21.863  0.00  0.00    +0.210 HD
ENDBRANCH  15  19
BRANCH  16  21
ATOM     21  O3* UNL     1       9.658  -4.922  24.625  0.00  0.00    -0.386 OA
ATOM     22  H3* UNL     1       9.820  -5.476  25.409  0.00  0.00    +0.210 HD
ENDBRANCH  16  21
BRANCH  17  23
ATOM     23  C5* UNL     1       7.524  -3.544  26.751  0.00  0.00    +0.190 C 
BRANCH  23  24
ATOM     24  O5* UNL     1       7.930  -4.836  27.196  0.00  0.00    -0.392 OA
ATOM     25  H5* UNL     1       8.551  -4.693  27.934  0.00  0.00    +0.210 HD
ENDBRANCH  23  24
ENDBRANCH  17  23
ENDBRANCH   8  14
TORSDOF 5
ENDMDL
MODEL 3
REMARK VINA RESULT:      -6.4      3.667      5.974
REMARK  Name = 
REMARK  5 active torsions:
REMARK  status: ('A' for Active; 'I' for Inactive)
REMARK    1  A    between atoms: N_11  and  C1*_12
REMARK    2  A    between atoms: C4*_15  and  C5*_17
REMARK    3  A    between atoms: C5*_17  and  O5*_18
REMARK    4  A    between atoms: C3*_19  and  O3*_21
REMARK    5  A    between atoms: C2*_22  and  O2*_24
REMARK                            x       y       z     vdW  Elec       q    Type
REMARK                         _______ _______ _______ _____ _____    ______ ____
ROOT
ATOM      1  N   UNL     1       9.656  -5.678  25.617  0.00  0.00    -0.341 N 
ATOM      2  H   UNL     1       9.685  -5.289  26.552  0.00  0.00    +0.144 HD
ATOM      3  H   UNL     1       9.564  -6.682  25.525  0.00  0.00    +0.144 HD
ATOM      4  C   UNL     1       8.832  -4.982  24.743  0.00  0.00    +0.150 A 
ATOM      5  C   UNL     1       8.430  -3.653  24.961  0.00  0.00    +0.147 A 
ATOM      6  N   UNL     1       8.679  -2.763  25.980  0.00  0.00    -0.231 NA
ATOM      7  C   UNL     1       8.043  -1.666  25.631  0.00  0.00    +0.203 A 
ATOM      8  N   UNL     1       7.362  -1.814  24.444  0.00  0.00    -0.285 N 
ATOM      9  C   UNL     1       7.625  -3.080  23.992  0.00  0.00    +0.170 A 
ATOM     10  N   UNL     1       7.199  -3.660  22.862  0.00  0.00    -0.182 NA
ATOM     11  C   UNL     1       7.612  -4.940  22.773  0.00  0.00    +0.313 A 
ATOM     12  F   UNL     1       7.186  -5.621  21.698  0.00  0.00    -0.161 F 
ATOM     13  N   UNL     1       8.386  -5.622  23.642  0.00  0.00    -0.185 NA
ENDROOT
BRANCH   8  14
ATOM     14  C1* UNL     1       6.609  -0.764  23.780  0.00  0.00    +0.253 C 
ATOM     15  C2* UNL     1       6.544   0.625  24.443  0.00  0.00    +0.195 C 
ATOM     16  C3* UNL     1       7.632   1.452  23.751  0.00  0.00    +0.178 C 
ATOM     17  C4* UNL     1       8.245   0.486  22.748  0.00  0.00    +0.177 C 
ATOM     18  O4* UNL     1       7.222  -0.498  22.485  0.00  0.00    -0.346 OA
BRANCH  15  19
ATOM     19  O2* UNL     1       5.259   1.234  24.185  0.00  0.00    -0.385 OA
ATOM     20  H2* UNL     1       4.712   0.608  23.682  0.00  0.00    +0.210 HD
ENDBRANCH  15  19
BRANCH  16  21
ATOM     21  O3* UNL     1       8.605   1.902  24.684  0.00  0.00    -0.386 OA
ATOM     22  H3* UNL     1       8.143   2.272  25.457  0.00  0.00    +0.210 HD
ENDBRANCH  16  21
BRANCH  17  23
ATOM     23  C5* UNL     1       8.674   1.170  21.455  0.00  0.00    +0.190 C 
BRANCH  23  24
ATOM     24  O5* UNL     1       9.623   2.196  21.732  0.00  0.00    -0.392 OA
ATOM     25  H5* UNL     1       9.684   2.743  20.926  0.00  0.00    +0.210 HD
ENDBRANCH  23  24
ENDBRANCH  17  23
ENDBRANCH   8  14
TORSDOF 5
ENDMDL
MODEL 4
REMARK VINA RESULT:      -6.3      3.647      6.000
REMARK  Name = 
REMARK  5 active torsions:
REMARK  status: ('A' for Active; 'I' for Inactive)
REMARK    1  A    between atoms: N_11  and  C1*_12
REMARK    2  A    between atoms: C4*_15  and  C5*_17
REMARK    3  A    between atoms: C5*_17  and  O5*_18
REMARK    4  A    between atoms: C3*_19  and  O3*_21
REMARK    5  A    between atoms: C2*_22  and  O2*_24
REMARK                            x       y       z     vdW  Elec       q    Type
REMARK                         _______ _______ _______ _____ _____    ______ ____
ROOT
ATOM      1  N   UNL     1       4.870  -6.417  24.766  0.00  0.00    -0.341 N 
ATOM      2  H   UNL     1       4.810  -5.934  25.656  0.00  0.00    +0.144 HD
ATOM      3  H   UNL     1       4.016  -6.790  24.371  0.00  0.00    +0.144 HD
ATOM      4  C   UNL     1       5.656  -5.766  23.825  0.00  0.00    +0.150 A 
ATOM      5  C   UNL     1       6.620  -4.801  24.165  0.00  0.00    +0.147 A 
ATOM      6  N   UNL     1       7.010  -4.264  25.369  0.00  0.00    -0.231 NA
ATOM      7  C   UNL     1       7.962  -3.409  25.063  0.00  0.00    +0.203 A 
ATOM      8  N   UNL     1       8.185  -3.342  23.705  0.00  0.00    -0.285 N 
ATOM      9  C   UNL     1       7.345  -4.252  23.121  0.00  0.00    +0.170 A 
ATOM     10  N   UNL     1       7.228  -4.555  21.821  0.00  0.00    -0.182 NA
ATOM     11  C   UNL     1       6.254  -5.462  21.607  0.00  0.00    +0.313 A 
ATOM     12  F   UNL     1       6.026  -5.787  20.325  0.00  0.00    -0.161 F 
ATOM     13  N   UNL     1       5.471  -6.066  22.523  0.00  0.00    -0.185 NA
ENDROOT
BRANCH   8  14
ATOM     14  C1* UNL     1       9.205  -2.527  23.069  0.00  0.00    +0.253 C 
ATOM     15  C2* UNL     1       8.758  -1.347  22.184  0.00  0.00    +0.195 C 
ATOM     16  C3* UNL     1       8.836  -0.114  23.090  0.00  0.00    +0.178 C 
ATOM     17  C4* UNL     1       9.316  -0.668  24.424  0.00  0.00    +0.177 C 
ATOM     18  O4* UNL     1      10.010  -1.893  24.106  0.00  0.00    -0.346 OA
BRANCH  15  19
ATOM     19  O2* UNL     1       9.680  -1.179  21.085  0.00  0.00    -0.385 OA
ATOM     20  H2* UNL     1       9.186  -1.243  20.251  0.00  0.00    +0.210 HD
ENDBRANCH  15  19
BRANCH  16  21
ATOM     21  O3* UNL     1       7.563   0.504  23.224  0.00  0.00    -0.386 OA
ATOM     22  H3* UNL     1       7.633   1.211  23.890  0.00  0.00    +0.210 HD
ENDBRANCH  16  21
BRANCH  17  23
ATOM     23  C5* UNL     1      10.239   0.292  25.165  0.00  0.00    +0.190 C 
BRANCH  23  24
ATOM     24  O5* UNL     1       9.904   1.641  24.849  0.00  0.00    -0.392 OA
ATOM     25  H5* UNL     1       9.589   2.050  25.677  0.00  0.00    +0.210 HD
ENDBRANCH  23  24
ENDBRANCH  17  23
ENDBRANCH   8  14
TORSDOF 5
ENDMDL
MODEL 5
REMARK VINA RESULT:      -6.2      1.995      3.359
REMARK  Name = 
REMARK  5 active torsions:
REMARK  status: ('A' for Active; 'I' for Inactive)
REMARK    1  A    between atoms: N_11  and  C1*_12
REMARK    2  A    between atoms: C4*_15  and  C5*_17
REMARK    3  A    between atoms: C5*_17  and  O5*_18
REMARK    4  A    between atoms: C3*_19  and  O3*_21
REMARK    5  A    between atoms: C2*_22  and  O2*_24
REMARK                            x       y       z     vdW  Elec       q    Type
REMARK                         _______ _______ _______ _____ _____    ______ ____
ROOT
ATOM      1  N   UNL     1      10.149   2.066  21.629  0.00  0.00    -0.341 N 
ATOM      2  H   UNL     1      10.038   1.555  20.761  0.00  0.00    +0.144 HD
ATOM      3  H   UNL     1      10.113   3.077  21.591  0.00  0.00    +0.144 HD
ATOM      4  C   UNL     1       9.421   1.543  22.689  0.00  0.00    +0.150 A 
ATOM      5  C   UNL     1       8.939   0.223  22.711  0.00  0.00    +0.147 A 
ATOM      6  N   UNL     1       9.013  -0.808  21.803  0.00  0.00    -0.231 NA
ATOM      7  C   UNL     1       8.384  -1.809  22.379  0.00  0.00    +0.203 A 
ATOM      8  N   UNL     1       7.873  -1.464  23.611  0.00  0.00    -0.285 N 
ATOM      9  C   UNL     1       8.246  -0.167  23.845  0.00  0.00    +0.170 A 
ATOM     10  N   UNL     1       7.999   0.583  24.927  0.00  0.00    -0.182 NA
ATOM     11  C   UNL     1       8.473   1.836  24.783  0.00  0.00    +0.313 A 
ATOM     12  F   UNL     1       8.223   2.679  25.798  0.00  0.00    -0.161 F 
ATOM     13  N   UNL     1       9.152   2.349  23.737  0.00  0.00    -0.185 NA
ENDROOT
BRANCH   8  14
ATOM     14  C1* UNL     1       7.173  -2.370  24.505  0.00  0.00    +0.253 C 
ATOM     15  C2* UNL     1       6.612  -3.685  23.929  0.00  0.00    +0.195 C 
ATOM     16  C3* UNL     1       7.669  -4.746  24.250  0.00  0.00    +0.178 C 
ATOM     17  C4* UNL     1       8.757  -3.972  24.981  0.00  0.00    +0.177 C 
ATOM     18  O4* UNL     1       8.099  -2.815  25.538  0.00  0.00    -0.346 OA
BRANCH  15  19
ATOM     19  O2* UNL     1       5.382  -4.031  24.601  0.00  0.00    -0.385 OA
ATOM     20  H2* UNL     1       4.796  -3.256  24.600  0.00  0.00    +0.210 HD
ENDBRANCH  15  19
BRANCH  16  21
ATOM     21  O3* UNL     1       8.177  -5.340  23.063  0.00  0.00    -0.386 OA
ATOM     22  H3* UNL     1       8.465  -4.630  22.462  0.00  0.00    +0.210 HD
ENDBRANCH  16  21
BRANCH  17  23
ATOM     23  C5* UNL     1       9.426  -4.788  26.080  0.00  0.00    +0.190 C 
BRANCH  23  24
ATOM     24  O5* UNL     1       9.813  -6.065  25.580  0.00  0.00    -0.392 OA
ATOM     25  H5* UNL     1      10.466  -6.424  26.210  0.00  0.00    +0.210 HD
ENDBRANCH  23  24
ENDBRANCH  17  23
ENDBRANCH   8  14
TORSDOF 5
ENDMDL
MODEL 6
REMARK VINA RESULT:      -6.2      2.043      2.647
REMARK  Name = 
REMARK  5 active torsions:
REMARK  status: ('A' for Active; 'I' for Inactive)
REMARK    1  A    between atoms: N_11  and  C1*_12
REMARK    2  A    between atoms: C4*_15  and  C5*_17
REMARK    3  A    between atoms: C5*_17  and  O5*_18
REMARK    4  A    between atoms: C3*_19  and  O3*_21
REMARK    5  A    between atoms: C2*_22  and  O2*_24
REMARK                            x       y       z     vdW  Elec       q    Type
REMARK                         _______ _______ _______ _____ _____    ______ ____
ROOT
ATOM      1  N   UNL     1       6.715   0.939  22.521  0.00  0.00    -0.341 N 
ATOM      2  H   UNL     1       5.751   0.691  22.327  0.00  0.00    +0.144 HD
ATOM      3  H   UNL     1       6.900   1.858  22.901  0.00  0.00    +0.144 HD
ATOM      4  C   UNL     1       7.436  -0.061  23.159  0.00  0.00    +0.150 A 
ATOM      5  C   UNL     1       7.049  -1.413  23.149  0.00  0.00    +0.147 A 
ATOM      6  N   UNL     1       5.971  -2.065  22.597  0.00  0.00    -0.231 NA
ATOM      7  C   UNL     1       6.148  -3.330  22.910  0.00  0.00    +0.203 A 
ATOM      8  N   UNL     1       7.279  -3.525  23.673  0.00  0.00    -0.285 N 
ATOM      9  C   UNL     1       7.878  -2.302  23.811  0.00  0.00    +0.170 A 
ATOM     10  N   UNL     1       9.018  -2.006  24.450  0.00  0.00    -0.182 NA
ATOM     11  C   UNL     1       9.273  -0.683  24.427  0.00  0.00    +0.313 A 
ATOM     12  F   UNL     1      10.369  -0.284  25.092  0.00  0.00    -0.161 F 
ATOM     13  N   UNL     1       8.551   0.289  23.833  0.00  0.00    -0.185 NA
ENDROOT
BRANCH   8  14
ATOM     14  C1* UNL     1       7.762  -4.817  24.129  0.00  0.00    +0.253 C 
ATOM     15  C2* UNL     1       9.047  -4.864  24.977  0.00  0.00    +0.195 C 
ATOM     16  C3* UNL     1       8.568  -4.924  26.430  0.00  0.00    +0.178 C 
ATOM     17  C4* UNL     1       7.050  -4.904  26.317  0.00  0.00    +0.177 C 
ATOM     18  O4* UNL     1       6.754  -5.411  24.999  0.00  0.00    -0.346 OA
BRANCH  15  19
ATOM     19  O2* UNL     1       9.790  -6.067  24.679  0.00  0.00    -0.385 OA
ATOM     20  H2* UNL     1       9.355  -6.818  25.116  0.00  0.00    +0.210 HD
ENDBRANCH  15  19
BRANCH  16  21
ATOM     21  O3* UNL     1       9.037  -3.805  27.172  0.00  0.00    -0.386 OA
ATOM     22  H3* UNL     1       9.021  -4.034  28.118  0.00  0.00    +0.210 HD
ENDBRANCH  16  21
BRANCH  17  23
ATOM     23  C5* UNL     1       6.367  -5.753  27.382  0.00  0.00    +0.190 C 
BRANCH  23  24
ATOM     24  O5* UNL     1       7.339  -6.347  28.238  0.00  0.00    -0.392 OA
ATOM     25  H5* UNL     1       6.982  -7.215  28.504  0.00  0.00    +0.210 HD
ENDBRANCH  23  24
ENDBRANCH  17  23
ENDBRANCH   8  14
TORSDOF 5
ENDMDL
MODEL 7
REMARK VINA RESULT:      -6.2      2.634      3.557
REMARK  Name = 
REMARK  5 active torsions:
REMARK  status: ('A' for Active; 'I' for Inactive)
REMARK    1  A    between atoms: N_11  and  C1*_12
REMARK    2  A    between atoms: C4*_15  and  C5*_17
REMARK    3  A    between atoms: C5*_17  and  O5*_18
REMARK    4  A    between atoms: C3*_19  and  O3*_21
REMARK    5  A    between atoms: C2*_22  and  O2*_24
REMARK                            x       y       z     vdW  Elec       q    Type
REMARK                         _______ _______ _______ _____ _____    ______ ____
ROOT
ATOM      1  N   UNL     1       9.921   2.072  21.505  0.00  0.00    -0.341 N 
ATOM      2  H   UNL     1      10.626   1.495  21.060  0.00  0.00    +0.144 HD
ATOM      3  H   UNL     1       9.572   2.872  20.993  0.00  0.00    +0.144 HD
ATOM      4  C   UNL     1       8.911   1.349  22.125  0.00  0.00    +0.150 A 
ATOM      5  C   UNL     1       9.049   0.001  22.497  0.00  0.00    +0.147 A 
ATOM      6  N   UNL     1      10.080  -0.899  22.360  0.00  0.00    -0.231 NA
ATOM      7  C   UNL     1       9.632  -2.009  22.905  0.00  0.00    +0.203 A 
ATOM      8  N   UNL     1       8.339  -1.880  23.362  0.00  0.00    -0.285 N 
ATOM      9  C   UNL     1       7.964  -0.584  23.127  0.00  0.00    +0.170 A 
ATOM     10  N   UNL     1       6.800   0.007  23.427  0.00  0.00    -0.182 NA
ATOM     11  C   UNL     1       6.764   1.283  22.994  0.00  0.00    +0.313 A 
ATOM     12  F   UNL     1       5.613   1.941  23.202  0.00  0.00    -0.161 F 
ATOM     13  N   UNL     1       7.737   1.971  22.363  0.00  0.00    -0.185 NA
ENDROOT
BRANCH   8  14
ATOM     14  C1* UNL     1       7.594  -2.918  24.053  0.00  0.00    +0.253 C 
ATOM     15  C2* UNL     1       6.066  -2.974  23.867  0.00  0.00    +0.195 C 
ATOM     16  C3* UNL     1       5.833  -4.024  22.777  0.00  0.00    +0.178 C 
ATOM     17  C4* UNL     1       7.234  -4.493  22.412  0.00  0.00    +0.177 C 
ATOM     18  O4* UNL     1       8.048  -4.217  23.572  0.00  0.00    -0.346 OA
BRANCH  15  19
ATOM     19  O2* UNL     1       5.438  -3.421  25.089  0.00  0.00    -0.385 OA
ATOM     20  H2* UNL     1       6.061  -3.297  25.824  0.00  0.00    +0.210 HD
ENDBRANCH  15  19
BRANCH  16  21
ATOM     21  O3* UNL     1       5.177  -3.457  21.650  0.00  0.00    -0.386 OA
ATOM     22  H3* UNL     1       5.800  -3.449  20.903  0.00  0.00    +0.210 HD
ENDBRANCH  16  21
BRANCH  17  23
ATOM     23  C5* UNL     1       7.290  -5.975  22.060  0.00  0.00    +0.190 C 
BRANCH  23  24
ATOM     24  O5* UNL     1       5.992  -6.447  21.711  0.00  0.00    -0.392 OA
ATOM     25  H5* UNL     1       5.363  -5.995  22.305  0.00  0.00    +0.210 HD
ENDBRANCH  23  24
ENDBRANCH  17  23
ENDBRANCH   8  14
TORSDOF 5
ENDMDL
MODEL 8
REMARK VINA RESULT:      -6.1      4.383      5.604
REMARK  Name = 
REMARK  5 active torsions:
REMARK  status: ('A' for Active; 'I' for Inactive)
REMARK    1  A    between atoms: N_11  and  C1*_12
REMARK    2  A    between atoms: C4*_15  and  C5*_17
REMARK    3  A    between atoms: C5*_17  and  O5*_18
REMARK    4  A    between atoms: C3*_19  and  O3*_21
REMARK    5  A    between atoms: C2*_22  and  O2*_24
REMARK                            x       y       z     vdW  Elec       q    Type
REMARK                         _______ _______ _______ _____ _____    ______ ____
ROOT
ATOM      1  N   UNL     1      10.207  -5.417  25.971  0.00  0.00    -0.341 N 
ATOM      2  H   UNL     1      10.178  -5.954  26.830  0.00  0.00    +0.144 HD
ATOM      3  H   UNL     1      10.928  -5.640  25.297  0.00  0.00    +0.144 HD
ATOM      4  C   UNL     1       8.963  -5.228  25.384  0.00  0.00    +0.150 A 
ATOM      5  C   UNL     1       7.753  -5.360  26.088  0.00  0.00    +0.147 A 
ATOM      6  N   UNL     1       7.471  -5.692  27.392  0.00  0.00    -0.231 NA
ATOM      7  C   UNL     1       6.158  -5.646  27.473  0.00  0.00    +0.203 A 
ATOM      8  N   UNL     1       5.572  -5.331  26.267  0.00  0.00    -0.285 N 
ATOM      9  C   UNL     1       6.591  -5.120  25.376  0.00  0.00    +0.170 A 
ATOM     10  N   UNL     1       6.502  -4.765  24.087  0.00  0.00    -0.182 NA
ATOM     11  C   UNL     1       7.715  -4.703  23.503  0.00  0.00    +0.313 A 
ATOM     12  F   UNL     1       7.722  -4.408  22.194  0.00  0.00    -0.161 F 
ATOM     13  N   UNL     1       8.919  -4.920  24.071  0.00  0.00    -0.185 NA
ENDROOT
BRANCH   8  14
ATOM     14  C1* UNL     1       4.146  -5.159  26.055  0.00  0.00    +0.253 C 
ATOM     15  C2* UNL     1       3.657  -4.720  24.662  0.00  0.00    +0.195 C 
ATOM     16  C3* UNL     1       3.250  -6.015  23.953  0.00  0.00    +0.178 C 
ATOM     17  C4* UNL     1       3.534  -7.101  24.980  0.00  0.00    +0.177 C 
ATOM     18  O4* UNL     1       3.486  -6.442  26.263  0.00  0.00    -0.346 OA
BRANCH  15  19
ATOM     19  O2* UNL     1       2.494  -3.873  24.793  0.00  0.00    -0.385 OA
ATOM     20  H2* UNL     1       1.765  -4.398  25.163  0.00  0.00    +0.210 HD
ENDBRANCH  15  19
BRANCH  16  21
ATOM     21  O3* UNL     1       4.017  -6.217  22.773  0.00  0.00    -0.386 OA
ATOM     22  H3* UNL     1       4.845  -5.712  22.854  0.00  0.00    +0.210 HD
ENDBRANCH  16  21
BRANCH  17  23
ATOM     23  C5* UNL     1       2.526  -8.243  24.927  0.00  0.00    +0.190 C 
BRANCH  23  24
ATOM     24  O5* UNL     1       2.234  -8.581  23.574  0.00  0.00    -0.392 OA
ATOM     25  H5* UNL     1       1.278  -8.770  23.535  0.00  0.00    +0.210 HD
ENDBRANCH  23  24
ENDBRANCH  17  23
ENDBRANCH   8  14
TORSDOF 5
ENDMDL
MODEL 9
REMARK VINA RESULT:      -6.0      3.797      5.730
REMARK  Name = 
REMARK  5 active torsions:
REMARK  status: ('A' for Active; 'I' for Inactive)
REMARK    1  A    between atoms: N_11  and  C1*_12
REMARK    2  A    between atoms: C4*_15  and  C5*_17
REMARK    3  A    between atoms: C5*_17  and  O5*_18
REMARK    4  A    between atoms: C3*_19  and  O3*_21
REMARK    5  A    between atoms: C2*_22  and  O2*_24
REMARK                            x       y       z     vdW  Elec       q    Type
REMARK                         _______ _______ _______ _____ _____    ______ ____
ROOT
ATOM      1  N   UNL     1       2.602  -6.273  23.423  0.00  0.00    -0.341 N 
ATOM      2  H   UNL     1       2.155  -6.153  24.325  0.00  0.00    +0.144 HD
ATOM      3  H   UNL     1       2.107  -5.947  22.603  0.00  0.00    +0.144 HD
ATOM      4  C   UNL     1       3.947  -5.929  23.411  0.00  0.00    +0.150 A 
ATOM      5  C   UNL     1       4.730  -5.851  24.576  0.00  0.00    +0.147 A 
ATOM      6  N   UNL     1       4.437  -6.045  25.905  0.00  0.00    -0.231 NA
ATOM      7  C   UNL     1       5.575  -5.841  26.533  0.00  0.00    +0.203 A 
ATOM      8  N   UNL     1       6.590  -5.489  25.671  0.00  0.00    -0.285 N 
ATOM      9  C   UNL     1       6.063  -5.517  24.407  0.00  0.00    +0.170 A 
ATOM     10  N   UNL     1       6.684  -5.272  23.246  0.00  0.00    -0.182 NA
ATOM     11  C   UNL     1       5.833  -5.339  22.202  0.00  0.00    +0.313 A 
ATOM     12  F   UNL     1       6.356  -5.052  21.000  0.00  0.00    -0.161 F 
ATOM     13  N   UNL     1       4.520  -5.642  22.224  0.00  0.00    -0.185 NA
ENDROOT
BRANCH   8  14
ATOM     14  C1* UNL     1       7.968  -5.249  26.062  0.00  0.00    +0.253 C 
ATOM     15  C2* UNL     1       9.021  -5.045  24.957  0.00  0.00    +0.195 C 
ATOM     16  C3* UNL     1       9.166  -3.527  24.815  0.00  0.00    +0.178 C 
ATOM     17  C4* UNL     1       8.190  -2.967  25.840  0.00  0.00    +0.177 C 
ATOM     18  O4* UNL     1       8.026  -4.009  26.826  0.00  0.00    -0.346 OA
BRANCH  15  19
ATOM     19  O2* UNL     1      10.288  -5.599  25.377  0.00  0.00    -0.385 OA
ATOM     20  H2* UNL     1      10.934  -4.877  25.452  0.00  0.00    +0.210 HD
ENDBRANCH  15  19
BRANCH  16  21
ATOM     21  O3* UNL     1       8.827  -3.100  23.502  0.00  0.00    -0.386 OA
ATOM     22  H3* UNL     1       8.479  -2.192  23.554  0.00  0.00    +0.210 HD
ENDBRANCH  16  21
BRANCH  17  23
ATOM     23  C5* UNL     1       8.690  -1.685  26.494  0.00  0.00    +0.190 C 
BRANCH  23  24
ATOM     24  O5* UNL     1       9.236  -0.810  25.510  0.00  0.00    -0.392 OA
ATOM     25  H5* UNL     1      10.198  -0.968  25.502  0.00  0.00    +0.210 HD
ENDBRANCH  23  24
ENDBRANCH  17  23
ENDBRANCH   8  14
TORSDOF 5
ENDMDL
