MODEL 1
REMARK VINA RESULT:      -4.3      0.000      0.000
REMARK  Name = 
REMARK  12 active torsions:
REMARK  status: ('A' for Active; 'I' for Inactive)
REMARK    1  A    between atoms: C_1  and  C_2
REMARK    2  A    between atoms: C_2  and  C_3
REMARK    3  A    between atoms: C_3  and  C_4
REMARK    4  A    between atoms: C_4  and  C_5
REMARK    5  A    between atoms: C_5  and  C_6
REMARK    6  A    between atoms: C_6  and  C_7
REMARK    7  A    between atoms: C_7  and  C_8
REMARK    8  A    between atoms: C_8  and  C_9
REMARK    9  A    between atoms: C_9  and  C_10
REMARK   10  A    between atoms: C_10  and  C_11
REMARK   11  A    between atoms: C_11  and  C_12
REMARK   12  A    between atoms: C_12  and  O_13
REMARK                            x       y       z     vdW  Elec       q    Type
REMARK                         _______ _______ _______ _____ _____    ______ ____
ROOT
ATOM      1  C   UNL     1       8.319   3.068  24.030  0.00  0.00    +0.000 C 
ENDROOT
BRANCH   1   2
ATOM      2  C   UNL     1       9.284   1.883  24.048  0.00  0.00    -0.000 C 
BRANCH   2   3
ATOM      3  C   UNL     1      10.107   1.822  22.762  0.00  0.00    -0.000 C 
BRANCH   3   4
ATOM      4  C   UNL     1       9.382   1.026  21.677  0.00  0.00    -0.000 C 
BRANCH   4   5
ATOM      5  C   UNL     1       8.895  -0.320  22.215  0.00  0.00    -0.000 C 
BRANCH   5   7
ATOM      6  C   UNL     1      10.029  -2.185  23.469  0.00  0.00    +0.004 C 
ATOM      7  C   UNL     1      10.011  -1.364  22.190  0.00  0.00    -0.003 C 
ENDBRANCH   5   7
ENDBRANCH   4   5
ENDBRANCH   3   4
ENDBRANCH   2   3
ENDBRANCH   1   2
BRANCH   1   8
ATOM      8  C   UNL     1       8.940   4.275  23.329  0.00  0.00    +0.000 C 
BRANCH   8   9
ATOM      9  C   UNL     1       9.608   5.215  24.332  0.00  0.00    +0.000 C 
BRANCH   9  10
ATOM     10  C   UNL     1      10.843   5.880  23.725  0.00  0.00    +0.002 C 
BRANCH  10  11
ATOM     11  C   UNL     1      11.953   4.864  23.474  0.00  0.00    +0.028 C 
BRANCH  11  12
ATOM     12  C   UNL     1      13.059   5.449  22.605  0.00  0.00    +0.156 C 
BRANCH  12  13
ATOM     13  O   UNL     1      14.328   5.081  23.127  0.00  0.00    -0.395 OA
ATOM     14  H   UNL     1      14.993   5.280  22.447  0.00  0.00    +0.209 HD
ENDBRANCH  12  13
ENDBRANCH  11  12
ENDBRANCH  10  11
ENDBRANCH   9  10
ENDBRANCH   8   9
ENDBRANCH   1   8
TORSDOF 11
ENDMDL
MODEL 2
REMARK VINA RESULT:      -4.2      3.967      6.630
REMARK  Name = 
REMARK  12 active torsions:
REMARK  status: ('A' for Active; 'I' for Inactive)
REMARK    1  A    between atoms: C_1  and  C_2
REMARK    2  A    between atoms: C_2  and  C_3
REMARK    3  A    between atoms: C_3  and  C_4
REMARK    4  A    between atoms: C_4  and  C_5
REMARK    5  A    between atoms: C_5  and  C_6
REMARK    6  A    between atoms: C_6  and  C_7
REMARK    7  A    between atoms: C_7  and  C_8
REMARK    8  A    between atoms: C_8  and  C_9
REMARK    9  A    between atoms: C_9  and  C_10
REMARK   10  A    between atoms: C_10  and  C_11
REMARK   11  A    between atoms: C_11  and  C_12
REMARK   12  A    between atoms: C_12  and  O_13
REMARK                            x       y       z     vdW  Elec       q    Type
REMARK                         _______ _______ _______ _____ _____    ______ ____
ROOT
ATOM      1  C   UNL     1       9.366  -0.345  21.275  0.00  0.00    +0.000 C 
ENDROOT
BRANCH   1   2
ATOM      2  C   UNL     1       8.910   0.921  22.000  0.00  0.00    -0.000 C 
BRANCH   2   3
ATOM      3  C   UNL     1      10.075   1.888  22.208  0.00  0.00    -0.000 C 
BRANCH   3   4
ATOM      4  C   UNL     1      10.521   1.913  23.669  0.00  0.00    -0.000 C 
BRANCH   4   5
ATOM      5  C   UNL     1       9.418   1.387  24.589  0.00  0.00    -0.000 C 
BRANCH   5   7
ATOM      6  C   UNL     1       8.770  -0.424  26.212  0.00  0.00    +0.004 C 
ATOM      7  C   UNL     1       9.906   0.199  25.418  0.00  0.00    -0.003 C 
ENDBRANCH   5   7
ENDBRANCH   4   5
ENDBRANCH   3   4
ENDBRANCH   2   3
ENDBRANCH   1   2
BRANCH   1   8
ATOM      8  C   UNL     1       9.455  -1.530  22.237  0.00  0.00    +0.000 C 
BRANCH   8   9
ATOM      9  C   UNL     1       8.076  -1.911  22.775  0.00  0.00    +0.000 C 
BRANCH   9  10
ATOM     10  C   UNL     1       8.127  -3.242  23.525  0.00  0.00    +0.002 C 
BRANCH  10  11
ATOM     11  C   UNL     1       9.426  -3.384  24.314  0.00  0.00    +0.028 C 
BRANCH  11  12
ATOM     12  C   UNL     1       9.365  -4.559  25.281  0.00  0.00    +0.156 C 
BRANCH  12  13
ATOM     13  O   UNL     1      10.502  -5.391  25.100  0.00  0.00    -0.395 OA
ATOM     14  H   UNL     1      10.284  -6.037  24.406  0.00  0.00    +0.209 HD
ENDBRANCH  12  13
ENDBRANCH  11  12
ENDBRANCH  10  11
ENDBRANCH   9  10
ENDBRANCH   8   9
ENDBRANCH   1   8
TORSDOF 11
ENDMDL
MODEL 3
REMARK VINA RESULT:      -4.2      4.037      6.924
REMARK  Name = 
REMARK  12 active torsions:
REMARK  status: ('A' for Active; 'I' for Inactive)
REMARK    1  A    between atoms: C_1  and  C_2
REMARK    2  A    between atoms: C_2  and  C_3
REMARK    3  A    between atoms: C_3  and  C_4
REMARK    4  A    between atoms: C_4  and  C_5
REMARK    5  A    between atoms: C_5  and  C_6
REMARK    6  A    between atoms: C_6  and  C_7
REMARK    7  A    between atoms: C_7  and  C_8
REMARK    8  A    between atoms: C_8  and  C_9
REMARK    9  A    between atoms: C_9  and  C_10
REMARK   10  A    between atoms: C_10  and  C_11
REMARK   11  A    between atoms: C_11  and  C_12
REMARK   12  A    between atoms: C_12  and  O_13
REMARK                            x       y       z     vdW  Elec       q    Type
REMARK                         _______ _______ _______ _____ _____    ______ ____
ROOT
ATOM      1  C   UNL     1       9.478  -1.532  24.583  0.00  0.00    +0.000 C 
ENDROOT
BRANCH   1   2
ATOM      2  C   UNL     1       9.793  -0.125  25.090  0.00  0.00    -0.000 C 
BRANCH   2   3
ATOM      3  C   UNL     1      10.792   0.581  24.174  0.00  0.00    -0.000 C 
BRANCH   3   4
ATOM      4  C   UNL     1      10.215   1.885  23.624  0.00  0.00    -0.000 C 
BRANCH   4   5
ATOM      5  C   UNL     1      10.106   1.838  22.100  0.00  0.00    -0.000 C 
BRANCH   5   7
ATOM      6  C   UNL     1       7.666   1.916  22.713  0.00  0.00    +0.004 C 
ATOM      7  C   UNL     1       8.680   1.515  21.654  0.00  0.00    -0.003 C 
ENDBRANCH   5   7
ENDBRANCH   4   5
ENDBRANCH   3   4
ENDBRANCH   2   3
ENDBRANCH   1   2
BRANCH   1   8
ATOM      8  C   UNL     1      10.040  -1.751  23.178  0.00  0.00    +0.000 C 
BRANCH   8   9
ATOM      9  C   UNL     1       8.922  -1.992  22.165  0.00  0.00    +0.000 C 
BRANCH   9  10
ATOM     10  C   UNL     1       7.663  -2.521  22.851  0.00  0.00    +0.002 C 
BRANCH  10  11
ATOM     11  C   UNL     1       7.442  -3.999  22.540  0.00  0.00    +0.028 C 
BRANCH  11  12
ATOM     12  C   UNL     1       7.549  -4.856  23.795  0.00  0.00    +0.156 C 
BRANCH  12  13
ATOM     13  O   UNL     1       8.915  -5.023  24.149  0.00  0.00    -0.395 OA
ATOM     14  H   UNL     1       9.441  -4.449  23.566  0.00  0.00    +0.209 HD
ENDBRANCH  12  13
ENDBRANCH  11  12
ENDBRANCH  10  11
ENDBRANCH   9  10
ENDBRANCH   8   9
ENDBRANCH   1   8
TORSDOF 11
ENDMDL
MODEL 4
REMARK VINA RESULT:      -4.1      4.044      7.429
REMARK  Name = 
REMARK  12 active torsions:
REMARK  status: ('A' for Active; 'I' for Inactive)
REMARK    1  A    between atoms: C_1  and  C_2
REMARK    2  A    between atoms: C_2  and  C_3
REMARK    3  A    between atoms: C_3  and  C_4
REMARK    4  A    between atoms: C_4  and  C_5
REMARK    5  A    between atoms: C_5  and  C_6
REMARK    6  A    between atoms: C_6  and  C_7
REMARK    7  A    between atoms: C_7  and  C_8
REMARK    8  A    between atoms: C_8  and  C_9
REMARK    9  A    between atoms: C_9  and  C_10
REMARK   10  A    between atoms: C_10  and  C_11
REMARK   11  A    between atoms: C_11  and  C_12
REMARK   12  A    between atoms: C_12  and  O_13
REMARK                            x       y       z     vdW  Elec       q    Type
REMARK                         _______ _______ _______ _____ _____    ______ ____
ROOT
ATOM      1  C   UNL     1       8.875  -2.053  22.296  0.00  0.00    +0.000 C 
ENDROOT
BRANCH   1   2
ATOM      2  C   UNL     1      10.154  -1.750  23.075  0.00  0.00    -0.000 C 
BRANCH   2   3
ATOM      3  C   UNL     1       9.855  -0.927  24.328  0.00  0.00    -0.000 C 
BRANCH   3   4
ATOM      4  C   UNL     1      10.680   0.359  24.358  0.00  0.00    -0.000 C 
BRANCH   4   5
ATOM      5  C   UNL     1       9.841   1.559  23.918  0.00  0.00    -0.000 C 
BRANCH   5   7
ATOM      6  C   UNL     1       8.851   1.547  21.604  0.00  0.00    +0.004 C 
ATOM      7  C   UNL     1      10.071   1.888  22.443  0.00  0.00    -0.003 C 
ENDBRANCH   5   7
ENDBRANCH   4   5
ENDBRANCH   3   4
ENDBRANCH   2   3
ENDBRANCH   1   2
BRANCH   1   8
ATOM      8  C   UNL     1       7.687  -2.246  23.238  0.00  0.00    +0.000 C 
BRANCH   8   9
ATOM      9  C   UNL     1       7.059  -3.628  23.062  0.00  0.00    +0.000 C 
BRANCH   9  10
ATOM     10  C   UNL     1       7.952  -4.717  23.653  0.00  0.00    +0.002 C 
BRANCH  10  11
ATOM     11  C   UNL     1       7.899  -4.711  25.179  0.00  0.00    +0.028 C 
BRANCH  11  12
ATOM     12  C   UNL     1       9.296  -4.679  25.786  0.00  0.00    +0.156 C 
BRANCH  12  13
ATOM     13  O   UNL     1      10.218  -5.308  24.906  0.00  0.00    -0.395 OA
ATOM     14  H   UNL     1      10.365  -4.705  24.158  0.00  0.00    +0.209 HD
ENDBRANCH  12  13
ENDBRANCH  11  12
ENDBRANCH  10  11
ENDBRANCH   9  10
ENDBRANCH   8   9
ENDBRANCH   1   8
TORSDOF 11
ENDMDL
MODEL 5
REMARK VINA RESULT:      -4.1      4.407      7.103
REMARK  Name = 
REMARK  12 active torsions:
REMARK  status: ('A' for Active; 'I' for Inactive)
REMARK    1  A    between atoms: C_1  and  C_2
REMARK    2  A    between atoms: C_2  and  C_3
REMARK    3  A    between atoms: C_3  and  C_4
REMARK    4  A    between atoms: C_4  and  C_5
REMARK    5  A    between atoms: C_5  and  C_6
REMARK    6  A    between atoms: C_6  and  C_7
REMARK    7  A    between atoms: C_7  and  C_8
REMARK    8  A    between atoms: C_8  and  C_9
REMARK    9  A    between atoms: C_9  and  C_10
REMARK   10  A    between atoms: C_10  and  C_11
REMARK   11  A    between atoms: C_11  and  C_12
REMARK   12  A    between atoms: C_12  and  O_13
REMARK                            x       y       z     vdW  Elec       q    Type
REMARK                         _______ _______ _______ _____ _____    ______ ____
ROOT
ATOM      1  C   UNL     1       8.723   0.131  25.070  0.00  0.00    +0.000 C 
ENDROOT
BRANCH   1   2
ATOM      2  C   UNL     1      10.249   0.045  25.081  0.00  0.00    -0.000 C 
BRANCH   2   3
ATOM      3  C   UNL     1      10.872   1.210  24.314  0.00  0.00    -0.000 C 
BRANCH   3   4
ATOM      4  C   UNL     1       9.819   1.973  23.512  0.00  0.00    -0.000 C 
BRANCH   4   5
ATOM      5  C   UNL     1      10.025   1.778  22.009  0.00  0.00    -0.000 C 
BRANCH   5   7
ATOM      6  C   UNL     1       9.459  -0.601  21.410  0.00  0.00    +0.004 C 
ATOM      7  C   UNL     1       8.971   0.839  21.422  0.00  0.00    -0.003 C 
ENDBRANCH   5   7
ENDBRANCH   4   5
ENDBRANCH   3   4
ENDBRANCH   2   3
ENDBRANCH   1   2
BRANCH   1   8
ATOM      8  C   UNL     1       8.092  -1.260  25.007  0.00  0.00    +0.000 C 
BRANCH   8   9
ATOM      9  C   UNL     1       9.135  -2.327  24.678  0.00  0.00    +0.000 C 
BRANCH   9  10
ATOM     10  C   UNL     1       8.484  -3.557  24.046  0.00  0.00    +0.002 C 
BRANCH  10  11
ATOM     11  C   UNL     1       8.733  -4.808  24.884  0.00  0.00    +0.028 C 
BRANCH  11  12
ATOM     12  C   UNL     1       7.687  -4.961  25.981  0.00  0.00    +0.156 C 
BRANCH  12  13
ATOM     13  O   UNL     1       8.152  -5.873  26.966  0.00  0.00    -0.395 OA
ATOM     14  H   UNL     1       7.855  -5.545  27.832  0.00  0.00    +0.209 HD
ENDBRANCH  12  13
ENDBRANCH  11  12
ENDBRANCH  10  11
ENDBRANCH   9  10
ENDBRANCH   8   9
ENDBRANCH   1   8
TORSDOF 11
ENDMDL
MODEL 6
REMARK VINA RESULT:      -4.1      2.877      4.484
REMARK  Name = 
REMARK  12 active torsions:
REMARK  status: ('A' for Active; 'I' for Inactive)
REMARK    1  A    between atoms: C_1  and  C_2
REMARK    2  A    between atoms: C_2  and  C_3
REMARK    3  A    between atoms: C_3  and  C_4
REMARK    4  A    between atoms: C_4  and  C_5
REMARK    5  A    between atoms: C_5  and  C_6
REMARK    6  A    between atoms: C_6  and  C_7
REMARK    7  A    between atoms: C_7  and  C_8
REMARK    8  A    between atoms: C_8  and  C_9
REMARK    9  A    between atoms: C_9  and  C_10
REMARK   10  A    between atoms: C_10  and  C_11
REMARK   11  A    between atoms: C_11  and  C_12
REMARK   12  A    between atoms: C_12  and  O_13
REMARK                            x       y       z     vdW  Elec       q    Type
REMARK                         _______ _______ _______ _____ _____    ______ ____
ROOT
ATOM      1  C   UNL     1      10.298  -1.122  22.808  0.00  0.00    +0.000 C 
ENDROOT
BRANCH   1   2
ATOM      2  C   UNL     1       9.073  -1.452  21.956  0.00  0.00    -0.000 C 
BRANCH   2   3
ATOM      3  C   UNL     1       7.779  -1.202  22.730  0.00  0.00    -0.000 C 
BRANCH   3   4
ATOM      4  C   UNL     1       6.835  -2.400  22.634  0.00  0.00    -0.000 C 
BRANCH   4   5
ATOM      5  C   UNL     1       6.921  -3.269  23.890  0.00  0.00    -0.000 C 
BRANCH   5   7
ATOM      6  C   UNL     1       8.921  -4.567  24.695  0.00  0.00    +0.004 C 
ATOM      7  C   UNL     1       7.810  -4.491  23.660  0.00  0.00    -0.003 C 
ENDBRANCH   5   7
ENDBRANCH   4   5
ENDBRANCH   3   4
ENDBRANCH   2   3
ENDBRANCH   1   2
BRANCH   1   8
ATOM      8  C   UNL     1       9.929  -1.013  24.287  0.00  0.00    +0.000 C 
BRANCH   8   9
ATOM      9  C   UNL     1      10.505   0.258  24.910  0.00  0.00    +0.000 C 
BRANCH   9  10
ATOM     10  C   UNL     1      10.645   1.367  23.867  0.00  0.00    +0.002 C 
BRANCH  10  11
ATOM     11  C   UNL     1       9.427   2.286  23.869  0.00  0.00    +0.028 C 
BRANCH  11  12
ATOM     12  C   UNL     1       8.814   2.402  22.480  0.00  0.00    +0.156 C 
BRANCH  12  13
ATOM     13  O   UNL     1       9.793   2.105  21.494  0.00  0.00    -0.395 OA
ATOM     14  H   UNL     1      10.660   2.350  21.860  0.00  0.00    +0.209 HD
ENDBRANCH  12  13
ENDBRANCH  11  12
ENDBRANCH  10  11
ENDBRANCH   9  10
ENDBRANCH   8   9
ENDBRANCH   1   8
TORSDOF 11
ENDMDL
MODEL 7
REMARK VINA RESULT:      -4.1      3.899      6.141
REMARK  Name = 
REMARK  12 active torsions:
REMARK  status: ('A' for Active; 'I' for Inactive)
REMARK    1  A    between atoms: C_1  and  C_2
REMARK    2  A    between atoms: C_2  and  C_3
REMARK    3  A    between atoms: C_3  and  C_4
REMARK    4  A    between atoms: C_4  and  C_5
REMARK    5  A    between atoms: C_5  and  C_6
REMARK    6  A    between atoms: C_6  and  C_7
REMARK    7  A    between atoms: C_7  and  C_8
REMARK    8  A    between atoms: C_8  and  C_9
REMARK    9  A    between atoms: C_9  and  C_10
REMARK   10  A    between atoms: C_10  and  C_11
REMARK   11  A    between atoms: C_11  and  C_12
REMARK   12  A    between atoms: C_12  and  O_13
REMARK                            x       y       z     vdW  Elec       q    Type
REMARK                         _______ _______ _______ _____ _____    ______ ____
ROOT
ATOM      1  C   UNL     1      10.726   1.488  24.115  0.00  0.00    +0.000 C 
ENDROOT
BRANCH   1   2
ATOM      2  C   UNL     1      10.285   2.229  22.852  0.00  0.00    -0.000 C 
BRANCH   2   3
ATOM      3  C   UNL     1       9.664   1.269  21.838  0.00  0.00    -0.000 C 
BRANCH   3   4
ATOM      4  C   UNL     1       8.225   1.666  21.508  0.00  0.00    -0.000 C 
BRANCH   4   5
ATOM      5  C   UNL     1       7.243   1.046  22.502  0.00  0.00    -0.000 C 
BRANCH   5   7
ATOM      6  C   UNL     1       6.968   2.034  24.802  0.00  0.00    +0.004 C 
ATOM      7  C   UNL     1       6.551   2.120  23.342  0.00  0.00    -0.003 C 
ENDBRANCH   5   7
ENDBRANCH   4   5
ENDBRANCH   3   4
ENDBRANCH   2   3
ENDBRANCH   1   2
BRANCH   1   8
ATOM      8  C   UNL     1      10.498  -0.017  23.980  0.00  0.00    +0.000 C 
BRANCH   8   9
ATOM      9  C   UNL     1       9.571  -0.537  25.078  0.00  0.00    +0.000 C 
BRANCH   9  10
ATOM     10  C   UNL     1       8.733  -1.714  24.579  0.00  0.00    +0.002 C 
BRANCH  10  11
ATOM     11  C   UNL     1       9.617  -2.877  24.138  0.00  0.00    +0.028 C 
BRANCH  11  12
ATOM     12  C   UNL     1       9.237  -4.168  24.852  0.00  0.00    +0.156 C 
BRANCH  12  13
ATOM     13  O   UNL     1      10.351  -5.049  24.881  0.00  0.00    -0.395 OA
ATOM     14  H   UNL     1      10.133  -5.815  24.324  0.00  0.00    +0.209 HD
ENDBRANCH  12  13
ENDBRANCH  11  12
ENDBRANCH  10  11
ENDBRANCH   9  10
ENDBRANCH   8   9
ENDBRANCH   1   8
TORSDOF 11
ENDMDL
MODEL 8
REMARK VINA RESULT:      -4.1      4.516      7.917
REMARK  Name = 
REMARK  12 active torsions:
REMARK  status: ('A' for Active; 'I' for Inactive)
REMARK    1  A    between atoms: C_1  and  C_2
REMARK    2  A    between atoms: C_2  and  C_3
REMARK    3  A    between atoms: C_3  and  C_4
REMARK    4  A    between atoms: C_4  and  C_5
REMARK    5  A    between atoms: C_5  and  C_6
REMARK    6  A    between atoms: C_6  and  C_7
REMARK    7  A    between atoms: C_7  and  C_8
REMARK    8  A    between atoms: C_8  and  C_9
REMARK    9  A    between atoms: C_9  and  C_10
REMARK   10  A    between atoms: C_10  and  C_11
REMARK   11  A    between atoms: C_11  and  C_12
REMARK   12  A    between atoms: C_12  and  O_13
REMARK                            x       y       z     vdW  Elec       q    Type
REMARK                         _______ _______ _______ _____ _____    ______ ____
ROOT
ATOM      1  C   UNL     1       7.594  -2.025  22.999  0.00  0.00    +0.000 C 
ENDROOT
BRANCH   1   2
ATOM      2  C   UNL     1       8.935  -1.974  22.267  0.00  0.00    -0.000 C 
BRANCH   2   3
ATOM      3  C   UNL     1      10.100  -1.909  23.254  0.00  0.00    -0.000 C 
BRANCH   3   4
ATOM      4  C   UNL     1       9.845  -0.872  24.346  0.00  0.00    -0.000 C 
BRANCH   4   5
ATOM      5  C   UNL     1      10.712   0.371  24.138  0.00  0.00    -0.000 C 
BRANCH   5   7
ATOM      6  C   UNL     1       9.991   1.644  22.089  0.00  0.00    +0.004 C 
ATOM      7  C   UNL     1       9.886   1.541  23.602  0.00  0.00    -0.003 C 
ENDBRANCH   5   7
ENDBRANCH   4   5
ENDBRANCH   3   4
ENDBRANCH   2   3
ENDBRANCH   1   2
BRANCH   1   8
ATOM      8  C   UNL     1       6.773  -3.237  22.562  0.00  0.00    +0.000 C 
BRANCH   8   9
ATOM      9  C   UNL     1       7.470  -4.544  22.937  0.00  0.00    +0.000 C 
BRANCH   9  10
ATOM     10  C   UNL     1       7.368  -4.810  24.438  0.00  0.00    +0.002 C 
BRANCH  10  11
ATOM     11  C   UNL     1       8.746  -5.039  25.055  0.00  0.00    +0.028 C 
BRANCH  11  12
ATOM     12  C   UNL     1       8.762  -4.676  26.534  0.00  0.00    +0.156 C 
BRANCH  12  13
ATOM     13  O   UNL     1       8.124  -5.698  27.288  0.00  0.00    -0.395 OA
ATOM     14  H   UNL     1       8.014  -6.467  26.704  0.00  0.00    +0.209 HD
ENDBRANCH  12  13
ENDBRANCH  11  12
ENDBRANCH  10  11
ENDBRANCH   9  10
ENDBRANCH   8   9
ENDBRANCH   1   8
TORSDOF 11
ENDMDL
MODEL 9
REMARK VINA RESULT:      -4.0      3.520      4.639
REMARK  Name = 
REMARK  12 active torsions:
REMARK  status: ('A' for Active; 'I' for Inactive)
REMARK    1  A    between atoms: C_1  and  C_2
REMARK    2  A    between atoms: C_2  and  C_3
REMARK    3  A    between atoms: C_3  and  C_4
REMARK    4  A    between atoms: C_4  and  C_5
REMARK    5  A    between atoms: C_5  and  C_6
REMARK    6  A    between atoms: C_6  and  C_7
REMARK    7  A    between atoms: C_7  and  C_8
REMARK    8  A    between atoms: C_8  and  C_9
REMARK    9  A    between atoms: C_9  and  C_10
REMARK   10  A    between atoms: C_10  and  C_11
REMARK   11  A    between atoms: C_11  and  C_12
REMARK   12  A    between atoms: C_12  and  O_13
REMARK                            x       y       z     vdW  Elec       q    Type
REMARK                         _______ _______ _______ _____ _____    ______ ____
ROOT
ATOM      1  C   UNL     1       9.459  -0.141  25.011  0.00  0.00    +0.000 C 
ENDROOT
BRANCH   1   2
ATOM      2  C   UNL     1       9.369  -1.610  24.598  0.00  0.00    -0.000 C 
BRANCH   2   3
ATOM      3  C   UNL     1       9.986  -1.834  23.218  0.00  0.00    -0.000 C 
BRANCH   3   4
ATOM      4  C   UNL     1       8.907  -2.010  22.150  0.00  0.00    -0.000 C 
BRANCH   4   5
ATOM      5  C   UNL     1       7.605  -2.523  22.765  0.00  0.00    -0.000 C 
BRANCH   5   7
ATOM      6  C   UNL     1       7.702  -4.911  23.555  0.00  0.00    +0.004 C 
ATOM      7  C   UNL     1       7.357  -3.987  22.399  0.00  0.00    -0.003 C 
ENDBRANCH   5   7
ENDBRANCH   4   5
ENDBRANCH   3   4
ENDBRANCH   2   3
ENDBRANCH   1   2
BRANCH   1   8
ATOM      8  C   UNL     1      10.543   0.589  24.219  0.00  0.00    +0.000 C 
BRANCH   8   9
ATOM      9  C   UNL     1       9.997   1.865  23.578  0.00  0.00    +0.000 C 
BRANCH   9  10
ATOM     10  C   UNL     1      10.003   1.761  22.054  0.00  0.00    +0.002 C 
BRANCH  10  11
ATOM     11  C   UNL     1       8.610   1.449  21.514  0.00  0.00    +0.028 C 
BRANCH  11  12
ATOM     12  C   UNL     1       7.523   1.907  22.477  0.00  0.00    +0.156 C 
BRANCH  12  13
ATOM     13  O   UNL     1       6.534   0.894  22.605  0.00  0.00    -0.395 OA
ATOM     14  H   UNL     1       6.727   0.399  23.419  0.00  0.00    +0.209 HD
ENDBRANCH  12  13
ENDBRANCH  11  12
ENDBRANCH  10  11
ENDBRANCH   9  10
ENDBRANCH   8   9
ENDBRANCH   1   8
TORSDOF 11
ENDMDL
