MODEL 1
REMARK VINA RESULT:      -6.0      0.000      0.000
REMARK  Name = 
REMARK  13 active torsions:
REMARK  status: ('A' for Active; 'I' for Inactive)
REMARK    1  A    between atoms: CB_1  and  CA_2
REMARK    2  A    between atoms: CA_2  and  N_4
REMARK    3  A    between atoms: CA_2  and  C_20
REMARK    4  A    between atoms: N_4  and  C_5
REMARK    5  A    between atoms: C_5  and  C_6
REMARK    6  A    between atoms: C_7  and  O_8
REMARK    7  A    between atoms: C_9  and  C_10
REMARK    8  A    between atoms: C_13  and  C_14
REMARK    9  A    between atoms: C_14  and  O_15
REMARK   10  A    between atoms: O_15  and  P_16
REMARK   11  A    between atoms: P_16  and  O_17
REMARK   12  A    between atoms: P_16  and  O_18
REMARK   13  A    between atoms: C_20  and  O_21
REMARK                            x       y       z     vdW  Elec       q    Type
REMARK                         _______ _______ _______ _____ _____    ______ ____
ROOT
ATOM      1  C   UNK A   0       7.905  -3.315  23.470  0.00  0.00    +0.016 A 
ATOM      2  C   UNK A   0       7.132  -2.201  23.083  0.00  0.00    +0.005 A 
ATOM      3  C   UNK A   0       6.095  -2.422  22.173  0.00  0.00    +0.117 A 
ATOM      4  N   UNK A   0       5.747  -3.625  21.673  0.00  0.00    -0.256 NA
ATOM      5  C   UNK A   0       6.459  -4.699  22.085  0.00  0.00    +0.080 A 
ATOM      6  C   UNK A   0       6.034  -6.009  21.499  0.00  0.00    +0.069 C 
ATOM      7  C   UNK A   0       7.534  -4.579  22.965  0.00  0.00    +0.142 A 
ENDROOT
BRANCH   7   8
ATOM      8  O   UNK A   0       8.263  -5.697  23.282  0.00  0.00    -0.505 OA
ATOM      9  H   UNK A   0       8.588  -5.575  24.200  0.00  0.00    +0.292 HD
ENDBRANCH   7   8
BRANCH   1  10
ATOM     10  C   UNK A   0       9.104  -3.186  24.384  0.00  0.00    +0.121 C 
BRANCH  10  11
ATOM     11  N   ALA A   1       8.735  -3.118  25.814  0.00  0.00    -0.300 NA
ATOM     12  H   ALA A   1       9.446  -3.666  26.321  0.00  0.00    +0.123 HD
BRANCH  11  14
ATOM     13  CB  ALA A   1       6.426  -2.896  26.825  0.00  0.00    +0.036 C 
ATOM     14  CA  ALA A   1       7.435  -3.791  26.110  0.00  0.00    +0.160 C 
BRANCH  14  15
ATOM     15  C   ALA A   1       7.748  -5.090  26.882  0.00  0.00    +0.322 C 
ATOM     16  OXT ALA A   1       7.177  -5.362  27.934  0.00  0.00    -0.249 OA
BRANCH  15  17
ATOM     17  O   ALA A   1       8.614  -5.955  26.312  0.00  0.00    -0.480 OA
ATOM     18  H   ALA A   1       8.943  -5.715  25.427  0.00  0.00    +0.295 HD
ENDBRANCH  15  17
ENDBRANCH  14  15
ENDBRANCH  11  14
ENDBRANCH  10  11
ENDBRANCH   1  10
BRANCH   2  19
ATOM     19  C   UNK A   0       7.430  -0.788  23.511  0.00  0.00    +0.209 C 
BRANCH  19  20
ATOM     20  O   UNK A   0       7.866  -0.038  22.393  0.00  0.00    -0.282 OA
BRANCH  20  21
ATOM     21  P   UNK A   0       9.438   0.106  22.168  0.00  0.00    +0.473 P 
ATOM     22  O   UNK A   0      10.279   0.027  23.388  0.00  0.00    -0.228 OA
BRANCH  21  23
ATOM     23  O   UNK A   0       9.598   1.483  21.378  0.00  0.00    -0.303 OA
ATOM     24  H   UNK A   0      10.479   1.543  20.963  0.00  0.00    +0.222 HD
ENDBRANCH  21  23
BRANCH  21  25
ATOM     25  O   UNK A   0       9.788  -1.005  21.082  0.00  0.00    -0.303 OA
ATOM     26  H   UNK A   0      10.752  -1.127  21.012  0.00  0.00    +0.222 HD
ENDBRANCH  21  25
ENDBRANCH  20  21
ENDBRANCH  19  20
ENDBRANCH   2  19
TORSDOF 11
ENDMDL
MODEL 2
REMARK VINA RESULT:      -5.9      2.914      4.758
REMARK  Name = 
REMARK  13 active torsions:
REMARK  status: ('A' for Active; 'I' for Inactive)
REMARK    1  A    between atoms: CB_1  and  CA_2
REMARK    2  A    between atoms: CA_2  and  N_4
REMARK    3  A    between atoms: CA_2  and  C_20
REMARK    4  A    between atoms: N_4  and  C_5
REMARK    5  A    between atoms: C_5  and  C_6
REMARK    6  A    between atoms: C_7  and  O_8
REMARK    7  A    between atoms: C_9  and  C_10
REMARK    8  A    between atoms: C_13  and  C_14
REMARK    9  A    between atoms: C_14  and  O_15
REMARK   10  A    between atoms: O_15  and  P_16
REMARK   11  A    between atoms: P_16  and  O_17
REMARK   12  A    between atoms: P_16  and  O_18
REMARK   13  A    between atoms: C_20  and  O_21
REMARK                            x       y       z     vdW  Elec       q    Type
REMARK                         _______ _______ _______ _____ _____    ______ ____
ROOT
ATOM      1  C   UNK A   0       8.268  -1.263  24.484  0.00  0.00    +0.016 A 
ATOM      2  C   UNK A   0       8.037  -1.498  23.113  0.00  0.00    +0.005 A 
ATOM      3  C   UNK A   0       8.745  -0.716  22.199  0.00  0.00    +0.117 A 
ATOM      4  N   UNK A   0       9.666   0.214  22.524  0.00  0.00    -0.256 NA
ATOM      5  C   UNK A   0       9.921   0.401  23.839  0.00  0.00    +0.080 A 
ATOM      6  C   UNK A   0      10.950   1.445  24.145  0.00  0.00    +0.069 C 
ATOM      7  C   UNK A   0       9.244  -0.305  24.831  0.00  0.00    +0.142 A 
ENDROOT
BRANCH   7   8
ATOM      8  O   UNK A   0       9.495  -0.012  26.147  0.00  0.00    -0.505 OA
ATOM      9  H   UNK A   0      10.471   0.007  26.255  0.00  0.00    +0.292 HD
ENDBRANCH   7   8
BRANCH   1  10
ATOM     10  C   UNK A   0       7.501  -1.990  25.567  0.00  0.00    +0.121 C 
BRANCH  10  11
ATOM     11  N   ALA A   1       8.331  -2.963  26.310  0.00  0.00    -0.300 NA
ATOM     12  H   ALA A   1       9.310  -2.756  26.060  0.00  0.00    +0.123 HD
BRANCH  11  14
ATOM     13  CB  ALA A   1       7.576  -5.284  26.979  0.00  0.00    +0.036 C 
ATOM     14  CA  ALA A   1       8.103  -4.373  25.873  0.00  0.00    +0.160 C 
BRANCH  14  15
ATOM     15  C   ALA A   1       9.416  -4.882  25.240  0.00  0.00    +0.322 C 
ATOM     16  OXT ALA A   1      10.080  -4.172  24.491  0.00  0.00    -0.249 OA
BRANCH  15  17
ATOM     17  O   ALA A   1       9.846  -6.107  25.608  0.00  0.00    -0.480 OA
ATOM     18  H   ALA A   1      10.529  -6.133  26.303  0.00  0.00    +0.295 HD
ENDBRANCH  15  17
ENDBRANCH  14  15
ENDBRANCH  11  14
ENDBRANCH  10  11
ENDBRANCH   1  10
BRANCH   2  19
ATOM     19  C   UNK A   0       7.002  -2.461  22.594  0.00  0.00    +0.209 C 
BRANCH  19  20
ATOM     20  O   UNK A   0       7.621  -3.695  22.281  0.00  0.00    -0.282 OA
BRANCH  20  21
ATOM     21  P   UNK A   0       6.682  -4.977  22.138  0.00  0.00    +0.473 P 
ATOM     22  O   UNK A   0       7.377  -6.287  22.082  0.00  0.00    -0.228 OA
BRANCH  21  23
ATOM     23  O   UNK A   0       5.796  -4.674  20.846  0.00  0.00    -0.303 OA
ATOM     24  H   UNK A   0       5.977  -5.326  20.143  0.00  0.00    +0.222 HD
ENDBRANCH  21  23
BRANCH  21  25
ATOM     25  O   UNK A   0       5.654  -4.854  23.349  0.00  0.00    -0.303 OA
ATOM     26  H   UNK A   0       6.122  -4.642  24.177  0.00  0.00    +0.222 HD
ENDBRANCH  21  25
ENDBRANCH  20  21
ENDBRANCH  19  20
ENDBRANCH   2  19
TORSDOF 11
ENDMDL
MODEL 3
REMARK VINA RESULT:      -5.8      2.578      5.703
REMARK  Name = 
REMARK  13 active torsions:
REMARK  status: ('A' for Active; 'I' for Inactive)
REMARK    1  A    between atoms: CB_1  and  CA_2
REMARK    2  A    between atoms: CA_2  and  N_4
REMARK    3  A    between atoms: CA_2  and  C_20
REMARK    4  A    between atoms: N_4  and  C_5
REMARK    5  A    between atoms: C_5  and  C_6
REMARK    6  A    between atoms: C_7  and  O_8
REMARK    7  A    between atoms: C_9  and  C_10
REMARK    8  A    between atoms: C_13  and  C_14
REMARK    9  A    between atoms: C_14  and  O_15
REMARK   10  A    between atoms: O_15  and  P_16
REMARK   11  A    between atoms: P_16  and  O_17
REMARK   12  A    between atoms: P_16  and  O_18
REMARK   13  A    between atoms: C_20  and  O_21
REMARK                            x       y       z     vdW  Elec       q    Type
REMARK                         _______ _______ _______ _____ _____    ______ ____
ROOT
ATOM      1  C   UNK A   0       8.614  -2.326  24.428  0.00  0.00    +0.016 A 
ATOM      2  C   UNK A   0       8.016  -2.053  25.675  0.00  0.00    +0.005 A 
ATOM      3  C   UNK A   0       8.483  -0.944  26.384  0.00  0.00    +0.117 A 
ATOM      4  N   UNK A   0       9.427  -0.087  25.947  0.00  0.00    -0.256 NA
ATOM      5  C   UNK A   0       9.963  -0.323  24.727  0.00  0.00    +0.080 A 
ATOM      6  C   UNK A   0      11.008   0.656  24.291  0.00  0.00    +0.069 C 
ATOM      7  C   UNK A   0       9.590  -1.422  23.956  0.00  0.00    +0.142 A 
ENDROOT
BRANCH   7   8
ATOM      8  O   UNK A   0      10.227  -1.647  22.763  0.00  0.00    -0.505 OA
ATOM      9  H   UNK A   0       9.578  -2.080  22.168  0.00  0.00    +0.292 HD
ENDBRANCH   7   8
BRANCH   1  10
ATOM     10  C   UNK A   0       8.250  -3.545  23.608  0.00  0.00    +0.121 C 
BRANCH  10  11
ATOM     11  N   ALA A   1       7.659  -3.203  22.296  0.00  0.00    -0.300 NA
ATOM     12  H   ALA A   1       7.504  -2.184  22.307  0.00  0.00    +0.123 HD
BRANCH  11  14
ATOM     13  CB  ALA A   1       5.266  -3.338  23.105  0.00  0.00    +0.036 C 
ATOM     14  CA  ALA A   1       6.308  -3.805  22.093  0.00  0.00    +0.160 C 
BRANCH  14  15
ATOM     15  C   ALA A   1       6.482  -5.339  22.062  0.00  0.00    +0.322 C 
ATOM     16  OXT ALA A   1       7.228  -5.880  21.251  0.00  0.00    -0.249 OA
BRANCH  15  17
ATOM     17  O   ALA A   1       5.846  -6.053  23.014  0.00  0.00    -0.480 OA
ATOM     18  H   ALA A   1       4.873  -6.019  23.001  0.00  0.00    +0.295 HD
ENDBRANCH  15  17
ENDBRANCH  14  15
ENDBRANCH  11  14
ENDBRANCH  10  11
ENDBRANCH   1  10
BRANCH   2  19
ATOM     19  C   UNK A   0       6.989  -2.946  26.322  0.00  0.00    +0.209 C 
BRANCH  19  20
ATOM     20  O   UNK A   0       7.633  -3.840  27.210  0.00  0.00    -0.282 OA
BRANCH  20  21
ATOM     21  P   UNK A   0       7.375  -5.400  27.005  0.00  0.00    +0.473 P 
ATOM     22  O   UNK A   0       7.044  -6.170  28.231  0.00  0.00    -0.228 OA
BRANCH  21  23
ATOM     23  O   UNK A   0       8.688  -5.923  26.264  0.00  0.00    -0.303 OA
ATOM     24  H   UNK A   0       8.692  -6.897  26.218  0.00  0.00    +0.222 HD
ENDBRANCH  21  23
BRANCH  21  25
ATOM     25  O   UNK A   0       6.244  -5.472  25.885  0.00  0.00    -0.303 OA
ATOM     26  H   UNK A   0       6.203  -4.637  25.384  0.00  0.00    +0.222 HD
ENDBRANCH  21  25
ENDBRANCH  20  21
ENDBRANCH  19  20
ENDBRANCH   2  19
TORSDOF 11
ENDMDL
MODEL 4
REMARK VINA RESULT:      -5.8      2.878      6.119
REMARK  Name = 
REMARK  13 active torsions:
REMARK  status: ('A' for Active; 'I' for Inactive)
REMARK    1  A    between atoms: CB_1  and  CA_2
REMARK    2  A    between atoms: CA_2  and  N_4
REMARK    3  A    between atoms: CA_2  and  C_20
REMARK    4  A    between atoms: N_4  and  C_5
REMARK    5  A    between atoms: C_5  and  C_6
REMARK    6  A    between atoms: C_7  and  O_8
REMARK    7  A    between atoms: C_9  and  C_10
REMARK    8  A    between atoms: C_13  and  C_14
REMARK    9  A    between atoms: C_14  and  O_15
REMARK   10  A    between atoms: O_15  and  P_16
REMARK   11  A    between atoms: P_16  and  O_17
REMARK   12  A    between atoms: P_16  and  O_18
REMARK   13  A    between atoms: C_20  and  O_21
REMARK                            x       y       z     vdW  Elec       q    Type
REMARK                         _______ _______ _______ _____ _____    ______ ____
ROOT
ATOM      1  C   UNK A   0       7.678  -4.055  24.675  0.00  0.00    +0.016 A 
ATOM      2  C   UNK A   0       6.915  -4.746  25.640  0.00  0.00    +0.005 A 
ATOM      3  C   UNK A   0       5.911  -5.598  25.176  0.00  0.00    +0.117 A 
ATOM      4  N   UNK A   0       5.645  -5.848  23.877  0.00  0.00    -0.256 NA
ATOM      5  C   UNK A   0       6.412  -5.221  22.956  0.00  0.00    +0.080 A 
ATOM      6  C   UNK A   0       6.074  -5.531  21.530  0.00  0.00    +0.069 C 
ATOM      7  C   UNK A   0       7.418  -4.326  23.315  0.00  0.00    +0.142 A 
ENDROOT
BRANCH   7   8
ATOM      8  O   UNK A   0       8.107  -3.666  22.330  0.00  0.00    -0.505 OA
ATOM      9  H   UNK A   0       9.061  -3.755  22.540  0.00  0.00    +0.292 HD
ENDBRANCH   7   8
BRANCH   1  10
ATOM     10  C   UNK A   0       8.737  -3.044  25.058  0.00  0.00    +0.121 C 
BRANCH  10  11
ATOM     11  N   ALA A   1       8.606  -1.766  24.326  0.00  0.00    -0.300 NA
ATOM     12  H   ALA A   1       8.272  -2.008  23.382  0.00  0.00    +0.123 HD
BRANCH  11  14
ATOM     13  CB  ALA A   1      10.141   0.117  25.037  0.00  0.00    +0.036 C 
ATOM     14  CA  ALA A   1       9.916  -1.080  24.117  0.00  0.00    +0.160 C 
BRANCH  14  15
ATOM     15  C   ALA A   1      10.020  -0.724  22.619  0.00  0.00    +0.322 C 
ATOM     16  OXT ALA A   1       9.956   0.440  22.234  0.00  0.00    -0.249 OA
BRANCH  15  17
ATOM     17  O   ALA A   1      10.268  -1.733  21.757  0.00  0.00    -0.480 OA
ATOM     18  H   ALA A   1      10.271  -1.501  20.811  0.00  0.00    +0.295 HD
ENDBRANCH  15  17
ENDBRANCH  14  15
ENDBRANCH  11  14
ENDBRANCH  10  11
ENDBRANCH   1  10
BRANCH   2  19
ATOM     19  C   UNK A   0       7.055  -4.533  27.124  0.00  0.00    +0.209 C 
BRANCH  19  20
ATOM     20  O   UNK A   0       7.126  -5.787  27.777  0.00  0.00    -0.282 OA
BRANCH  20  21
ATOM     21  P   UNK A   0       5.999  -6.125  28.853  0.00  0.00    +0.473 P 
ATOM     22  O   UNK A   0       6.414  -6.041  30.275  0.00  0.00    -0.228 OA
BRANCH  21  23
ATOM     23  O   UNK A   0       5.473  -7.571  28.431  0.00  0.00    -0.303 OA
ATOM     24  H   UNK A   0       5.236  -7.589  27.485  0.00  0.00    +0.222 HD
ENDBRANCH  21  23
BRANCH  21  25
ATOM     25  O   UNK A   0       4.793  -5.152  28.484  0.00  0.00    -0.303 OA
ATOM     26  H   UNK A   0       5.047  -4.545  27.765  0.00  0.00    +0.222 HD
ENDBRANCH  21  25
ENDBRANCH  20  21
ENDBRANCH  19  20
ENDBRANCH   2  19
TORSDOF 11
ENDMDL
MODEL 5
REMARK VINA RESULT:      -5.8      2.489      4.666
REMARK  Name = 
REMARK  13 active torsions:
REMARK  status: ('A' for Active; 'I' for Inactive)
REMARK    1  A    between atoms: CB_1  and  CA_2
REMARK    2  A    between atoms: CA_2  and  N_4
REMARK    3  A    between atoms: CA_2  and  C_20
REMARK    4  A    between atoms: N_4  and  C_5
REMARK    5  A    between atoms: C_5  and  C_6
REMARK    6  A    between atoms: C_7  and  O_8
REMARK    7  A    between atoms: C_9  and  C_10
REMARK    8  A    between atoms: C_13  and  C_14
REMARK    9  A    between atoms: C_14  and  O_15
REMARK   10  A    between atoms: O_15  and  P_16
REMARK   11  A    between atoms: P_16  and  O_17
REMARK   12  A    between atoms: P_16  and  O_18
REMARK   13  A    between atoms: C_20  and  O_21
REMARK                            x       y       z     vdW  Elec       q    Type
REMARK                         _______ _______ _______ _____ _____    ______ ____
ROOT
ATOM      1  C   UNK A   0       8.196  -1.799  24.189  0.00  0.00    +0.016 A 
ATOM      2  C   UNK A   0       6.911  -1.298  23.893  0.00  0.00    +0.005 A 
ATOM      3  C   UNK A   0       6.000  -2.173  23.300  0.00  0.00    +0.117 A 
ATOM      4  N   UNK A   0       6.237  -3.473  23.031  0.00  0.00    -0.256 NA
ATOM      5  C   UNK A   0       7.454  -3.963  23.361  0.00  0.00    +0.080 A 
ATOM      6  C   UNK A   0       7.666  -5.410  23.039  0.00  0.00    +0.069 C 
ATOM      7  C   UNK A   0       8.445  -3.163  23.927  0.00  0.00    +0.142 A 
ENDROOT
BRANCH   7   8
ATOM      8  O   UNK A   0       9.682  -3.703  24.166  0.00  0.00    -0.505 OA
ATOM      9  H   UNK A   0      10.343  -3.008  23.958  0.00  0.00    +0.292 HD
ENDBRANCH   7   8
BRANCH   1  10
ATOM     10  C   UNK A   0       9.293  -0.923  24.756  0.00  0.00    +0.121 C 
BRANCH  10  11
ATOM     11  N   ALA A   1      10.380  -0.662  23.789  0.00  0.00    -0.300 NA
ATOM     12  H   ALA A   1      11.260  -0.884  24.278  0.00  0.00    +0.123 HD
BRANCH  11  14
ATOM     13  CB  ALA A   1       9.835   1.729  24.417  0.00  0.00    +0.036 C 
ATOM     14  CA  ALA A   1      10.491   0.781  23.416  0.00  0.00    +0.160 C 
BRANCH  14  15
ATOM     15  C   ALA A   1       9.941   0.934  21.982  0.00  0.00    +0.322 C 
ATOM     16  OXT ALA A   1       9.518  -0.032  21.354  0.00  0.00    -0.249 OA
BRANCH  15  17
ATOM     17  O   ALA A   1       9.866   2.184  21.478  0.00  0.00    -0.480 OA
ATOM     18  H   ALA A   1       9.386   2.281  20.636  0.00  0.00    +0.295 HD
ENDBRANCH  15  17
ENDBRANCH  14  15
ENDBRANCH  11  14
ENDBRANCH  10  11
ENDBRANCH   1  10
BRANCH   2  19
ATOM     19  C   UNK A   0       6.513   0.142  24.084  0.00  0.00    +0.209 C 
BRANCH  19  20
ATOM     20  O   UNK A   0       6.638   0.834  22.856  0.00  0.00    -0.282 OA
BRANCH  20  21
ATOM     21  P   UNK A   0       6.330   2.398  22.853  0.00  0.00    +0.473 P 
ATOM     22  O   UNK A   0       7.153   3.220  21.931  0.00  0.00    -0.228 OA
BRANCH  21  23
ATOM     23  O   UNK A   0       6.472   2.830  24.383  0.00  0.00    -0.303 OA
ATOM     24  H   UNK A   0       5.790   2.395  24.929  0.00  0.00    +0.222 HD
ENDBRANCH  21  23
BRANCH  21  25
ATOM     25  O   UNK A   0       4.766   2.496  22.567  0.00  0.00    -0.303 OA
ATOM     26  H   UNK A   0       4.470   3.424  22.584  0.00  0.00    +0.222 HD
ENDBRANCH  21  25
ENDBRANCH  20  21
ENDBRANCH  19  20
ENDBRANCH   2  19
TORSDOF 11
ENDMDL
MODEL 6
REMARK VINA RESULT:      -5.6      3.397      5.549
REMARK  Name = 
REMARK  13 active torsions:
REMARK  status: ('A' for Active; 'I' for Inactive)
REMARK    1  A    between atoms: CB_1  and  CA_2
REMARK    2  A    between atoms: CA_2  and  N_4
REMARK    3  A    between atoms: CA_2  and  C_20
REMARK    4  A    between atoms: N_4  and  C_5
REMARK    5  A    between atoms: C_5  and  C_6
REMARK    6  A    between atoms: C_7  and  O_8
REMARK    7  A    between atoms: C_9  and  C_10
REMARK    8  A    between atoms: C_13  and  C_14
REMARK    9  A    between atoms: C_14  and  O_15
REMARK   10  A    between atoms: O_15  and  P_16
REMARK   11  A    between atoms: P_16  and  O_17
REMARK   12  A    between atoms: P_16  and  O_18
REMARK   13  A    between atoms: C_20  and  O_21
REMARK                            x       y       z     vdW  Elec       q    Type
REMARK                         _______ _______ _______ _____ _____    ______ ____
ROOT
ATOM      1  C   UNK A   0       5.802  -4.453  24.939  0.00  0.00    +0.016 A 
ATOM      2  C   UNK A   0       5.026  -5.502  25.473  0.00  0.00    +0.005 A 
ATOM      3  C   UNK A   0       4.670  -6.541  24.612  0.00  0.00    +0.117 A 
ATOM      4  N   UNK A   0       5.049  -6.644  23.322  0.00  0.00    -0.256 NA
ATOM      5  C   UNK A   0       5.835  -5.660  22.827  0.00  0.00    +0.080 A 
ATOM      6  C   UNK A   0       6.225  -5.820  21.390  0.00  0.00    +0.069 C 
ATOM      7  C   UNK A   0       6.218  -4.562  23.595  0.00  0.00    +0.142 A 
ENDROOT
BRANCH   7   8
ATOM      8  O   UNK A   0       6.951  -3.562  23.009  0.00  0.00    -0.505 OA
ATOM      9  H   UNK A   0       7.893  -3.833  23.055  0.00  0.00    +0.292 HD
ENDBRANCH   7   8
BRANCH   1  10
ATOM     10  C   UNK A   0       6.179  -3.233  25.752  0.00  0.00    +0.121 C 
BRANCH  10  11
ATOM     11  N   ALA A   1       7.252  -3.503  26.733  0.00  0.00    -0.300 NA
ATOM     12  H   ALA A   1       7.014  -2.961  27.577  0.00  0.00    +0.123 HD
BRANCH  11  14
ATOM     13  CB  ALA A   1       8.501  -1.721  25.440  0.00  0.00    +0.036 C 
ATOM     14  CA  ALA A   1       8.583  -2.983  26.294  0.00  0.00    +0.160 C 
BRANCH  14  15
ATOM     15  C   ALA A   1       9.328  -4.142  25.598  0.00  0.00    +0.322 C 
ATOM     16  OXT ALA A   1       9.611  -4.093  24.404  0.00  0.00    -0.249 OA
BRANCH  15  17
ATOM     17  O   ALA A   1       9.729  -5.174  26.371  0.00  0.00    -0.480 OA
ATOM     18  H   ALA A   1       9.768  -5.004  27.329  0.00  0.00    +0.295 HD
ENDBRANCH  15  17
ENDBRANCH  14  15
ENDBRANCH  11  14
ENDBRANCH  10  11
ENDBRANCH   1  10
BRANCH   2  19
ATOM     19  C   UNK A   0       4.480  -5.505  26.877  0.00  0.00    +0.209 C 
BRANCH  19  20
ATOM     20  O   UNK A   0       5.025  -6.598  27.593  0.00  0.00    -0.282 OA
BRANCH  20  21
ATOM     21  P   UNK A   0       6.105  -6.277  28.722  0.00  0.00    +0.473 P 
ATOM     22  O   UNK A   0       6.141  -7.216  29.870  0.00  0.00    -0.228 OA
BRANCH  21  23
ATOM     23  O   UNK A   0       5.795  -4.770  29.146  0.00  0.00    -0.303 OA
ATOM     24  H   UNK A   0       6.584  -4.209  29.028  0.00  0.00    +0.222 HD
ENDBRANCH  21  23
BRANCH  21  25
ATOM     25  O   UNK A   0       7.486  -6.181  27.935  0.00  0.00    -0.303 OA
ATOM     26  H   UNK A   0       7.343  -5.857  27.026  0.00  0.00    +0.222 HD
ENDBRANCH  21  25
ENDBRANCH  20  21
ENDBRANCH  19  20
ENDBRANCH   2  19
TORSDOF 11
ENDMDL
MODEL 7
REMARK VINA RESULT:      -5.5      2.836      5.701
REMARK  Name = 
REMARK  13 active torsions:
REMARK  status: ('A' for Active; 'I' for Inactive)
REMARK    1  A    between atoms: CB_1  and  CA_2
REMARK    2  A    between atoms: CA_2  and  N_4
REMARK    3  A    between atoms: CA_2  and  C_20
REMARK    4  A    between atoms: N_4  and  C_5
REMARK    5  A    between atoms: C_5  and  C_6
REMARK    6  A    between atoms: C_7  and  O_8
REMARK    7  A    between atoms: C_9  and  C_10
REMARK    8  A    between atoms: C_13  and  C_14
REMARK    9  A    between atoms: C_14  and  O_15
REMARK   10  A    between atoms: O_15  and  P_16
REMARK   11  A    between atoms: P_16  and  O_17
REMARK   12  A    between atoms: P_16  and  O_18
REMARK   13  A    between atoms: C_20  and  O_21
REMARK                            x       y       z     vdW  Elec       q    Type
REMARK                         _______ _______ _______ _____ _____    ______ ____
ROOT
ATOM      1  C   UNK A   0       7.999  -0.825  24.209  0.00  0.00    +0.016 A 
ATOM      2  C   UNK A   0       9.248  -1.470  24.104  0.00  0.00    +0.005 A 
ATOM      3  C   UNK A   0      10.376  -0.663  23.939  0.00  0.00    +0.117 A 
ATOM      4  N   UNK A   0      10.369   0.685  23.919  0.00  0.00    -0.256 NA
ATOM      5  C   UNK A   0       9.174   1.301  24.069  0.00  0.00    +0.080 A 
ATOM      6  C   UNK A   0       9.220   2.797  24.037  0.00  0.00    +0.069 C 
ATOM      7  C   UNK A   0       7.985   0.586  24.207  0.00  0.00    +0.142 A 
ENDROOT
BRANCH   7   8
ATOM      8  O   UNK A   0       6.799   1.271  24.278  0.00  0.00    -0.505 OA
ATOM      9  H   UNK A   0       6.918   1.979  24.948  0.00  0.00    +0.292 HD
ENDBRANCH   7   8
BRANCH   1  10
ATOM     10  C   UNK A   0       6.700  -1.595  24.308  0.00  0.00    +0.121 C 
BRANCH  10  11
ATOM     11  N   ALA A   1       6.055  -1.812  22.995  0.00  0.00    -0.300 NA
ATOM     12  H   ALA A   1       5.264  -1.154  22.950  0.00  0.00    +0.123 HD
BRANCH  11  14
ATOM     13  CB  ALA A   1       5.412  -3.959  24.171  0.00  0.00    +0.036 C 
ATOM     14  CA  ALA A   1       5.446  -3.170  22.865  0.00  0.00    +0.160 C 
BRANCH  14  15
ATOM     15  C   ALA A   1       6.188  -3.906  21.729  0.00  0.00    +0.322 C 
ATOM     16  OXT ALA A   1       7.141  -4.644  21.962  0.00  0.00    -0.249 OA
BRANCH  15  17
ATOM     17  O   ALA A   1       5.698  -3.771  20.479  0.00  0.00    -0.480 OA
ATOM     18  H   ALA A   1       6.140  -4.291  19.784  0.00  0.00    +0.295 HD
ENDBRANCH  15  17
ENDBRANCH  14  15
ENDBRANCH  11  14
ENDBRANCH  10  11
ENDBRANCH   1  10
BRANCH   2  19
ATOM     19  C   UNK A   0       9.415  -2.966  24.055  0.00  0.00    +0.209 C 
BRANCH  19  20
ATOM     20  O   UNK A   0       9.108  -3.517  25.322  0.00  0.00    -0.282 OA
BRANCH  20  21
ATOM     21  P   UNK A   0       8.996  -5.104  25.430  0.00  0.00    +0.473 P 
ATOM     22  O   UNK A   0       7.984  -5.619  26.386  0.00  0.00    -0.228 OA
BRANCH  21  23
ATOM     23  O   UNK A   0      10.482  -5.582  25.762  0.00  0.00    -0.303 OA
ATOM     24  H   UNK A   0      10.471  -6.335  26.383  0.00  0.00    +0.222 HD
ENDBRANCH  21  23
BRANCH  21  25
ATOM     25  O   UNK A   0       8.760  -5.589  23.932  0.00  0.00    -0.303 OA
ATOM     26  H   UNK A   0       9.286  -6.386  23.741  0.00  0.00    +0.222 HD
ENDBRANCH  21  25
ENDBRANCH  20  21
ENDBRANCH  19  20
ENDBRANCH   2  19
TORSDOF 11
ENDMDL
MODEL 8
REMARK VINA RESULT:      -5.5      2.875      5.995
REMARK  Name = 
REMARK  13 active torsions:
REMARK  status: ('A' for Active; 'I' for Inactive)
REMARK    1  A    between atoms: CB_1  and  CA_2
REMARK    2  A    between atoms: CA_2  and  N_4
REMARK    3  A    between atoms: CA_2  and  C_20
REMARK    4  A    between atoms: N_4  and  C_5
REMARK    5  A    between atoms: C_5  and  C_6
REMARK    6  A    between atoms: C_7  and  O_8
REMARK    7  A    between atoms: C_9  and  C_10
REMARK    8  A    between atoms: C_13  and  C_14
REMARK    9  A    between atoms: C_14  and  O_15
REMARK   10  A    between atoms: O_15  and  P_16
REMARK   11  A    between atoms: P_16  and  O_17
REMARK   12  A    between atoms: P_16  and  O_18
REMARK   13  A    between atoms: C_20  and  O_21
REMARK                            x       y       z     vdW  Elec       q    Type
REMARK                         _______ _______ _______ _____ _____    ______ ____
ROOT
ATOM      1  C   UNK A   0       8.207  -3.589  24.339  0.00  0.00    +0.016 A 
ATOM      2  C   UNK A   0       8.326  -3.374  25.727  0.00  0.00    +0.005 A 
ATOM      3  C   UNK A   0       8.576  -2.070  26.157  0.00  0.00    +0.117 A 
ATOM      4  N   UNK A   0       8.666  -0.992  25.351  0.00  0.00    -0.256 NA
ATOM      5  C   UNK A   0       8.502  -1.195  24.024  0.00  0.00    +0.080 A 
ATOM      6  C   UNK A   0       8.614   0.032  23.174  0.00  0.00    +0.069 C 
ATOM      7  C   UNK A   0       8.282  -2.464  23.491  0.00  0.00    +0.142 A 
ENDROOT
BRANCH   7   8
ATOM      8  O   UNK A   0       8.201  -2.611  22.130  0.00  0.00    -0.505 OA
ATOM      9  H   UNK A   0       8.044  -3.564  21.954  0.00  0.00    +0.292 HD
ENDBRANCH   7   8
BRANCH   1  10
ATOM     10  C   UNK A   0       8.019  -4.971  23.750  0.00  0.00    +0.121 C 
BRANCH  10  11
ATOM     11  N   ALA A   1       6.640  -5.482  23.906  0.00  0.00    -0.300 NA
ATOM     12  H   ALA A   1       6.726  -6.422  24.320  0.00  0.00    +0.123 HD
BRANCH  11  14
ATOM     13  CB  ALA A   1       6.893  -5.806  21.409  0.00  0.00    +0.036 C 
ATOM     14  CA  ALA A   1       5.946  -5.688  22.600  0.00  0.00    +0.160 C 
BRANCH  14  15
ATOM     15  C   ALA A   1       4.908  -4.556  22.442  0.00  0.00    +0.322 C 
ATOM     16  OXT ALA A   1       3.776  -4.658  22.906  0.00  0.00    -0.249 OA
BRANCH  15  17
ATOM     17  O   ALA A   1       5.319  -3.417  21.845  0.00  0.00    -0.480 OA
ATOM     18  H   ALA A   1       5.131  -2.589  22.322  0.00  0.00    +0.295 HD
ENDBRANCH  15  17
ENDBRANCH  14  15
ENDBRANCH  11  14
ENDBRANCH  10  11
ENDBRANCH   1  10
BRANCH   2  19
ATOM     19  C   UNK A   0       8.304  -4.481  26.749  0.00  0.00    +0.209 C 
BRANCH  19  20
ATOM     20  O   UNK A   0       7.112  -4.399  27.508  0.00  0.00    -0.282 OA
BRANCH  20  21
ATOM     21  P   UNK A   0       6.294  -5.747  27.746  0.00  0.00    +0.473 P 
ATOM     22  O   UNK A   0       5.805  -6.434  26.525  0.00  0.00    -0.228 OA
BRANCH  21  23
ATOM     23  O   UNK A   0       5.124  -5.325  28.746  0.00  0.00    -0.303 OA
ATOM     24  H   UNK A   0       4.997  -4.358  28.741  0.00  0.00    +0.222 HD
ENDBRANCH  21  23
BRANCH  21  25
ATOM     25  O   UNK A   0       7.260  -6.646  28.638  0.00  0.00    -0.303 OA
ATOM     26  H   UNK A   0       8.177  -6.322  28.585  0.00  0.00    +0.222 HD
ENDBRANCH  21  25
ENDBRANCH  20  21
ENDBRANCH  19  20
ENDBRANCH   2  19
TORSDOF 11
ENDMDL
MODEL 9
REMARK VINA RESULT:      -5.4      3.054      6.478
REMARK  Name = 
REMARK  13 active torsions:
REMARK  status: ('A' for Active; 'I' for Inactive)
REMARK    1  A    between atoms: CB_1  and  CA_2
REMARK    2  A    between atoms: CA_2  and  N_4
REMARK    3  A    between atoms: CA_2  and  C_20
REMARK    4  A    between atoms: N_4  and  C_5
REMARK    5  A    between atoms: C_5  and  C_6
REMARK    6  A    between atoms: C_7  and  O_8
REMARK    7  A    between atoms: C_9  and  C_10
REMARK    8  A    between atoms: C_13  and  C_14
REMARK    9  A    between atoms: C_14  and  O_15
REMARK   10  A    between atoms: O_15  and  P_16
REMARK   11  A    between atoms: P_16  and  O_17
REMARK   12  A    between atoms: P_16  and  O_18
REMARK   13  A    between atoms: C_20  and  O_21
REMARK                            x       y       z     vdW  Elec       q    Type
REMARK                         _______ _______ _______ _____ _____    ______ ____
ROOT
ATOM      1  C   UNK A   0       6.834  -0.673  24.426  0.00  0.00    +0.016 A 
ATOM      2  C   UNK A   0       7.529  -1.562  25.273  0.00  0.00    +0.005 A 
ATOM      3  C   UNK A   0       7.233  -1.515  26.636  0.00  0.00    +0.117 A 
ATOM      4  N   UNK A   0       6.300  -0.721  27.200  0.00  0.00    -0.256 NA
ATOM      5  C   UNK A   0       5.601   0.094  26.378  0.00  0.00    +0.080 A 
ATOM      6  C   UNK A   0       4.581   0.957  27.055  0.00  0.00    +0.069 C 
ATOM      7  C   UNK A   0       5.844   0.148  25.007  0.00  0.00    +0.142 A 
ENDROOT
BRANCH   7   8
ATOM      8  O   UNK A   0       5.153   1.052  24.242  0.00  0.00    -0.505 OA
ATOM      9  H   UNK A   0       4.208   0.790  24.274  0.00  0.00    +0.292 HD
ENDBRANCH   7   8
BRANCH   1  10
ATOM     10  C   UNK A   0       7.129  -0.573  22.945  0.00  0.00    +0.121 C 
BRANCH  10  11
ATOM     11  N   ALA A   1       7.408   0.810  22.504  0.00  0.00    -0.300 NA
ATOM     12  H   ALA A   1       6.656   1.059  21.844  0.00  0.00    +0.123 HD
BRANCH  11  14
ATOM     13  CB  ALA A   1       9.402  -0.404  21.525  0.00  0.00    +0.036 C 
ATOM     14  CA  ALA A   1       8.674   0.924  21.719  0.00  0.00    +0.160 C 
BRANCH  14  15
ATOM     15  C   ALA A   1       9.546   2.002  22.397  0.00  0.00    +0.322 C 
ATOM     16  OXT ALA A   1       9.361   2.330  23.566  0.00  0.00    -0.249 OA
BRANCH  15  17
ATOM     17  O   ALA A   1      10.572   2.510  21.682  0.00  0.00    -0.480 OA
ATOM     18  H   ALA A   1      11.403   2.003  21.702  0.00  0.00    +0.295 HD
ENDBRANCH  15  17
ENDBRANCH  14  15
ENDBRANCH  11  14
ENDBRANCH  10  11
ENDBRANCH   1  10
BRANCH   2  19
ATOM     19  C   UNK A   0       8.636  -2.469  24.802  0.00  0.00    +0.209 C 
BRANCH  19  20
ATOM     20  O   UNK A   0       8.850  -3.488  25.761  0.00  0.00    -0.282 OA
BRANCH  20  21
ATOM     21  P   UNK A   0       8.911  -4.993  25.239  0.00  0.00    +0.473 P 
ATOM     22  O   UNK A   0       8.166  -5.277  23.987  0.00  0.00    -0.228 OA
BRANCH  21  23
ATOM     23  O   UNK A   0       8.415  -5.862  26.482  0.00  0.00    -0.303 OA
ATOM     24  H   UNK A   0       7.700  -6.469  26.215  0.00  0.00    +0.222 HD
ENDBRANCH  21  23
BRANCH  21  25
ATOM     25  O   UNK A   0      10.468  -5.316  25.139  0.00  0.00    -0.303 OA
ATOM     26  H   UNK A   0      10.738  -5.425  24.209  0.00  0.00    +0.222 HD
ENDBRANCH  21  25
ENDBRANCH  20  21
ENDBRANCH  19  20
ENDBRANCH   2  19
TORSDOF 11
ENDMDL
