MODEL 1
REMARK VINA RESULT:      -7.0      0.000      0.000
REMARK  Name = 
REMARK  15 active torsions:
REMARK  status: ('A' for Active; 'I' for Inactive)
REMARK    1  A    between atoms: C_1  and  C_2
REMARK    2  A    between atoms: C_2  and  C_3
REMARK    3  A    between atoms: C_2  and  C_4
REMARK    4  A    between atoms: C_4  and  N_6
REMARK    5  A    between atoms: C_4  and  C_24
REMARK    6  A    between atoms: C_7  and  C_9
REMARK    7  A    between atoms: C_9  and  N_10
REMARK    8  A    between atoms: C_13  and  N_14
REMARK    9  A    between atoms: C_17  and  C_18
REMARK   10  A    between atoms: C_24  and  O_26
REMARK   11  A    between atoms: C_24  and  C_27
REMARK   12  A    between atoms: C_30  and  C_32
REMARK   13  A    between atoms: C_32  and  C_33
REMARK   14  A    between atoms: C_32  and  C_34
REMARK   15  A    between atoms: C_32  and  C_35
REMARK                            x       y       z     vdW  Elec       q    Type
REMARK                         _______ _______ _______ _____ _____    ______ ____
ROOT
ATOM      1  N   UNL     1       6.953  -3.460  23.418  0.00  0.00    -0.308 N 
ATOM      2  H   UNL     1       6.016  -3.500  23.821  0.00  0.00    +0.149 HD
ATOM      3  C   UNL     1       7.499  -2.231  23.127  0.00  0.00    +0.233 C 
ATOM      4  O   UNL     1       8.667  -2.083  22.774  0.00  0.00    -0.274 OA
ENDROOT
BRANCH   1   5
ATOM      5  C   UNL     1       7.660  -4.735  23.186  0.00  0.00    +0.113 C 
BRANCH   5   7
ATOM      6  C   UNL     1       5.284  -5.803  23.253  0.00  0.00    +0.009 C 
ATOM      7  C   UNL     1       6.684  -5.826  22.636  0.00  0.00    +0.006 C 
ATOM      8  C   UNL     1       6.557  -5.773  21.107  0.00  0.00    +0.009 C 
ENDBRANCH   5   7
BRANCH   5   9
ATOM      9  C   UNL     1       8.449  -5.125  24.466  0.00  0.00    +0.222 C 
BRANCH   9  10
ATOM     10  C   UNL     1       7.707  -4.822  25.725  0.00  0.00    +0.247 A 
ATOM     11  O   UNL     1       6.891  -5.786  26.266  0.00  0.00    -0.421 OA
ATOM     12  C   UNL     1       6.419  -5.158  27.391  0.00  0.00    +0.223 A 
ATOM     13  N   UNL     1       6.890  -3.934  27.520  0.00  0.00    -0.112 NA
ATOM     14  N   UNL     1       7.722  -3.716  26.442  0.00  0.00    -0.110 NA
BRANCH  12  15
ATOM     15  C   UNL     1       5.489  -5.929  28.284  0.00  0.00    +0.040 C 
ATOM     16  C   UNL     1       4.679  -6.935  27.450  0.00  0.00    +0.020 C 
ATOM     17  C   UNL     1       4.531  -4.965  29.002  0.00  0.00    +0.020 C 
ATOM     18  C   UNL     1       6.288  -6.709  29.347  0.00  0.00    +0.020 C 
ENDBRANCH  12  15
ENDBRANCH   9  10
BRANCH   9  19
ATOM     19  O   UNL     1       9.733  -4.486  24.496  0.00  0.00    -0.381 OA
ATOM     20  H   UNL     1       9.585  -3.552  24.720  0.00  0.00    +0.211 HD
ENDBRANCH   9  19
ENDBRANCH   5   9
ENDBRANCH   1   5
BRANCH   3  21
ATOM     21  C   UNL     1       6.562  -1.044  23.324  0.00  0.00    +0.222 C 
BRANCH  21  22
ATOM     22  N   UNL     1       6.489  -0.683  24.737  0.00  0.00    -0.282 N 
ATOM     23  C   UNL     1       7.421   0.083  25.445  0.00  0.00    +0.144 A 
ATOM     24  N   UNL     1       7.344   0.234  26.735  0.00  0.00    -0.235 NA
ATOM     25  C   UNL     1       6.308  -0.328  27.414  0.00  0.00    +0.141 A 
ATOM     26  C   UNL     1       5.327  -1.062  26.882  0.00  0.00    +0.108 A 
ATOM     27  C   UNL     1       5.463  -1.336  25.416  0.00  0.00    +0.275 A 
ATOM     28  O   UNL     1       4.703  -2.161  24.894  0.00  0.00    -0.266 OA
BRANCH  23  29
ATOM     29  C   UNL     1       8.597   0.768  24.794  0.00  0.00    +0.018 A 
ATOM     30  C   UNL     1       8.532   2.000  24.138  0.00  0.00    +0.011 A 
ATOM     31  C   UNL     1       9.687   2.586  23.600  0.00  0.00    +0.001 A 
ATOM     32  C   UNL     1      10.932   1.991  23.787  0.00  0.00    +0.000 A 
ATOM     33  C   UNL     1      11.027   0.806  24.509  0.00  0.00    +0.001 A 
ATOM     34  C   UNL     1       9.867   0.196  24.998  0.00  0.00    +0.011 A 
ENDBRANCH  23  29
BRANCH  26  35
ATOM     35  N   UNL     1       4.264  -1.625  27.562  0.00  0.00    -0.353 N 
ATOM     36  H   UNL     1       4.294  -1.490  28.567  0.00  0.00    +0.143 HD
ATOM     37  H   UNL     1       4.112  -2.595  27.281  0.00  0.00    +0.143 HD
ENDBRANCH  26  35
ENDBRANCH  21  22
ENDBRANCH   3  21
TORSDOF 10
ENDMDL
MODEL 2
REMARK VINA RESULT:      -7.0      1.827      3.970
REMARK  Name = 
REMARK  15 active torsions:
REMARK  status: ('A' for Active; 'I' for Inactive)
REMARK    1  A    between atoms: C_1  and  C_2
REMARK    2  A    between atoms: C_2  and  C_3
REMARK    3  A    between atoms: C_2  and  C_4
REMARK    4  A    between atoms: C_4  and  N_6
REMARK    5  A    between atoms: C_4  and  C_24
REMARK    6  A    between atoms: C_7  and  C_9
REMARK    7  A    between atoms: C_9  and  N_10
REMARK    8  A    between atoms: C_13  and  N_14
REMARK    9  A    between atoms: C_17  and  C_18
REMARK   10  A    between atoms: C_24  and  O_26
REMARK   11  A    between atoms: C_24  and  C_27
REMARK   12  A    between atoms: C_30  and  C_32
REMARK   13  A    between atoms: C_32  and  C_33
REMARK   14  A    between atoms: C_32  and  C_34
REMARK   15  A    between atoms: C_32  and  C_35
REMARK                            x       y       z     vdW  Elec       q    Type
REMARK                         _______ _______ _______ _____ _____    ______ ____
ROOT
ATOM      1  N   UNL     1       8.360  -3.274  24.486  0.00  0.00    -0.308 N 
ATOM      2  H   UNL     1       7.591  -3.036  25.113  0.00  0.00    +0.149 HD
ATOM      3  C   UNL     1       9.396  -2.380  24.334  0.00  0.00    +0.233 C 
ATOM      4  O   UNL     1      10.423  -2.643  23.713  0.00  0.00    -0.274 OA
ENDROOT
BRANCH   1   5
ATOM      5  C   UNL     1       8.307  -4.576  23.791  0.00  0.00    +0.113 C 
BRANCH   5   7
ATOM      6  C   UNL     1       6.888  -3.491  21.894  0.00  0.00    +0.009 C 
ATOM      7  C   UNL     1       7.053  -4.665  22.861  0.00  0.00    +0.006 C 
ATOM      8  C   UNL     1       7.016  -5.977  22.064  0.00  0.00    +0.009 C 
ENDBRANCH   5   7
BRANCH   5   9
ATOM      9  C   UNL     1       8.452  -5.719  24.832  0.00  0.00    +0.222 C 
BRANCH   9  10
ATOM     10  C   UNL     1       7.636  -5.498  26.062  0.00  0.00    +0.247 A 
ATOM     11  O   UNL     1       6.339  -5.951  26.093  0.00  0.00    -0.421 OA
ATOM     12  C   UNL     1       5.943  -5.590  27.356  0.00  0.00    +0.223 A 
ATOM     13  N   UNL     1       6.896  -4.971  28.025  0.00  0.00    -0.112 NA
ATOM     14  N   UNL     1       7.990  -4.910  27.188  0.00  0.00    -0.110 NA
BRANCH  12  15
ATOM     15  C   UNL     1       4.549  -5.952  27.782  0.00  0.00    +0.040 C 
ATOM     16  C   UNL     1       4.590  -7.174  28.714  0.00  0.00    +0.020 C 
ATOM     17  C   UNL     1       3.689  -6.272  26.549  0.00  0.00    +0.020 C 
ATOM     18  C   UNL     1       3.899  -4.780  28.543  0.00  0.00    +0.020 C 
ENDBRANCH  12  15
ENDBRANCH   9  10
BRANCH   9  19
ATOM     19  O   UNL     1       9.826  -5.919  25.194  0.00  0.00    -0.381 OA
ATOM     20  H   UNL     1      10.056  -6.832  24.955  0.00  0.00    +0.211 HD
ENDBRANCH   9  19
ENDBRANCH   5   9
ENDBRANCH   1   5
BRANCH   3  21
ATOM     21  C   UNL     1       9.203  -1.042  25.040  0.00  0.00    +0.222 C 
BRANCH  21  22
ATOM     22  N   UNL     1       8.551  -0.087  24.148  0.00  0.00    -0.282 N 
ATOM     23  C   UNL     1       7.173   0.105  24.006  0.00  0.00    +0.144 A 
ATOM     24  N   UNL     1       6.682   0.880  23.083  0.00  0.00    -0.235 NA
ATOM     25  C   UNL     1       7.525   1.559  22.260  0.00  0.00    +0.141 A 
ATOM     26  C   UNL     1       8.860   1.504  22.286  0.00  0.00    +0.108 A 
ATOM     27  C   UNL     1       9.436   0.533  23.269  0.00  0.00    +0.275 A 
ATOM     28  O   UNL     1      10.647   0.287  23.220  0.00  0.00    -0.266 OA
BRANCH  23  29
ATOM     29  C   UNL     1       6.146  -0.579  24.874  0.00  0.00    +0.018 A 
ATOM     30  C   UNL     1       5.548  -1.807  24.577  0.00  0.00    +0.011 A 
ATOM     31  C   UNL     1       4.635  -2.391  25.466  0.00  0.00    +0.001 A 
ATOM     32  C   UNL     1       4.376  -1.800  26.701  0.00  0.00    +0.000 A 
ATOM     33  C   UNL     1       5.026  -0.621  27.049  0.00  0.00    +0.001 A 
ATOM     34  C   UNL     1       5.895  -0.012  26.138  0.00  0.00    +0.011 A 
ENDBRANCH  23  29
BRANCH  26  35
ATOM     35  N   UNL     1       9.724   2.200  21.463  0.00  0.00    -0.353 N 
ATOM     36  H   UNL     1      10.268   1.613  20.838  0.00  0.00    +0.143 HD
ATOM     37  H   UNL     1      10.285   2.871  21.990  0.00  0.00    +0.143 HD
ENDBRANCH  26  35
ENDBRANCH  21  22
ENDBRANCH   3  21
TORSDOF 10
ENDMDL
MODEL 3
REMARK VINA RESULT:      -6.9      3.336      5.295
REMARK  Name = 
REMARK  15 active torsions:
REMARK  status: ('A' for Active; 'I' for Inactive)
REMARK    1  A    between atoms: C_1  and  C_2
REMARK    2  A    between atoms: C_2  and  C_3
REMARK    3  A    between atoms: C_2  and  C_4
REMARK    4  A    between atoms: C_4  and  N_6
REMARK    5  A    between atoms: C_4  and  C_24
REMARK    6  A    between atoms: C_7  and  C_9
REMARK    7  A    between atoms: C_9  and  N_10
REMARK    8  A    between atoms: C_13  and  N_14
REMARK    9  A    between atoms: C_17  and  C_18
REMARK   10  A    between atoms: C_24  and  O_26
REMARK   11  A    between atoms: C_24  and  C_27
REMARK   12  A    between atoms: C_30  and  C_32
REMARK   13  A    between atoms: C_32  and  C_33
REMARK   14  A    between atoms: C_32  and  C_34
REMARK   15  A    between atoms: C_32  and  C_35
REMARK                            x       y       z     vdW  Elec       q    Type
REMARK                         _______ _______ _______ _____ _____    ______ ____
ROOT
ATOM      1  N   UNL     1       8.765   0.582  24.849  0.00  0.00    -0.308 N 
ATOM      2  H   UNL     1       7.924   0.524  25.424  0.00  0.00    +0.149 HD
ATOM      3  C   UNL     1       9.345   1.813  24.642  0.00  0.00    +0.233 C 
ATOM      4  O   UNL     1      10.431   1.957  24.084  0.00  0.00    -0.274 OA
ENDROOT
BRANCH   1   5
ATOM      5  C   UNL     1       9.306  -0.672  24.287  0.00  0.00    +0.113 C 
BRANCH   5   7
ATOM      6  C   UNL     1       7.341  -0.314  22.613  0.00  0.00    +0.009 C 
ATOM      7  C   UNL     1       8.705  -0.957  22.872  0.00  0.00    +0.006 C 
ATOM      8  C   UNL     1       9.666  -0.559  21.743  0.00  0.00    +0.009 C 
ENDBRANCH   5   7
BRANCH   5   9
ATOM      9  C   UNL     1       9.142  -1.813  25.327  0.00  0.00    +0.222 C 
BRANCH   9  10
ATOM     10  C   UNL     1       8.722  -3.108  24.714  0.00  0.00    +0.247 A 
ATOM     11  O   UNL     1       7.415  -3.265  24.317  0.00  0.00    -0.421 OA
ATOM     12  C   UNL     1       7.428  -4.536  23.800  0.00  0.00    +0.223 A 
ATOM     13  N   UNL     1       8.616  -5.101  23.881  0.00  0.00    -0.112 NA
ATOM     14  N   UNL     1       9.452  -4.178  24.474  0.00  0.00    -0.110 NA
BRANCH  12  15
ATOM     15  C   UNL     1       6.147  -5.070  23.225  0.00  0.00    +0.040 C 
ATOM     16  C   UNL     1       5.395  -5.882  24.292  0.00  0.00    +0.020 C 
ATOM     17  C   UNL     1       6.448  -5.965  22.013  0.00  0.00    +0.020 C 
ATOM     18  C   UNL     1       5.240  -3.911  22.766  0.00  0.00    +0.020 C 
ENDBRANCH  12  15
ENDBRANCH   9  10
BRANCH   9  19
ATOM     19  O   UNL     1       8.215  -1.444  26.359  0.00  0.00    -0.381 OA
ATOM     20  H   UNL     1       7.629  -0.763  25.988  0.00  0.00    +0.211 HD
ENDBRANCH   9  19
ENDBRANCH   5   9
ENDBRANCH   1   5
BRANCH   3  21
ATOM     21  C   UNL     1       8.566   2.997  25.203  0.00  0.00    +0.222 C 
BRANCH  21  22
ATOM     22  N   UNL     1       8.065   3.836  24.118  0.00  0.00    -0.282 N 
ATOM     23  C   UNL     1       8.622   5.042  23.679  0.00  0.00    +0.144 A 
ATOM     24  N   UNL     1       8.025   5.790  22.799  0.00  0.00    -0.235 NA
ATOM     25  C   UNL     1       6.848   5.377  22.255  0.00  0.00    +0.141 A 
ATOM     26  C   UNL     1       6.204   4.245  22.548  0.00  0.00    +0.108 A 
ATOM     27  C   UNL     1       6.823   3.426  23.638  0.00  0.00    +0.275 A 
ATOM     28  O   UNL     1       6.187   2.468  24.095  0.00  0.00    -0.266 OA
BRANCH  23  29
ATOM     29  C   UNL     1       9.929   5.588  24.196  0.00  0.00    +0.018 A 
ATOM     30  C   UNL     1      11.168   5.395  23.579  0.00  0.00    +0.011 A 
ATOM     31  C   UNL     1      12.329   5.979  24.106  0.00  0.00    +0.001 A 
ATOM     32  C   UNL     1      12.253   6.833  25.204  0.00  0.00    +0.000 A 
ATOM     33  C   UNL     1      11.016   7.103  25.781  0.00  0.00    +0.001 A 
ATOM     34  C   UNL     1       9.868   6.477  25.286  0.00  0.00    +0.011 A 
ENDBRANCH  23  29
BRANCH  26  35
ATOM     35  N   UNL     1       5.016   3.810  21.992  0.00  0.00    -0.353 N 
ATOM     36  H   UNL     1       4.219   4.407  22.191  0.00  0.00    +0.143 HD
ATOM     37  H   UNL     1       4.850   2.822  22.188  0.00  0.00    +0.143 HD
ENDBRANCH  26  35
ENDBRANCH  21  22
ENDBRANCH   3  21
TORSDOF 10
ENDMDL
MODEL 4
REMARK VINA RESULT:      -6.8      1.585      2.048
REMARK  Name = 
REMARK  15 active torsions:
REMARK  status: ('A' for Active; 'I' for Inactive)
REMARK    1  A    between atoms: C_1  and  C_2
REMARK    2  A    between atoms: C_2  and  C_3
REMARK    3  A    between atoms: C_2  and  C_4
REMARK    4  A    between atoms: C_4  and  N_6
REMARK    5  A    between atoms: C_4  and  C_24
REMARK    6  A    between atoms: C_7  and  C_9
REMARK    7  A    between atoms: C_9  and  N_10
REMARK    8  A    between atoms: C_13  and  N_14
REMARK    9  A    between atoms: C_17  and  C_18
REMARK   10  A    between atoms: C_24  and  O_26
REMARK   11  A    between atoms: C_24  and  C_27
REMARK   12  A    between atoms: C_30  and  C_32
REMARK   13  A    between atoms: C_32  and  C_33
REMARK   14  A    between atoms: C_32  and  C_34
REMARK   15  A    between atoms: C_32  and  C_35
REMARK                            x       y       z     vdW  Elec       q    Type
REMARK                         _______ _______ _______ _____ _____    ______ ____
ROOT
ATOM      1  N   UNL     1       8.261  -2.698  24.954  0.00  0.00    -0.308 N 
ATOM      2  H   UNL     1       7.497  -2.871  25.607  0.00  0.00    +0.149 HD
ATOM      3  C   UNL     1       9.022  -1.562  25.107  0.00  0.00    +0.233 C 
ATOM      4  O   UNL     1      10.043  -1.346  24.458  0.00  0.00    -0.274 OA
ENDROOT
BRANCH   1   5
ATOM      5  C   UNL     1       8.503  -3.696  23.893  0.00  0.00    +0.113 C 
BRANCH   5   7
ATOM      6  C   UNL     1       7.035  -4.960  22.149  0.00  0.00    +0.009 C 
ATOM      7  C   UNL     1       7.399  -3.618  22.788  0.00  0.00    +0.006 C 
ATOM      8  C   UNL     1       6.117  -2.943  23.296  0.00  0.00    +0.009 C 
ENDBRANCH   5   7
BRANCH   5   9
ATOM      9  C   UNL     1       8.704  -5.094  24.540  0.00  0.00    +0.222 C 
BRANCH   9  10
ATOM     10  C   UNL     1       7.890  -5.291  25.774  0.00  0.00    +0.247 A 
ATOM     11  O   UNL     1       6.554  -5.591  25.652  0.00  0.00    -0.421 OA
ATOM     12  C   UNL     1       6.170  -5.714  26.963  0.00  0.00    +0.223 A 
ATOM     13  N   UNL     1       7.166  -5.502  27.801  0.00  0.00    -0.112 NA
ATOM     14  N   UNL     1       8.277  -5.228  27.033  0.00  0.00    -0.110 NA
BRANCH  12  15
ATOM     15  C   UNL     1       4.739  -6.074  27.242  0.00  0.00    +0.040 C 
ATOM     16  C   UNL     1       4.184  -6.931  26.093  0.00  0.00    +0.020 C 
ATOM     17  C   UNL     1       3.895  -4.798  27.388  0.00  0.00    +0.020 C 
ATOM     18  C   UNL     1       4.634  -6.885  28.549  0.00  0.00    +0.020 C 
ENDBRANCH  12  15
ENDBRANCH   9  10
BRANCH   9  19
ATOM     19  O   UNL     1      10.089  -5.335  24.831  0.00  0.00    -0.381 OA
ATOM     20  H   UNL     1      10.148  -6.214  25.238  0.00  0.00    +0.211 HD
ENDBRANCH   9  19
ENDBRANCH   5   9
ENDBRANCH   1   5
BRANCH   3  21
ATOM     21  C   UNL     1       8.535  -0.598  26.184  0.00  0.00    +0.222 C 
BRANCH  21  22
ATOM     22  N   UNL     1       7.290   0.041  25.769  0.00  0.00    -0.282 N 
ATOM     23  C   UNL     1       7.154   1.033  24.791  0.00  0.00    +0.144 A 
ATOM     24  N   UNL     1       6.023   1.643  24.589  0.00  0.00    -0.235 NA
ATOM     25  C   UNL     1       4.929   1.285  25.313  0.00  0.00    +0.141 A 
ATOM     26  C   UNL     1       4.890   0.345  26.261  0.00  0.00    +0.108 A 
ATOM     27  C   UNL     1       6.207  -0.290  26.580  0.00  0.00    +0.275 A 
ATOM     28  O   UNL     1       6.286  -1.028  27.570  0.00  0.00    -0.266 OA
BRANCH  23  29
ATOM     29  C   UNL     1       8.292   1.495  23.916  0.00  0.00    +0.018 A 
ATOM     30  C   UNL     1       9.390   2.232  24.368  0.00  0.00    +0.011 A 
ATOM     31  C   UNL     1      10.427   2.581  23.490  0.00  0.00    +0.001 A 
ATOM     32  C   UNL     1      10.422   2.124  22.174  0.00  0.00    +0.000 A 
ATOM     33  C   UNL     1       9.378   1.319  21.730  0.00  0.00    +0.001 A 
ATOM     34  C   UNL     1       8.318   1.017  22.591  0.00  0.00    +0.011 A 
ENDBRANCH  23  29
BRANCH  26  35
ATOM     35  N   UNL     1       3.781  -0.035  26.992  0.00  0.00    -0.353 N 
ATOM     36  H   UNL     1       3.847   0.166  27.985  0.00  0.00    +0.143 HD
ATOM     37  H   UNL     1       3.505  -0.996  26.784  0.00  0.00    +0.143 HD
ENDBRANCH  26  35
ENDBRANCH  21  22
ENDBRANCH   3  21
TORSDOF 10
ENDMDL
MODEL 5
REMARK VINA RESULT:      -6.7      3.313      8.104
REMARK  Name = 
REMARK  15 active torsions:
REMARK  status: ('A' for Active; 'I' for Inactive)
REMARK    1  A    between atoms: C_1  and  C_2
REMARK    2  A    between atoms: C_2  and  C_3
REMARK    3  A    between atoms: C_2  and  C_4
REMARK    4  A    between atoms: C_4  and  N_6
REMARK    5  A    between atoms: C_4  and  C_24
REMARK    6  A    between atoms: C_7  and  C_9
REMARK    7  A    between atoms: C_9  and  N_10
REMARK    8  A    between atoms: C_13  and  N_14
REMARK    9  A    between atoms: C_17  and  C_18
REMARK   10  A    between atoms: C_24  and  O_26
REMARK   11  A    between atoms: C_24  and  C_27
REMARK   12  A    between atoms: C_30  and  C_32
REMARK   13  A    between atoms: C_32  and  C_33
REMARK   14  A    between atoms: C_32  and  C_34
REMARK   15  A    between atoms: C_32  and  C_35
REMARK                            x       y       z     vdW  Elec       q    Type
REMARK                         _______ _______ _______ _____ _____    ______ ____
ROOT
ATOM      1  N   UNL     1       8.256   0.732  26.042  0.00  0.00    -0.308 N 
ATOM      2  H   UNL     1       8.632   1.392  25.361  0.00  0.00    +0.149 HD
ATOM      3  C   UNL     1       8.932  -0.446  26.269  0.00  0.00    +0.233 C 
ATOM      4  O   UNL     1       8.632  -1.229  27.167  0.00  0.00    -0.274 OA
ENDROOT
BRANCH   1   5
ATOM      5  C   UNL     1       7.013   1.099  26.748  0.00  0.00    +0.113 C 
BRANCH   5   7
ATOM      6  C   UNL     1       6.036  -0.247  24.742  0.00  0.00    +0.009 C 
ATOM      7  C   UNL     1       5.774   0.391  26.108  0.00  0.00    +0.006 C 
ATOM      8  C   UNL     1       5.164  -0.664  27.043  0.00  0.00    +0.009 C 
ENDBRANCH   5   7
BRANCH   5   9
ATOM      9  C   UNL     1       6.920   2.647  26.852  0.00  0.00    +0.222 C 
BRANCH   9  10
ATOM     10  C   UNL     1       7.556   3.350  25.700  0.00  0.00    +0.247 A 
ATOM     11  O   UNL     1       8.275   4.498  25.934  0.00  0.00    -0.421 OA
ATOM     12  C   UNL     1       8.706   4.823  24.673  0.00  0.00    +0.223 A 
ATOM     13  N   UNL     1       8.287   3.969  23.761  0.00  0.00    -0.112 NA
ATOM     14  N   UNL     1       7.542   3.017  24.425  0.00  0.00    -0.110 NA
BRANCH  12  15
ATOM     15  C   UNL     1       9.571   6.042  24.522  0.00  0.00    +0.040 C 
ATOM     16  C   UNL     1       8.847   7.092  23.663  0.00  0.00    +0.020 C 
ATOM     17  C   UNL     1      10.904   5.663  23.858  0.00  0.00    +0.020 C 
ATOM     18  C   UNL     1       9.869   6.663  25.901  0.00  0.00    +0.020 C 
ENDBRANCH  12  15
ENDBRANCH   9  10
BRANCH   9  19
ATOM     19  O   UNL     1       7.490   3.118  28.081  0.00  0.00    -0.381 OA
ATOM     20  H   UNL     1       6.755   3.283  28.695  0.00  0.00    +0.211 HD
ENDBRANCH   9  19
ENDBRANCH   5   9
ENDBRANCH   1   5
BRANCH   3  21
ATOM     21  C   UNL     1      10.125  -0.693  25.352  0.00  0.00    +0.222 C 
BRANCH  21  22
ATOM     22  N   UNL     1       9.752  -0.462  23.959  0.00  0.00    -0.282 N 
ATOM     23  C   UNL     1       9.204  -1.405  23.082  0.00  0.00    +0.144 A 
ATOM     24  N   UNL     1       9.035  -1.145  21.818  0.00  0.00    -0.235 NA
ATOM     25  C   UNL     1       9.358   0.086  21.338  0.00  0.00    +0.141 A 
ATOM     26  C   UNL     1       9.864   1.097  22.049  0.00  0.00    +0.108 A 
ATOM     27  C   UNL     1      10.165   0.778  23.480  0.00  0.00    +0.275 A 
ATOM     28  O   UNL     1      10.808   1.598  24.148  0.00  0.00    -0.266 OA
BRANCH  23  29
ATOM     29  C   UNL     1       8.791  -2.791  23.507  0.00  0.00    +0.018 A 
ATOM     30  C   UNL     1       9.521  -3.603  24.379  0.00  0.00    +0.011 A 
ATOM     31  C   UNL     1       9.037  -4.865  24.756  0.00  0.00    +0.001 A 
ATOM     32  C   UNL     1       7.780  -5.292  24.337  0.00  0.00    +0.000 A 
ATOM     33  C   UNL     1       7.003  -4.462  23.537  0.00  0.00    +0.001 A 
ATOM     34  C   UNL     1       7.510  -3.228  23.118  0.00  0.00    +0.011 A 
ENDBRANCH  23  29
BRANCH  26  35
ATOM     35  N   UNL     1      10.182   2.354  21.572  0.00  0.00    -0.353 N 
ATOM     36  H   UNL     1      10.618   2.962  22.259  0.00  0.00    +0.143 HD
ATOM     37  H   UNL     1       9.393   2.782  21.086  0.00  0.00    +0.143 HD
ENDBRANCH  26  35
ENDBRANCH  21  22
ENDBRANCH   3  21
TORSDOF 10
ENDMDL
MODEL 6
REMARK VINA RESULT:      -6.6      2.806      7.271
REMARK  Name = 
REMARK  15 active torsions:
REMARK  status: ('A' for Active; 'I' for Inactive)
REMARK    1  A    between atoms: C_1  and  C_2
REMARK    2  A    between atoms: C_2  and  C_3
REMARK    3  A    between atoms: C_2  and  C_4
REMARK    4  A    between atoms: C_4  and  N_6
REMARK    5  A    between atoms: C_4  and  C_24
REMARK    6  A    between atoms: C_7  and  C_9
REMARK    7  A    between atoms: C_9  and  N_10
REMARK    8  A    between atoms: C_13  and  N_14
REMARK    9  A    between atoms: C_17  and  C_18
REMARK   10  A    between atoms: C_24  and  O_26
REMARK   11  A    between atoms: C_24  and  C_27
REMARK   12  A    between atoms: C_30  and  C_32
REMARK   13  A    between atoms: C_32  and  C_33
REMARK   14  A    between atoms: C_32  and  C_34
REMARK   15  A    between atoms: C_32  and  C_35
REMARK                            x       y       z     vdW  Elec       q    Type
REMARK                         _______ _______ _______ _____ _____    ______ ____
ROOT
ATOM      1  N   UNL     1       6.471   0.178  24.291  0.00  0.00    -0.308 N 
ATOM      2  H   UNL     1       7.223   0.223  23.604  0.00  0.00    +0.149 HD
ATOM      3  C   UNL     1       5.875  -1.037  24.546  0.00  0.00    +0.233 C 
ATOM      4  O   UNL     1       5.064  -1.209  25.453  0.00  0.00    -0.274 OA
ENDROOT
BRANCH   1   5
ATOM      5  C   UNL     1       6.084   1.427  24.976  0.00  0.00    +0.113 C 
BRANCH   5   7
ATOM      6  C   UNL     1       6.405   2.312  22.546  0.00  0.00    +0.009 C 
ATOM      7  C   UNL     1       5.850   2.581  23.947  0.00  0.00    +0.006 C 
ATOM      8  C   UNL     1       4.368   2.963  23.832  0.00  0.00    +0.009 C 
ENDBRANCH   5   7
BRANCH   5   9
ATOM      9  C   UNL     1       7.108   1.733  26.104  0.00  0.00    +0.222 C 
BRANCH   9  10
ATOM     10  C   UNL     1       7.634   3.128  26.054  0.00  0.00    +0.247 A 
ATOM     11  O   UNL     1       8.470   3.489  25.025  0.00  0.00    -0.421 OA
ATOM     12  C   UNL     1       8.714   4.809  25.308  0.00  0.00    +0.223 A 
ATOM     13  N   UNL     1       8.098   5.212  26.402  0.00  0.00    -0.112 NA
ATOM     14  N   UNL     1       7.401   4.124  26.885  0.00  0.00    -0.110 NA
BRANCH  12  15
ATOM     15  C   UNL     1       9.593   5.577  24.362  0.00  0.00    +0.040 C 
ATOM     16  C   UNL     1      10.602   4.625  23.700  0.00  0.00    +0.020 C 
ATOM     17  C   UNL     1      10.347   6.679  25.123  0.00  0.00    +0.020 C 
ATOM     18  C   UNL     1       8.745   6.236  23.256  0.00  0.00    +0.020 C 
ENDBRANCH  12  15
ENDBRANCH   9  10
BRANCH   9  19
ATOM     19  O   UNL     1       8.200   0.802  26.077  0.00  0.00    -0.381 OA
ATOM     20  H   UNL     1       8.628   0.887  25.208  0.00  0.00    +0.211 HD
ENDBRANCH   9  19
ENDBRANCH   5   9
ENDBRANCH   1   5
BRANCH   3  21
ATOM     21  C   UNL     1       6.331  -2.181  23.647  0.00  0.00    +0.222 C 
BRANCH  21  22
ATOM     22  N   UNL     1       7.506  -2.837  24.215  0.00  0.00    -0.282 N 
ATOM     23  C   UNL     1       8.842  -2.500  23.968  0.00  0.00    +0.144 A 
ATOM     24  N   UNL     1       9.823  -3.231  24.409  0.00  0.00    -0.235 NA
ATOM     25  C   UNL     1       9.554  -4.329  25.166  0.00  0.00    +0.141 A 
ATOM     26  C   UNL     1       8.340  -4.766  25.510  0.00  0.00    +0.108 A 
ATOM     27  C   UNL     1       7.198  -3.998  24.919  0.00  0.00    +0.275 A 
ATOM     28  O   UNL     1       6.054  -4.454  25.035  0.00  0.00    -0.266 OA
BRANCH  23  29
ATOM     29  C   UNL     1       9.258  -1.297  23.161  0.00  0.00    +0.018 A 
ATOM     30  C   UNL     1       8.885  -1.065  21.834  0.00  0.00    +0.011 A 
ATOM     31  C   UNL     1       9.282   0.107  21.173  0.00  0.00    +0.001 A 
ATOM     32  C   UNL     1       9.981   1.099  21.856  0.00  0.00    +0.000 A 
ATOM     33  C   UNL     1      10.288   0.922  23.201  0.00  0.00    +0.001 A 
ATOM     34  C   UNL     1       9.938  -0.270  23.843  0.00  0.00    +0.011 A 
ENDBRANCH  23  29
BRANCH  26  35
ATOM     35  N   UNL     1       8.057  -5.872  26.289  0.00  0.00    -0.353 N 
ATOM     36  H   UNL     1       7.501  -6.581  25.821  0.00  0.00    +0.143 HD
ATOM     37  H   UNL     1       7.695  -5.602  27.205  0.00  0.00    +0.143 HD
ENDBRANCH  26  35
ENDBRANCH  21  22
ENDBRANCH   3  21
TORSDOF 10
ENDMDL
MODEL 7
REMARK VINA RESULT:      -6.6      1.859      5.137
REMARK  Name = 
REMARK  15 active torsions:
REMARK  status: ('A' for Active; 'I' for Inactive)
REMARK    1  A    between atoms: C_1  and  C_2
REMARK    2  A    between atoms: C_2  and  C_3
REMARK    3  A    between atoms: C_2  and  C_4
REMARK    4  A    between atoms: C_4  and  N_6
REMARK    5  A    between atoms: C_4  and  C_24
REMARK    6  A    between atoms: C_7  and  C_9
REMARK    7  A    between atoms: C_9  and  N_10
REMARK    8  A    between atoms: C_13  and  N_14
REMARK    9  A    between atoms: C_17  and  C_18
REMARK   10  A    between atoms: C_24  and  O_26
REMARK   11  A    between atoms: C_24  and  C_27
REMARK   12  A    between atoms: C_30  and  C_32
REMARK   13  A    between atoms: C_32  and  C_33
REMARK   14  A    between atoms: C_32  and  C_34
REMARK   15  A    between atoms: C_32  and  C_35
REMARK                            x       y       z     vdW  Elec       q    Type
REMARK                         _______ _______ _______ _____ _____    ______ ____
ROOT
ATOM      1  N   UNL     1       9.073  -1.655  24.549  0.00  0.00    -0.308 N 
ATOM      2  H   UNL     1       8.481  -0.992  25.049  0.00  0.00    +0.149 HD
ATOM      3  C   UNL     1       9.235  -2.921  25.064  0.00  0.00    +0.233 C 
ATOM      4  O   UNL     1       9.812  -3.822  24.459  0.00  0.00    -0.274 OA
ENDROOT
BRANCH   1   5
ATOM      5  C   UNL     1       9.707  -1.205  23.294  0.00  0.00    +0.113 C 
BRANCH   5   7
ATOM      6  C   UNL     1      10.198   1.283  22.693  0.00  0.00    +0.009 C 
ATOM      7  C   UNL     1      10.588   0.064  23.533  0.00  0.00    +0.006 C 
ATOM      8  C   UNL     1      10.627   0.471  25.014  0.00  0.00    +0.009 C 
ENDBRANCH   5   7
BRANCH   5   9
ATOM      9  C   UNL     1       8.621  -1.068  22.191  0.00  0.00    +0.222 C 
BRANCH   9  10
ATOM     10  C   UNL     1       7.494  -2.033  22.356  0.00  0.00    +0.247 A 
ATOM     11  O   UNL     1       7.694  -3.353  22.031  0.00  0.00    -0.421 OA
ATOM     12  C   UNL     1       6.474  -3.906  22.330  0.00  0.00    +0.223 A 
ATOM     13  N   UNL     1       5.615  -3.014  22.782  0.00  0.00    -0.112 NA
ATOM     14  N   UNL     1       6.274  -1.803  22.797  0.00  0.00    -0.110 NA
BRANCH  12  15
ATOM     15  C   UNL     1       6.307  -5.384  22.127  0.00  0.00    +0.040 C 
ATOM     16  C   UNL     1       4.988  -5.852  22.763  0.00  0.00    +0.020 C 
ATOM     17  C   UNL     1       7.483  -6.139  22.766  0.00  0.00    +0.020 C 
ATOM     18  C   UNL     1       6.269  -5.719  20.623  0.00  0.00    +0.020 C 
ENDBRANCH  12  15
ENDBRANCH   9  10
BRANCH   9  19
ATOM     19  O   UNL     1       9.193  -1.211  20.882  0.00  0.00    -0.381 OA
ATOM     20  H   UNL     1      10.122  -0.936  20.943  0.00  0.00    +0.211 HD
ENDBRANCH   9  19
ENDBRANCH   5   9
ENDBRANCH   1   5
BRANCH   3  21
ATOM     21  C   UNL     1       8.599  -3.149  26.431  0.00  0.00    +0.222 C 
BRANCH  21  22
ATOM     22  N   UNL     1       7.189  -3.496  26.285  0.00  0.00    -0.282 N 
ATOM     23  C   UNL     1       6.110  -2.605  26.318  0.00  0.00    +0.144 A 
ATOM     24  N   UNL     1       4.878  -3.024  26.320  0.00  0.00    -0.235 NA
ATOM     25  C   UNL     1       4.623  -4.358  26.246  0.00  0.00    +0.141 A 
ATOM     26  C   UNL     1       5.538  -5.329  26.182  0.00  0.00    +0.108 A 
ATOM     27  C   UNL     1       6.959  -4.869  26.289  0.00  0.00    +0.275 A 
ATOM     28  O   UNL     1       7.848  -5.718  26.429  0.00  0.00    -0.266 OA
BRANCH  23  29
ATOM     29  C   UNL     1       6.273  -1.107  26.380  0.00  0.00    +0.018 A 
ATOM     30  C   UNL     1       7.079  -0.436  27.303  0.00  0.00    +0.011 A 
ATOM     31  C   UNL     1       7.206   0.960  27.259  0.00  0.00    +0.001 A 
ATOM     32  C   UNL     1       6.602   1.692  26.240  0.00  0.00    +0.000 A 
ATOM     33  C   UNL     1       5.864   1.031  25.263  0.00  0.00    +0.001 A 
ATOM     34  C   UNL     1       5.694  -0.355  25.341  0.00  0.00    +0.011 A 
ENDBRANCH  23  29
BRANCH  26  35
ATOM     35  N   UNL     1       5.289  -6.685  26.093  0.00  0.00    -0.353 N 
ATOM     36  H   UNL     1       4.450  -6.987  26.579  0.00  0.00    +0.143 HD
ATOM     37  H   UNL     1       6.119  -7.234  26.321  0.00  0.00    +0.143 HD
ENDBRANCH  26  35
ENDBRANCH  21  22
ENDBRANCH   3  21
TORSDOF 10
ENDMDL
MODEL 8
REMARK VINA RESULT:      -6.6      2.675      5.441
REMARK  Name = 
REMARK  15 active torsions:
REMARK  status: ('A' for Active; 'I' for Inactive)
REMARK    1  A    between atoms: C_1  and  C_2
REMARK    2  A    between atoms: C_2  and  C_3
REMARK    3  A    between atoms: C_2  and  C_4
REMARK    4  A    between atoms: C_4  and  N_6
REMARK    5  A    between atoms: C_4  and  C_24
REMARK    6  A    between atoms: C_7  and  C_9
REMARK    7  A    between atoms: C_9  and  N_10
REMARK    8  A    between atoms: C_13  and  N_14
REMARK    9  A    between atoms: C_17  and  C_18
REMARK   10  A    between atoms: C_24  and  O_26
REMARK   11  A    between atoms: C_24  and  C_27
REMARK   12  A    between atoms: C_30  and  C_32
REMARK   13  A    between atoms: C_32  and  C_33
REMARK   14  A    between atoms: C_32  and  C_34
REMARK   15  A    between atoms: C_32  and  C_35
REMARK                            x       y       z     vdW  Elec       q    Type
REMARK                         _______ _______ _______ _____ _____    ______ ____
ROOT
ATOM      1  N   UNL     1       6.028  -1.954  25.631  0.00  0.00    -0.308 N 
ATOM      2  H   UNL     1       5.251  -2.205  25.020  0.00  0.00    +0.149 HD
ATOM      3  C   UNL     1       6.762  -0.825  25.343  0.00  0.00    +0.233 C 
ATOM      4  O   UNL     1       7.620  -0.372  26.097  0.00  0.00    -0.274 OA
ENDROOT
BRANCH   1   5
ATOM      5  C   UNL     1       6.302  -2.821  26.794  0.00  0.00    +0.113 C 
BRANCH   5   7
ATOM      6  C   UNL     1       8.729  -3.691  26.410  0.00  0.00    +0.009 C 
ATOM      7  C   UNL     1       7.233  -4.013  26.397  0.00  0.00    +0.006 C 
ATOM      8  C   UNL     1       6.984  -5.256  27.264  0.00  0.00    +0.009 C 
ENDBRANCH   5   7
BRANCH   5   9
ATOM      9  C   UNL     1       4.960  -3.215  27.468  0.00  0.00    +0.222 C 
BRANCH   9  10
ATOM     10  C   UNL     1       3.870  -3.489  26.486  0.00  0.00    +0.247 A 
ATOM     11  O   UNL     1       3.683  -4.775  26.040  0.00  0.00    -0.421 OA
ATOM     12  C   UNL     1       2.611  -4.629  25.196  0.00  0.00    +0.223 A 
ATOM     13  N   UNL     1       2.191  -3.381  25.127  0.00  0.00    -0.112 NA
ATOM     14  N   UNL     1       3.006  -2.644  25.960  0.00  0.00    -0.110 NA
BRANCH  12  15
ATOM     15  C   UNL     1       2.081  -5.860  24.518  0.00  0.00    +0.040 C 
ATOM     16  C   UNL     1       3.144  -6.971  24.551  0.00  0.00    +0.020 C 
ATOM     17  C   UNL     1       1.714  -5.541  23.060  0.00  0.00    +0.020 C 
ATOM     18  C   UNL     1       0.819  -6.371  25.241  0.00  0.00    +0.020 C 
ENDBRANCH  12  15
ENDBRANCH   9  10
BRANCH   9  19
ATOM     19  O   UNL     1       4.532  -2.207  28.396  0.00  0.00    -0.381 OA
ATOM     20  H   UNL     1       4.008  -2.652  29.082  0.00  0.00    +0.211 HD
ENDBRANCH   9  19
ENDBRANCH   5   9
ENDBRANCH   1   5
BRANCH   3  21
ATOM     21  C   UNL     1       6.399  -0.136  24.031  0.00  0.00    +0.222 C 
BRANCH  21  22
ATOM     22  N   UNL     1       7.485  -0.280  23.065  0.00  0.00    -0.282 N 
ATOM     23  C   UNL     1       7.897  -1.469  22.454  0.00  0.00    +0.144 A 
ATOM     24  N   UNL     1       8.965  -1.523  21.713  0.00  0.00    -0.235 NA
ATOM     25  C   UNL     1       9.681  -0.389  21.487  0.00  0.00    +0.141 A 
ATOM     26  C   UNL     1       9.405   0.823  21.975  0.00  0.00    +0.108 A 
ATOM     27  C   UNL     1       8.243   0.879  22.916  0.00  0.00    +0.275 A 
ATOM     28  O   UNL     1       8.044   1.921  23.553  0.00  0.00    -0.266 OA
BRANCH  23  29
ATOM     29  C   UNL     1       7.169  -2.780  22.617  0.00  0.00    +0.018 A 
ATOM     30  C   UNL     1       5.808  -2.968  22.362  0.00  0.00    +0.011 A 
ATOM     31  C   UNL     1       5.224  -4.236  22.497  0.00  0.00    +0.001 A 
ATOM     32  C   UNL     1       6.008  -5.346  22.803  0.00  0.00    +0.000 A 
ATOM     33  C   UNL     1       7.379  -5.192  22.978  0.00  0.00    +0.001 A 
ATOM     34  C   UNL     1       7.951  -3.918  22.896  0.00  0.00    +0.011 A 
ENDBRANCH  23  29
BRANCH  26  35
ATOM     35  N   UNL     1      10.119   1.983  21.740  0.00  0.00    -0.353 N 
ATOM     36  H   UNL     1      10.382   2.488  22.580  0.00  0.00    +0.143 HD
ATOM     37  H   UNL     1       9.666   2.565  21.034  0.00  0.00    +0.143 HD
ENDBRANCH  26  35
ENDBRANCH  21  22
ENDBRANCH   3  21
TORSDOF 10
ENDMDL
MODEL 9
REMARK VINA RESULT:      -6.4      2.577      4.548
REMARK  Name = 
REMARK  15 active torsions:
REMARK  status: ('A' for Active; 'I' for Inactive)
REMARK    1  A    between atoms: C_1  and  C_2
REMARK    2  A    between atoms: C_2  and  C_3
REMARK    3  A    between atoms: C_2  and  C_4
REMARK    4  A    between atoms: C_4  and  N_6
REMARK    5  A    between atoms: C_4  and  C_24
REMARK    6  A    between atoms: C_7  and  C_9
REMARK    7  A    between atoms: C_9  and  N_10
REMARK    8  A    between atoms: C_13  and  N_14
REMARK    9  A    between atoms: C_17  and  C_18
REMARK   10  A    between atoms: C_24  and  O_26
REMARK   11  A    between atoms: C_24  and  C_27
REMARK   12  A    between atoms: C_30  and  C_32
REMARK   13  A    between atoms: C_32  and  C_33
REMARK   14  A    between atoms: C_32  and  C_34
REMARK   15  A    between atoms: C_32  and  C_35
REMARK                            x       y       z     vdW  Elec       q    Type
REMARK                         _______ _______ _______ _____ _____    ______ ____
ROOT
ATOM      1  N   UNL     1       7.953   0.171  23.485  0.00  0.00    -0.308 N 
ATOM      2  H   UNL     1       7.063   0.070  22.998  0.00  0.00    +0.149 HD
ATOM      3  C   UNL     1       7.945   0.442  24.835  0.00  0.00    +0.233 C 
ATOM      4  O   UNL     1       8.961   0.441  25.526  0.00  0.00    -0.274 OA
ENDROOT
BRANCH   1   5
ATOM      5  C   UNL     1       9.194   0.008  22.702  0.00  0.00    +0.113 C 
BRANCH   5   7
ATOM      6  C   UNL     1       8.190   2.044  21.422  0.00  0.00    +0.009 C 
ATOM      7  C   UNL     1       9.447   1.250  21.786  0.00  0.00    +0.006 C 
ATOM      8  C   UNL     1      10.486   2.209  22.385  0.00  0.00    +0.009 C 
ENDBRANCH   5   7
BRANCH   5   9
ATOM      9  C   UNL     1       9.164  -1.365  21.975  0.00  0.00    +0.222 C 
BRANCH   9  10
ATOM     10  C   UNL     1       8.262  -2.356  22.631  0.00  0.00    +0.247 A 
ATOM     11  O   UNL     1       8.629  -2.892  23.842  0.00  0.00    -0.421 OA
ATOM     12  C   UNL     1       7.567  -3.715  24.121  0.00  0.00    +0.223 A 
ATOM     13  N   UNL     1       6.650  -3.692  23.174  0.00  0.00    -0.112 NA
ATOM     14  N   UNL     1       7.100  -2.814  22.210  0.00  0.00    -0.110 NA
BRANCH  12  15
ATOM     15  C   UNL     1       7.592  -4.475  25.416  0.00  0.00    +0.040 C 
ATOM     16  C   UNL     1       8.908  -5.262  25.533  0.00  0.00    +0.020 C 
ATOM     17  C   UNL     1       6.403  -5.447  25.478  0.00  0.00    +0.020 C 
ATOM     18  C   UNL     1       7.496  -3.505  26.610  0.00  0.00    +0.020 C 
ENDBRANCH  12  15
ENDBRANCH   9  10
BRANCH   9  19
ATOM     19  O   UNL     1      10.484  -1.916  21.858  0.00  0.00    -0.381 OA
ATOM     20  H   UNL     1      10.566  -2.611  22.532  0.00  0.00    +0.211 HD
ENDBRANCH   9  19
ENDBRANCH   5   9
ENDBRANCH   1   5
BRANCH   3  21
ATOM     21  C   UNL     1       6.566   0.697  25.434  0.00  0.00    +0.222 C 
BRANCH  21  22
ATOM     22  N   UNL     1       6.667   1.605  26.573  0.00  0.00    -0.282 N 
ATOM     23  C   UNL     1       7.031   2.955  26.526  0.00  0.00    +0.144 A 
ATOM     24  N   UNL     1       7.231   3.647  27.610  0.00  0.00    -0.235 NA
ATOM     25  C   UNL     1       7.041   3.063  28.823  0.00  0.00    +0.141 A 
ATOM     26  C   UNL     1       6.669   1.797  29.035  0.00  0.00    +0.108 A 
ATOM     27  C   UNL     1       6.542   0.959  27.801  0.00  0.00    +0.275 A 
ATOM     28  O   UNL     1       6.390  -0.263  27.927  0.00  0.00    -0.266 OA
BRANCH  23  29
ATOM     29  C   UNL     1       7.249   3.710  25.240  0.00  0.00    +0.018 A 
ATOM     30  C   UNL     1       6.229   4.105  24.370  0.00  0.00    +0.011 A 
ATOM     31  C   UNL     1       6.520   4.846  23.215  0.00  0.00    +0.001 A 
ATOM     32  C   UNL     1       7.820   5.276  22.962  0.00  0.00    +0.000 A 
ATOM     33  C   UNL     1       8.835   4.964  23.861  0.00  0.00    +0.001 A 
ATOM     34  C   UNL     1       8.552   4.179  24.983  0.00  0.00    +0.011 A 
ENDBRANCH  23  29
BRANCH  26  35
ATOM     35  N   UNL     1       6.461   1.199  30.262  0.00  0.00    -0.353 N 
ATOM     36  H   UNL     1       5.491   1.186  30.561  0.00  0.00    +0.143 HD
ATOM     37  H   UNL     1       7.105   1.559  30.969  0.00  0.00    +0.143 HD
ENDBRANCH  26  35
ENDBRANCH  21  22
ENDBRANCH   3  21
TORSDOF 10
ENDMDL
