MODEL 1
REMARK VINA RESULT:      -7.2      0.000      0.000
REMARK  Name = 
REMARK  18 active torsions:
REMARK  status: ('A' for Active; 'I' for Inactive)
REMARK    1  A    between atoms: C_1  and  C_2
REMARK    2  A    between atoms: C_2  and  C_4
REMARK    3  A    between atoms: C_2  and  C_50
REMARK    4  A    between atoms: C_4  and  C_6
REMARK    5  A    between atoms: C_4  and  C_35
REMARK    6  A    between atoms: C_6  and  C_7
REMARK    7  A    between atoms: C_7  and  O_9
REMARK    8  A    between atoms: C_7  and  C_10
REMARK    9  A    between atoms: C_10  and  N_11
REMARK   10  A    between atoms: N_14  and  C_15
REMARK   11  A    between atoms: C_15  and  C_16
REMARK   12  A    between atoms: C_26  and  C_28
REMARK   13  A    between atoms: N_30  and  C_31
REMARK   14  A    between atoms: C_31  and  C_32
REMARK   15  A    between atoms: C_31  and  C_33
REMARK   16  A    between atoms: C_31  and  C_34
REMARK   17  A    between atoms: N_37  and  C_38
REMARK   18  A    between atoms: C_40  and  O_42
REMARK                            x       y       z     vdW  Elec       q    Type
REMARK                         _______ _______ _______ _____ _____    ______ ____
ROOT
ATOM      1  C   UNL     1       5.626  -5.068  22.550  0.00  0.00    +0.129 C 
ENDROOT
BRANCH   1   2
ATOM      2  O   UNL     1       5.570  -5.448  21.169  0.00  0.00    -0.391 OA
ATOM      3  H   UNL     1       5.072  -4.761  20.686  0.00  0.00    +0.210 HD
ENDBRANCH   1   2
BRANCH   1   4
ATOM      4  C   UNL     1       4.212  -4.751  23.056  0.00  0.00    +0.046 C 
BRANCH   4   5
ATOM      5  C   UNL     1       3.384  -5.986  23.523  0.00  0.00    +0.085 C 
BRANCH   5   6
ATOM      6  C   UNL     1       4.159  -6.701  24.635  0.00  0.00    +0.217 C 
ATOM      7  N   UNL     1       4.751  -5.848  25.532  0.00  0.00    -0.306 N 
ATOM      8  H   UNL     1       4.654  -4.849  25.405  0.00  0.00    +0.149 HD
ATOM      9  O   UNL     1       4.175  -7.923  24.763  0.00  0.00    -0.275 OA
BRANCH   7  10
ATOM     10  C   UNL     1       5.233  -6.314  26.820  0.00  0.00    +0.132 C 
ATOM     11  C   UNL     1       4.122  -6.186  27.820  0.00  0.00    -0.022 A 
ATOM     12  C   UNL     1       4.399  -5.222  28.786  0.00  0.00    -0.040 A 
ATOM     13  C   UNL     1       3.432  -4.843  29.705  0.00  0.00    +0.004 A 
ATOM     14  C   UNL     1       2.176  -5.451  29.646  0.00  0.00    +0.000 A 
ATOM     15  C   UNL     1       1.909  -6.446  28.695  0.00  0.00    +0.000 A 
ATOM     16  C   UNL     1       5.774  -4.656  28.636  0.00  0.00    +0.069 C 
ATOM     17  C   UNL     1       2.889  -6.827  27.778  0.00  0.00    +0.006 A 
ATOM     18  C   UNL     1       6.356  -5.413  27.420  0.00  0.00    +0.143 C 
BRANCH  18  19
ATOM     19  O   UNL     1       7.490  -6.186  27.842  0.00  0.00    -0.389 OA
ATOM     20  H   UNL     1       7.568  -6.096  28.808  0.00  0.00    +0.210 HD
ENDBRANCH  18  19
ENDBRANCH   7  10
ENDBRANCH   5   6
BRANCH   5  22
ATOM     21  C   UNL     1       1.051  -5.213  22.812  0.00  0.00    +0.013 C 
ATOM     22  C   UNL     1       1.935  -5.663  23.993  0.00  0.00    +0.028 C 
BRANCH  22  23
ATOM     23  C   UNL     1       1.806  -4.606  25.087  0.00  0.00    -0.044 A 
ATOM     24  C   UNL     1       2.766  -3.603  25.295  0.00  0.00    +0.004 A 
ATOM     25  C   UNL     1       2.582  -2.634  26.287  0.00  0.00    +0.000 A 
ATOM     26  C   UNL     1       1.427  -2.638  27.067  0.00  0.00    +0.000 A 
ATOM     27  C   UNL     1       0.451  -3.606  26.852  0.00  0.00    +0.000 A 
ATOM     28  C   UNL     1       0.639  -4.580  25.869  0.00  0.00    +0.004 A 
ENDBRANCH  22  23
ENDBRANCH   5  22
ENDBRANCH   4   5
ENDBRANCH   1   4
BRANCH   1  29
ATOM     29  C   UNL     1       6.572  -3.846  22.576  0.00  0.00    +0.116 C 
BRANCH  29  30
ATOM     30  N   UNL     1       7.075  -3.309  23.875  0.00  0.00    -0.287 NA
ATOM     31  C   UNL     1       6.412  -1.966  24.065  0.00  0.00    +0.157 C 
ATOM     32  C   UNL     1       6.972  -0.827  23.152  0.00  0.00    +0.113 C 
ATOM     33  N   UNL     1       8.448  -0.691  23.063  0.00  0.00    -0.295 NA
ATOM     34  C   UNL     1       9.050  -2.023  22.857  0.00  0.00    +0.100 C 
ATOM     35  C   UNL     1       8.544  -3.121  23.829  0.00  0.00    +0.100 C 
BRANCH  31  36
ATOM     36  C   UNL     1       6.354  -1.456  25.530  0.00  0.00    +0.232 C 
ATOM     37  N   UNL     1       5.801  -0.216  25.782  0.00  0.00    -0.309 N 
ATOM     38  H   UNL     1       5.288   0.219  25.020  0.00  0.00    +0.149 HD
ATOM     39  O   UNL     1       6.891  -2.114  26.417  0.00  0.00    -0.274 OA
BRANCH  37  40
ATOM     40  C   UNL     1       5.750   0.344  27.151  0.00  0.00    +0.026 C 
ATOM     41  C   UNL     1       4.935  -0.564  28.087  0.00  0.00    +0.031 C 
ATOM     42  C   UNL     1       5.068   1.721  27.138  0.00  0.00    +0.031 C 
ATOM     43  C   UNL     1       7.170   0.542  27.724  0.00  0.00    +0.031 C 
ENDBRANCH  37  40
ENDBRANCH  31  36
BRANCH  33  44
ATOM     44  C   UNL     1       9.055  -0.042  24.243  0.00  0.00    +0.119 C 
BRANCH  44  45
ATOM     45  C   UNL     1       9.304   1.452  24.151  0.00  0.00    -0.030 A 
ATOM     46  C   UNL     1      10.517   1.987  23.696  0.00  0.00    +0.054 A 
ATOM     47  C   UNL     1      10.653   3.362  23.677  0.00  0.00    +0.167 A 
ATOM     48  C   UNL     1       9.647   4.203  24.095  0.00  0.00    +0.166 A 
ATOM     49  O   UNL     1       9.989   5.516  24.000  0.00  0.00    -0.453 OA
ATOM     50  C   UNL     1      11.333   5.405  23.491  0.00  0.00    +0.466 C 
ATOM     51  C   UNL     1       8.451   3.720  24.565  0.00  0.00    +0.050 A 
ATOM     52  O   UNL     1      11.758   4.044  23.265  0.00  0.00    -0.453 OA
ATOM     53  C   UNL     1       8.293   2.334  24.610  0.00  0.00    +0.009 A 
ENDBRANCH  44  45
ENDBRANCH  33  44
ENDBRANCH  29  30
ENDBRANCH   1  29
TORSDOF 14
ENDMDL
MODEL 2
REMARK VINA RESULT:      -7.2      2.145      8.616
REMARK  Name = 
REMARK  18 active torsions:
REMARK  status: ('A' for Active; 'I' for Inactive)
REMARK    1  A    between atoms: C_1  and  C_2
REMARK    2  A    between atoms: C_2  and  C_4
REMARK    3  A    between atoms: C_2  and  C_50
REMARK    4  A    between atoms: C_4  and  C_6
REMARK    5  A    between atoms: C_4  and  C_35
REMARK    6  A    between atoms: C_6  and  C_7
REMARK    7  A    between atoms: C_7  and  O_9
REMARK    8  A    between atoms: C_7  and  C_10
REMARK    9  A    between atoms: C_10  and  N_11
REMARK   10  A    between atoms: N_14  and  C_15
REMARK   11  A    between atoms: C_15  and  C_16
REMARK   12  A    between atoms: C_26  and  C_28
REMARK   13  A    between atoms: N_30  and  C_31
REMARK   14  A    between atoms: C_31  and  C_32
REMARK   15  A    between atoms: C_31  and  C_33
REMARK   16  A    between atoms: C_31  and  C_34
REMARK   17  A    between atoms: N_37  and  C_38
REMARK   18  A    between atoms: C_40  and  O_42
REMARK                            x       y       z     vdW  Elec       q    Type
REMARK                         _______ _______ _______ _____ _____    ______ ____
ROOT
ATOM      1  C   UNL     1       7.256  -0.049  26.771  0.00  0.00    +0.129 C 
ENDROOT
BRANCH   1   2
ATOM      2  O   UNL     1       7.924   1.056  27.393  0.00  0.00    -0.391 OA
ATOM      3  H   UNL     1       7.665   1.871  26.920  0.00  0.00    +0.210 HD
ENDBRANCH   1   2
BRANCH   1   4
ATOM      4  C   UNL     1       7.494  -0.009  25.255  0.00  0.00    +0.046 C 
BRANCH   4   5
ATOM      5  C   UNL     1       8.979   0.173  24.822  0.00  0.00    +0.085 C 
BRANCH   5   6
ATOM      6  C   UNL     1       9.507  -1.172  24.311  0.00  0.00    +0.217 C 
ATOM      7  N   UNL     1       8.990  -2.257  24.976  0.00  0.00    -0.306 N 
ATOM      8  H   UNL     1       8.334  -2.109  25.731  0.00  0.00    +0.149 HD
ATOM      9  O   UNL     1      10.253  -1.276  23.341  0.00  0.00    -0.275 OA
BRANCH   7  10
ATOM     10  C   UNL     1       9.097  -3.600  24.436  0.00  0.00    +0.132 C 
ATOM     11  C   UNL     1       7.825  -3.925  23.710  0.00  0.00    -0.022 A 
ATOM     12  C   UNL     1       7.102  -4.930  24.348  0.00  0.00    -0.040 A 
ATOM     13  C   UNL     1       5.825  -5.263  23.924  0.00  0.00    +0.004 A 
ATOM     14  C   UNL     1       5.279  -4.573  22.839  0.00  0.00    +0.000 A 
ATOM     15  C   UNL     1       6.019  -3.585  22.174  0.00  0.00    +0.000 A 
ATOM     16  C   UNL     1       7.841  -5.495  25.518  0.00  0.00    +0.069 C 
ATOM     17  C   UNL     1       7.306  -3.261  22.603  0.00  0.00    +0.006 A 
ATOM     18  C   UNL     1       9.168  -4.703  25.536  0.00  0.00    +0.143 C 
BRANCH  18  19
ATOM     19  O   UNL     1      10.262  -5.606  25.314  0.00  0.00    -0.389 OA
ATOM     20  H   UNL     1      11.047  -5.236  25.757  0.00  0.00    +0.210 HD
ENDBRANCH  18  19
ENDBRANCH   7  10
ENDBRANCH   5   6
BRANCH   5  22
ATOM     21  C   UNL     1      10.526   2.058  24.047  0.00  0.00    +0.013 C 
ATOM     22  C   UNL     1       9.221   1.288  23.762  0.00  0.00    +0.028 C 
BRANCH  22  23
ATOM     23  C   UNL     1       8.107   2.321  23.611  0.00  0.00    -0.044 A 
ATOM     24  C   UNL     1       7.866   3.327  24.560  0.00  0.00    +0.004 A 
ATOM     25  C   UNL     1       6.857   4.274  24.356  0.00  0.00    +0.000 A 
ATOM     26  C   UNL     1       6.092   4.244  23.192  0.00  0.00    +0.000 A 
ATOM     27  C   UNL     1       6.338   3.272  22.228  0.00  0.00    +0.000 A 
ATOM     28  C   UNL     1       7.338   2.320  22.435  0.00  0.00    +0.004 A 
ENDBRANCH  22  23
ENDBRANCH   5  22
ENDBRANCH   4   5
ENDBRANCH   1   4
BRANCH   1  29
ATOM     29  C   UNL     1       5.772   0.127  27.161  0.00  0.00    +0.116 C 
BRANCH  29  30
ATOM     30  N   UNL     1       5.073  -0.921  27.963  0.00  0.00    -0.287 NA
ATOM     31  C   UNL     1       5.187  -2.204  27.176  0.00  0.00    +0.157 C 
ATOM     32  C   UNL     1       4.267  -2.279  25.913  0.00  0.00    +0.113 C 
ATOM     33  N   UNL     1       2.849  -1.873  26.080  0.00  0.00    -0.295 NA
ATOM     34  C   UNL     1       2.789  -0.606  26.836  0.00  0.00    +0.100 C 
ATOM     35  C   UNL     1       3.640  -0.583  28.132  0.00  0.00    +0.100 C 
BRANCH  31  36
ATOM     36  C   UNL     1       5.015  -3.507  28.001  0.00  0.00    +0.232 C 
ATOM     37  N   UNL     1       5.059  -4.722  27.346  0.00  0.00    -0.309 N 
ATOM     38  H   UNL     1       5.389  -4.711  26.385  0.00  0.00    +0.149 HD
ATOM     39  O   UNL     1       4.742  -3.430  29.196  0.00  0.00    -0.274 OA
BRANCH  37  40
ATOM     40  C   UNL     1       4.863  -5.998  28.069  0.00  0.00    +0.026 C 
ATOM     41  C   UNL     1       6.138  -6.398  28.832  0.00  0.00    +0.031 C 
ATOM     42  C   UNL     1       4.548  -7.129  27.078  0.00  0.00    +0.031 C 
ATOM     43  C   UNL     1       3.676  -5.905  29.051  0.00  0.00    +0.031 C 
ENDBRANCH  37  40
ENDBRANCH  31  36
BRANCH  33  44
ATOM     44  C   UNL     1       2.015  -2.896  26.745  0.00  0.00    +0.119 C 
BRANCH  44  45
ATOM     45  C   UNL     1       1.768  -4.182  25.979  0.00  0.00    -0.030 A 
ATOM     46  C   UNL     1       2.006  -4.297  24.603  0.00  0.00    +0.054 A 
ATOM     47  C   UNL     1       1.722  -5.504  23.993  0.00  0.00    +0.167 A 
ATOM     48  C   UNL     1       1.210  -6.574  24.692  0.00  0.00    +0.166 A 
ATOM     49  O   UNL     1       0.998  -7.660  23.903  0.00  0.00    -0.453 OA
ATOM     50  C   UNL     1       1.416  -7.146  22.623  0.00  0.00    +0.466 C 
ATOM     51  C   UNL     1       0.944  -6.497  26.036  0.00  0.00    +0.050 A 
ATOM     52  O   UNL     1       1.895  -5.786  22.672  0.00  0.00    -0.453 OA
ATOM     53  C   UNL     1       1.208  -5.283  26.674  0.00  0.00    +0.009 A 
ENDBRANCH  44  45
ENDBRANCH  33  44
ENDBRANCH  29  30
ENDBRANCH   1  29
TORSDOF 14
ENDMDL
MODEL 3
REMARK VINA RESULT:      -7.1      2.852      9.402
REMARK  Name = 
REMARK  18 active torsions:
REMARK  status: ('A' for Active; 'I' for Inactive)
REMARK    1  A    between atoms: C_1  and  C_2
REMARK    2  A    between atoms: C_2  and  C_4
REMARK    3  A    between atoms: C_2  and  C_50
REMARK    4  A    between atoms: C_4  and  C_6
REMARK    5  A    between atoms: C_4  and  C_35
REMARK    6  A    between atoms: C_6  and  C_7
REMARK    7  A    between atoms: C_7  and  O_9
REMARK    8  A    between atoms: C_7  and  C_10
REMARK    9  A    between atoms: C_10  and  N_11
REMARK   10  A    between atoms: N_14  and  C_15
REMARK   11  A    between atoms: C_15  and  C_16
REMARK   12  A    between atoms: C_26  and  C_28
REMARK   13  A    between atoms: N_30  and  C_31
REMARK   14  A    between atoms: C_31  and  C_32
REMARK   15  A    between atoms: C_31  and  C_33
REMARK   16  A    between atoms: C_31  and  C_34
REMARK   17  A    between atoms: N_37  and  C_38
REMARK   18  A    between atoms: C_40  and  O_42
REMARK                            x       y       z     vdW  Elec       q    Type
REMARK                         _______ _______ _______ _____ _____    ______ ____
ROOT
ATOM      1  C   UNL     1       8.934   1.200  21.322  0.00  0.00    +0.129 C 
ENDROOT
BRANCH   1   2
ATOM      2  O   UNL     1      10.156   1.923  21.510  0.00  0.00    -0.391 OA
ATOM      3  H   UNL     1      10.223   2.165  22.454  0.00  0.00    +0.210 HD
ENDBRANCH   1   2
BRANCH   1   4
ATOM      4  C   UNL     1       7.751   2.050  21.808  0.00  0.00    +0.046 C 
BRANCH   4   5
ATOM      5  C   UNL     1       8.136   3.422  22.437  0.00  0.00    +0.085 C 
BRANCH   5   6
ATOM      6  C   UNL     1       6.952   4.381  22.281  0.00  0.00    +0.217 C 
ATOM      7  N   UNL     1       5.730   3.755  22.285  0.00  0.00    -0.306 N 
ATOM      8  H   UNL     1       5.689   2.749  22.375  0.00  0.00    +0.149 HD
ATOM      9  O   UNL     1       7.077   5.603  22.244  0.00  0.00    -0.275 OA
BRANCH   7  10
ATOM     10  C   UNL     1       4.497   4.495  22.487  0.00  0.00    +0.132 C 
ATOM     11  C   UNL     1       4.140   4.439  23.943  0.00  0.00    -0.022 A 
ATOM     12  C   UNL     1       2.980   3.701  24.167  0.00  0.00    -0.040 A 
ATOM     13  C   UNL     1       2.571   3.399  25.456  0.00  0.00    +0.004 A 
ATOM     14  C   UNL     1       3.343   3.853  26.528  0.00  0.00    +0.000 A 
ATOM     15  C   UNL     1       4.492   4.625  26.304  0.00  0.00    +0.000 A 
ATOM     16  C   UNL     1       2.340   3.262  22.889  0.00  0.00    +0.069 C 
ATOM     17  C   UNL     1       4.893   4.931  25.003  0.00  0.00    +0.006 A 
ATOM     18  C   UNL     1       3.264   3.839  21.793  0.00  0.00    +0.143 C 
BRANCH  18  19
ATOM     19  O   UNL     1       2.529   4.789  21.006  0.00  0.00    -0.389 OA
ATOM     20  H   UNL     1       1.606   4.781  21.316  0.00  0.00    +0.210 HD
ENDBRANCH  18  19
ENDBRANCH   7  10
ENDBRANCH   5   6
BRANCH   5  22
ATOM     21  C   UNL     1       7.474   2.782  24.824  0.00  0.00    +0.013 C 
ATOM     22  C   UNL     1       8.588   3.356  23.926  0.00  0.00    +0.028 C 
BRANCH  22  23
ATOM     23  C   UNL     1       9.038   4.676  24.548  0.00  0.00    -0.044 A 
ATOM     24  C   UNL     1       8.406   5.249  25.661  0.00  0.00    +0.004 A 
ATOM     25  C   UNL     1       8.882   6.441  26.217  0.00  0.00    +0.000 A 
ATOM     26  C   UNL     1      10.010   7.063  25.685  0.00  0.00    +0.000 A 
ATOM     27  C   UNL     1      10.667   6.491  24.600  0.00  0.00    +0.000 A 
ATOM     28  C   UNL     1      10.186   5.306  24.038  0.00  0.00    +0.004 A 
ENDBRANCH  22  23
ENDBRANCH   5  22
ENDBRANCH   4   5
ENDBRANCH   1   4
BRANCH   1  29
ATOM     29  C   UNL     1       9.125  -0.101  22.135  0.00  0.00    +0.116 C 
BRANCH  29  30
ATOM     30  N   UNL     1       8.100  -0.523  23.135  0.00  0.00    -0.287 NA
ATOM     31  C   UNL     1       8.858  -0.914  24.381  0.00  0.00    +0.157 C 
ATOM     32  C   UNL     1       9.612  -2.281  24.284  0.00  0.00    +0.113 C 
ATOM     33  N   UNL     1       8.862  -3.434  23.726  0.00  0.00    -0.295 NA
ATOM     34  C   UNL     1       8.154  -3.010  22.501  0.00  0.00    +0.100 C 
ATOM     35  C   UNL     1       7.342  -1.697  22.642  0.00  0.00    +0.100 C 
BRANCH  31  36
ATOM     36  C   UNL     1       8.034  -0.886  25.696  0.00  0.00    +0.232 C 
ATOM     37  N   UNL     1       6.739  -0.409  25.660  0.00  0.00    -0.309 N 
ATOM     38  H   UNL     1       6.325  -0.278  24.741  0.00  0.00    +0.149 HD
ATOM     39  O   UNL     1       8.580  -1.187  26.754  0.00  0.00    -0.274 OA
BRANCH  37  40
ATOM     40  C   UNL     1       5.913  -0.319  26.885  0.00  0.00    +0.026 C 
ATOM     41  C   UNL     1       4.592   0.417  26.605  0.00  0.00    +0.031 C 
ATOM     42  C   UNL     1       6.658   0.471  27.972  0.00  0.00    +0.031 C 
ATOM     43  C   UNL     1       5.616  -1.720  27.460  0.00  0.00    +0.031 C 
ENDBRANCH  37  40
ENDBRANCH  31  36
BRANCH  33  44
ATOM     44  C   UNL     1       7.903  -4.032  24.678  0.00  0.00    +0.119 C 
BRANCH  44  45
ATOM     45  C   UNL     1       6.601  -4.556  24.101  0.00  0.00    -0.030 A 
ATOM     46  C   UNL     1       5.348  -4.106  24.537  0.00  0.00    +0.054 A 
ATOM     47  C   UNL     1       4.221  -4.667  23.967  0.00  0.00    +0.167 A 
ATOM     48  C   UNL     1       4.300  -5.647  23.004  0.00  0.00    +0.166 A 
ATOM     49  O   UNL     1       3.077  -6.066  22.582  0.00  0.00    -0.453 OA
ATOM     50  C   UNL     1       2.218  -5.249  23.403  0.00  0.00    +0.466 C 
ATOM     51  C   UNL     1       5.507  -6.130  22.563  0.00  0.00    +0.050 A 
ATOM     52  O   UNL     1       2.934  -4.345  24.271  0.00  0.00    -0.453 OA
ATOM     53  C   UNL     1       6.661  -5.591  23.134  0.00  0.00    +0.009 A 
ENDBRANCH  44  45
ENDBRANCH  33  44
ENDBRANCH  29  30
ENDBRANCH   1  29
TORSDOF 14
ENDMDL
MODEL 4
REMARK VINA RESULT:      -7.0      2.407      5.527
REMARK  Name = 
REMARK  18 active torsions:
REMARK  status: ('A' for Active; 'I' for Inactive)
REMARK    1  A    between atoms: C_1  and  C_2
REMARK    2  A    between atoms: C_2  and  C_4
REMARK    3  A    between atoms: C_2  and  C_50
REMARK    4  A    between atoms: C_4  and  C_6
REMARK    5  A    between atoms: C_4  and  C_35
REMARK    6  A    between atoms: C_6  and  C_7
REMARK    7  A    between atoms: C_7  and  O_9
REMARK    8  A    between atoms: C_7  and  C_10
REMARK    9  A    between atoms: C_10  and  N_11
REMARK   10  A    between atoms: N_14  and  C_15
REMARK   11  A    between atoms: C_15  and  C_16
REMARK   12  A    between atoms: C_26  and  C_28
REMARK   13  A    between atoms: N_30  and  C_31
REMARK   14  A    between atoms: C_31  and  C_32
REMARK   15  A    between atoms: C_31  and  C_33
REMARK   16  A    between atoms: C_31  and  C_34
REMARK   17  A    between atoms: N_37  and  C_38
REMARK   18  A    between atoms: C_40  and  O_42
REMARK                            x       y       z     vdW  Elec       q    Type
REMARK                         _______ _______ _______ _____ _____    ______ ____
ROOT
ATOM      1  C   UNL     1       5.823  -1.006  25.864  0.00  0.00    +0.129 C 
ENDROOT
BRANCH   1   2
ATOM      2  O   UNL     1       4.832  -1.950  25.440  0.00  0.00    -0.391 OA
ATOM      3  H   UNL     1       4.137  -1.464  24.956  0.00  0.00    +0.210 HD
ENDBRANCH   1   2
BRANCH   1   4
ATOM      4  C   UNL     1       6.896  -1.724  26.696  0.00  0.00    +0.046 C 
BRANCH   4   5
ATOM      5  C   UNL     1       7.876  -2.619  25.881  0.00  0.00    +0.085 C 
BRANCH   5   6
ATOM      6  C   UNL     1       7.637  -4.082  26.268  0.00  0.00    +0.217 C 
ATOM      7  N   UNL     1       6.312  -4.442  26.275  0.00  0.00    -0.306 N 
ATOM      8  H   UNL     1       5.610  -3.752  26.047  0.00  0.00    +0.149 HD
ATOM      9  O   UNL     1       8.548  -4.882  26.467  0.00  0.00    -0.275 OA
BRANCH   7  10
ATOM     10  C   UNL     1       5.904  -5.836  26.282  0.00  0.00    +0.132 C 
ATOM     11  C   UNL     1       4.939  -6.055  25.154  0.00  0.00    -0.022 A 
ATOM     12  C   UNL     1       3.656  -6.343  25.613  0.00  0.00    -0.040 A 
ATOM     13  C   UNL     1       2.590  -6.422  24.731  0.00  0.00    +0.004 A 
ATOM     14  C   UNL     1       2.828  -6.213  23.371  0.00  0.00    +0.000 A 
ATOM     15  C   UNL     1       4.125  -5.957  22.904  0.00  0.00    +0.000 A 
ATOM     16  C   UNL     1       3.609  -6.470  27.102  0.00  0.00    +0.069 C 
ATOM     17  C   UNL     1       5.195  -5.886  23.797  0.00  0.00    +0.006 A 
ATOM     18  C   UNL     1       5.071  -6.227  27.541  0.00  0.00    +0.143 C 
BRANCH  18  19
ATOM     19  O   UNL     1       5.580  -7.414  28.168  0.00  0.00    -0.389 OA
ATOM     20  H   UNL     1       6.125  -7.139  28.927  0.00  0.00    +0.210 HD
ENDBRANCH  18  19
ENDBRANCH   7  10
ENDBRANCH   5   6
BRANCH   5  22
ATOM     21  C   UNL     1       8.181  -3.746  23.604  0.00  0.00    +0.013 C 
ATOM     22  C   UNL     1       7.790  -2.446  24.336  0.00  0.00    +0.028 C 
BRANCH  22  23
ATOM     23  C   UNL     1       8.631  -1.319  23.741  0.00  0.00    -0.044 A 
ATOM     24  C   UNL     1       9.789  -0.823  24.360  0.00  0.00    +0.004 A 
ATOM     25  C   UNL     1      10.546   0.184  23.754  0.00  0.00    +0.000 A 
ATOM     26  C   UNL     1      10.173   0.693  22.512  0.00  0.00    +0.000 A 
ATOM     27  C   UNL     1       9.046   0.190  21.870  0.00  0.00    +0.000 A 
ATOM     28  C   UNL     1       8.283  -0.809  22.479  0.00  0.00    +0.004 A 
ENDBRANCH  22  23
ENDBRANCH   5  22
ENDBRANCH   4   5
ENDBRANCH   1   4
BRANCH   1  29
ATOM     29  C   UNL     1       5.032   0.050  26.668  0.00  0.00    +0.116 C 
BRANCH  29  30
ATOM     30  N   UNL     1       4.777   1.403  26.090  0.00  0.00    -0.287 NA
ATOM     31  C   UNL     1       5.555   1.465  24.797  0.00  0.00    +0.157 C 
ATOM     32  C   UNL     1       7.101   1.616  24.973  0.00  0.00    +0.113 C 
ATOM     33  N   UNL     1       7.580   2.636  25.939  0.00  0.00    -0.295 NA
ATOM     34  C   UNL     1       6.806   2.524  27.192  0.00  0.00    +0.100 C 
ATOM     35  C   UNL     1       5.268   2.463  27.001  0.00  0.00    +0.100 C 
BRANCH  31  36
ATOM     36  C   UNL     1       5.058   2.522  23.775  0.00  0.00    +0.232 C 
ATOM     37  N   UNL     1       3.848   3.148  23.997  0.00  0.00    -0.309 N 
ATOM     38  H   UNL     1       3.432   3.024  24.916  0.00  0.00    +0.149 HD
ATOM     39  O   UNL     1       5.696   2.703  22.741  0.00  0.00    -0.274 OA
BRANCH  37  40
ATOM     40  C   UNL     1       3.300   4.135  23.041  0.00  0.00    +0.026 C 
ATOM     41  C   UNL     1       1.998   4.755  23.577  0.00  0.00    +0.031 C 
ATOM     42  C   UNL     1       2.968   3.455  21.704  0.00  0.00    +0.031 C 
ATOM     43  C   UNL     1       4.324   5.251  22.745  0.00  0.00    +0.031 C 
ENDBRANCH  37  40
ENDBRANCH  31  36
BRANCH  33  44
ATOM     44  C   UNL     1       7.505   4.020  25.425  0.00  0.00    +0.119 C 
BRANCH  44  45
ATOM     45  C   UNL     1       8.803   4.645  24.949  0.00  0.00    -0.030 A 
ATOM     46  C   UNL     1       9.719   3.956  24.142  0.00  0.00    +0.054 A 
ATOM     47  C   UNL     1      10.885   4.604  23.785  0.00  0.00    +0.167 A 
ATOM     48  C   UNL     1      11.168   5.885  24.203  0.00  0.00    +0.166 A 
ATOM     49  O   UNL     1      12.368   6.332  23.746  0.00  0.00    -0.453 OA
ATOM     50  C   UNL     1      12.817   5.179  23.006  0.00  0.00    +0.466 C 
ATOM     51  C   UNL     1      10.307   6.587  25.009  0.00  0.00    +0.050 A 
ATOM     52  O   UNL     1      11.877   4.085  23.009  0.00  0.00    -0.453 OA
ATOM     53  C   UNL     1       9.128   5.949  25.398  0.00  0.00    +0.009 A 
ENDBRANCH  44  45
ENDBRANCH  33  44
ENDBRANCH  29  30
ENDBRANCH   1  29
TORSDOF 14
ENDMDL
MODEL 5
REMARK VINA RESULT:      -6.9      1.338      2.239
REMARK  Name = 
REMARK  18 active torsions:
REMARK  status: ('A' for Active; 'I' for Inactive)
REMARK    1  A    between atoms: C_1  and  C_2
REMARK    2  A    between atoms: C_2  and  C_4
REMARK    3  A    between atoms: C_2  and  C_50
REMARK    4  A    between atoms: C_4  and  C_6
REMARK    5  A    between atoms: C_4  and  C_35
REMARK    6  A    between atoms: C_6  and  C_7
REMARK    7  A    between atoms: C_7  and  O_9
REMARK    8  A    between atoms: C_7  and  C_10
REMARK    9  A    between atoms: C_10  and  N_11
REMARK   10  A    between atoms: N_14  and  C_15
REMARK   11  A    between atoms: C_15  and  C_16
REMARK   12  A    between atoms: C_26  and  C_28
REMARK   13  A    between atoms: N_30  and  C_31
REMARK   14  A    between atoms: C_31  and  C_32
REMARK   15  A    between atoms: C_31  and  C_33
REMARK   16  A    between atoms: C_31  and  C_34
REMARK   17  A    between atoms: N_37  and  C_38
REMARK   18  A    between atoms: C_40  and  O_42
REMARK                            x       y       z     vdW  Elec       q    Type
REMARK                         _______ _______ _______ _____ _____    ______ ____
ROOT
ATOM      1  C   UNL     1       6.022  -4.383  21.643  0.00  0.00    +0.129 C 
ENDROOT
BRANCH   1   2
ATOM      2  O   UNL     1       5.713  -4.182  20.258  0.00  0.00    -0.391 OA
ATOM      3  H   UNL     1       5.791  -3.228  20.065  0.00  0.00    +0.210 HD
ENDBRANCH   1   2
BRANCH   1   4
ATOM      4  C   UNL     1       4.751  -4.210  22.486  0.00  0.00    +0.046 C 
BRANCH   4   5
ATOM      5  C   UNL     1       4.013  -5.533  22.850  0.00  0.00    +0.085 C 
BRANCH   5   6
ATOM      6  C   UNL     1       4.851  -6.289  23.886  0.00  0.00    +0.217 C 
ATOM      7  N   UNL     1       5.690  -5.483  24.614  0.00  0.00    -0.306 N 
ATOM      8  H   UNL     1       5.711  -4.490  24.424  0.00  0.00    +0.149 HD
ATOM      9  O   UNL     1       4.720  -7.491  24.108  0.00  0.00    -0.275 OA
BRANCH   7  10
ATOM     10  C   UNL     1       6.303  -5.941  25.847  0.00  0.00    +0.132 C 
ATOM     11  C   UNL     1       5.348  -5.690  26.977  0.00  0.00    -0.022 A 
ATOM     12  C   UNL     1       5.821  -4.718  27.855  0.00  0.00    -0.040 A 
ATOM     13  C   UNL     1       5.017  -4.232  28.873  0.00  0.00    +0.004 A 
ATOM     14  C   UNL     1       3.723  -4.740  29.005  0.00  0.00    +0.000 A 
ATOM     15  C   UNL     1       3.258  -5.743  28.143  0.00  0.00    +0.000 A 
ATOM     16  C   UNL     1       7.203  -4.269  27.501  0.00  0.00    +0.069 C 
ATOM     17  C   UNL     1       4.076  -6.232  27.125  0.00  0.00    +0.006 A 
ATOM     18  C   UNL     1       7.559  -5.111  26.255  0.00  0.00    +0.143 C 
BRANCH  18  19
ATOM     19  O   UNL     1       8.679  -5.957  26.560  0.00  0.00    -0.389 OA
ATOM     20  H   UNL     1       9.475  -5.396  26.592  0.00  0.00    +0.210 HD
ENDBRANCH  18  19
ENDBRANCH   7  10
ENDBRANCH   5   6
BRANCH   5  22
ATOM     21  C   UNL     1       2.512  -4.479  24.633  0.00  0.00    +0.013 C 
ATOM     22  C   UNL     1       2.554  -5.350  23.361  0.00  0.00    +0.028 C 
BRANCH  22  23
ATOM     23  C   UNL     1       1.784  -6.634  23.663  0.00  0.00    -0.044 A 
ATOM     24  C   UNL     1       1.536  -7.620  22.695  0.00  0.00    +0.004 A 
ATOM     25  C   UNL     1       0.860  -8.796  23.033  0.00  0.00    +0.000 A 
ATOM     26  C   UNL     1       0.444  -9.016  24.344  0.00  0.00    +0.000 A 
ATOM     27  C   UNL     1       0.710  -8.062  25.322  0.00  0.00    +0.000 A 
ATOM     28  C   UNL     1       1.376  -6.882  24.984  0.00  0.00    +0.004 A 
ENDBRANCH  22  23
ENDBRANCH   5  22
ENDBRANCH   4   5
ENDBRANCH   1   4
BRANCH   1  29
ATOM     29  C   UNL     1       7.108  -3.328  21.953  0.00  0.00    +0.116 C 
BRANCH  29  30
ATOM     30  N   UNL     1       7.238  -2.760  23.328  0.00  0.00    -0.287 NA
ATOM     31  C   UNL     1       6.541  -1.421  23.301  0.00  0.00    +0.157 C 
ATOM     32  C   UNL     1       7.323  -0.294  22.550  0.00  0.00    +0.113 C 
ATOM     33  N   UNL     1       8.766  -0.144  22.861  0.00  0.00    -0.295 NA
ATOM     34  C   UNL     1       9.408  -1.474  22.856  0.00  0.00    +0.100 C 
ATOM     35  C   UNL     1       8.663  -2.557  23.678  0.00  0.00    +0.100 C 
BRANCH  31  36
ATOM     36  C   UNL     1       6.085  -0.882  24.683  0.00  0.00    +0.232 C 
ATOM     37  N   UNL     1       5.894   0.476  24.839  0.00  0.00    -0.309 N 
ATOM     38  H   UNL     1       5.878   1.036  23.991  0.00  0.00    +0.149 HD
ATOM     39  O   UNL     1       6.004  -1.657  25.633  0.00  0.00    -0.274 OA
BRANCH  37  40
ATOM     40  C   UNL     1       5.497   1.057  26.141  0.00  0.00    +0.026 C 
ATOM     41  C   UNL     1       5.096   2.534  25.985  0.00  0.00    +0.031 C 
ATOM     42  C   UNL     1       6.672   1.003  27.129  0.00  0.00    +0.031 C 
ATOM     43  C   UNL     1       4.332   0.266  26.772  0.00  0.00    +0.031 C 
ENDBRANCH  37  40
ENDBRANCH  31  36
BRANCH  33  44
ATOM     44  C   UNL     1       9.027   0.535  24.148  0.00  0.00    +0.119 C 
BRANCH  44  45
ATOM     45  C   UNL     1       9.422   1.998  24.082  0.00  0.00    -0.030 A 
ATOM     46  C   UNL     1      10.697   2.417  23.676  0.00  0.00    +0.054 A 
ATOM     47  C   UNL     1      10.966   3.772  23.678  0.00  0.00    +0.167 A 
ATOM     48  C   UNL     1      10.032   4.703  24.070  0.00  0.00    +0.166 A 
ATOM     49  O   UNL     1      10.502   5.977  24.003  0.00  0.00    -0.453 OA
ATOM     50  C   UNL     1      11.847   5.741  23.541  0.00  0.00    +0.466 C 
ATOM     51  C   UNL     1       8.779   4.335  24.492  0.00  0.00    +0.050 A 
ATOM     52  O   UNL     1      12.146   4.348  23.313  0.00  0.00    -0.453 OA
ATOM     53  C   UNL     1       8.486   2.970  24.516  0.00  0.00    +0.009 A 
ENDBRANCH  44  45
ENDBRANCH  33  44
ENDBRANCH  29  30
ENDBRANCH   1  29
TORSDOF 14
ENDMDL
MODEL 6
REMARK VINA RESULT:      -6.9      2.413      9.114
REMARK  Name = 
REMARK  18 active torsions:
REMARK  status: ('A' for Active; 'I' for Inactive)
REMARK    1  A    between atoms: C_1  and  C_2
REMARK    2  A    between atoms: C_2  and  C_4
REMARK    3  A    between atoms: C_2  and  C_50
REMARK    4  A    between atoms: C_4  and  C_6
REMARK    5  A    between atoms: C_4  and  C_35
REMARK    6  A    between atoms: C_6  and  C_7
REMARK    7  A    between atoms: C_7  and  O_9
REMARK    8  A    between atoms: C_7  and  C_10
REMARK    9  A    between atoms: C_10  and  N_11
REMARK   10  A    between atoms: N_14  and  C_15
REMARK   11  A    between atoms: C_15  and  C_16
REMARK   12  A    between atoms: C_26  and  C_28
REMARK   13  A    between atoms: N_30  and  C_31
REMARK   14  A    between atoms: C_31  and  C_32
REMARK   15  A    between atoms: C_31  and  C_33
REMARK   16  A    between atoms: C_31  and  C_34
REMARK   17  A    between atoms: N_37  and  C_38
REMARK   18  A    between atoms: C_40  and  O_42
REMARK                            x       y       z     vdW  Elec       q    Type
REMARK                         _______ _______ _______ _____ _____    ______ ____
ROOT
ATOM      1  C   UNL     1       9.728  -0.115  24.732  0.00  0.00    +0.129 C 
ENDROOT
BRANCH   1   2
ATOM      2  O   UNL     1      10.949   0.348  25.321  0.00  0.00    -0.391 OA
ATOM      3  H   UNL     1      11.611   0.446  24.609  0.00  0.00    +0.210 HD
ENDBRANCH   1   2
BRANCH   1   4
ATOM      4  C   UNL     1       8.631   0.944  24.918  0.00  0.00    +0.046 C 
BRANCH   4   5
ATOM      5  C   UNL     1       7.600   1.041  23.755  0.00  0.00    +0.085 C 
BRANCH   5   6
ATOM      6  C   UNL     1       6.222   1.348  24.348  0.00  0.00    +0.217 C 
ATOM      7  N   UNL     1       5.920   0.600  25.460  0.00  0.00    -0.306 N 
ATOM      8  H   UNL     1       6.587  -0.080  25.796  0.00  0.00    +0.149 HD
ATOM      9  O   UNL     1       5.491   2.241  23.924  0.00  0.00    -0.275 OA
BRANCH   7  10
ATOM     10  C   UNL     1       4.834   0.968  26.351  0.00  0.00    +0.132 C 
ATOM     11  C   UNL     1       5.419   1.595  27.582  0.00  0.00    -0.022 A 
ATOM     12  C   UNL     1       5.224   0.805  28.712  0.00  0.00    -0.040 A 
ATOM     13  C   UNL     1       5.826   1.132  29.917  0.00  0.00    +0.004 A 
ATOM     14  C   UNL     1       6.629   2.273  29.977  0.00  0.00    +0.000 A 
ATOM     15  C   UNL     1       6.798   3.087  28.849  0.00  0.00    +0.000 A 
ATOM     16  C   UNL     1       4.385  -0.397  28.418  0.00  0.00    +0.069 C 
ATOM     17  C   UNL     1       6.183   2.756  27.641  0.00  0.00    +0.006 A 
ATOM     18  C   UNL     1       4.056  -0.261  26.914  0.00  0.00    +0.143 C 
BRANCH  18  19
ATOM     19  O   UNL     1       2.637  -0.112  26.751  0.00  0.00    -0.389 OA
ATOM     20  H   UNL     1       2.221  -0.960  26.986  0.00  0.00    +0.210 HD
ENDBRANCH  18  19
ENDBRANCH   7  10
ENDBRANCH   5   6
BRANCH   5  22
ATOM     21  C   UNL     1       8.530   1.385  21.396  0.00  0.00    +0.013 C 
ATOM     22  C   UNL     1       7.957   2.078  22.649  0.00  0.00    +0.028 C 
BRANCH  22  23
ATOM     23  C   UNL     1       8.941   3.174  23.052  0.00  0.00    -0.044 A 
ATOM     24  C   UNL     1       8.536   4.384  23.637  0.00  0.00    +0.004 A 
ATOM     25  C   UNL     1       9.481   5.340  24.024  0.00  0.00    +0.000 A 
ATOM     26  C   UNL     1      10.841   5.092  23.854  0.00  0.00    +0.000 A 
ATOM     27  C   UNL     1      11.260   3.885  23.305  0.00  0.00    +0.000 A 
ATOM     28  C   UNL     1      10.318   2.933  22.909  0.00  0.00    +0.004 A 
ENDBRANCH  22  23
ENDBRANCH   5  22
ENDBRANCH   4   5
ENDBRANCH   1   4
BRANCH   1  29
ATOM     29  C   UNL     1       9.425  -1.443  25.462  0.00  0.00    +0.116 C 
BRANCH  29  30
ATOM     30  N   UNL     1       8.793  -2.580  24.730  0.00  0.00    -0.287 NA
ATOM     31  C   UNL     1       7.322  -2.537  25.065  0.00  0.00    +0.157 C 
ATOM     32  C   UNL     1       6.968  -3.015  26.512  0.00  0.00    +0.113 C 
ATOM     33  N   UNL     1       7.591  -4.278  26.981  0.00  0.00    -0.295 NA
ATOM     34  C   UNL     1       9.030  -4.267  26.650  0.00  0.00    +0.100 C 
ATOM     35  C   UNL     1       9.355  -3.873  25.185  0.00  0.00    +0.100 C 
BRANCH  31  36
ATOM     36  C   UNL     1       6.389  -3.255  24.055  0.00  0.00    +0.232 C 
ATOM     37  N   UNL     1       6.942  -4.135  23.145  0.00  0.00    -0.309 N 
ATOM     38  H   UNL     1       7.907  -4.412  23.307  0.00  0.00    +0.149 HD
ATOM     39  O   UNL     1       5.199  -2.951  24.014  0.00  0.00    -0.274 OA
BRANCH  37  40
ATOM     40  C   UNL     1       6.113  -4.822  22.130  0.00  0.00    +0.026 C 
ATOM     41  C   UNL     1       4.878  -5.471  22.778  0.00  0.00    +0.031 C 
ATOM     42  C   UNL     1       6.919  -5.941  21.453  0.00  0.00    +0.031 C 
ATOM     43  C   UNL     1       5.666  -3.844  21.023  0.00  0.00    +0.031 C 
ENDBRANCH  37  40
ENDBRANCH  31  36
BRANCH  33  44
ATOM     44  C   UNL     1       6.957  -5.493  26.426  0.00  0.00    +0.119 C 
BRANCH  44  45
ATOM     45  C   UNL     1       5.654  -5.937  27.062  0.00  0.00    -0.030 A 
ATOM     46  C   UNL     1       5.577  -6.385  28.388  0.00  0.00    +0.054 A 
ATOM     47  C   UNL     1       4.346  -6.794  28.865  0.00  0.00    +0.167 A 
ATOM     48  C   UNL     1       3.216  -6.781  28.080  0.00  0.00    +0.166 A 
ATOM     49  O   UNL     1       2.115  -7.228  28.740  0.00  0.00    -0.453 OA
ATOM     50  C   UNL     1       2.685  -7.543  30.026  0.00  0.00    +0.466 C 
ATOM     51  C   UNL     1       3.251  -6.368  26.771  0.00  0.00    +0.050 A 
ATOM     52  O   UNL     1       4.095  -7.254  30.122  0.00  0.00    -0.453 OA
ATOM     53  C   UNL     1       4.486  -5.964  26.260  0.00  0.00    +0.009 A 
ENDBRANCH  44  45
ENDBRANCH  33  44
ENDBRANCH  29  30
ENDBRANCH   1  29
TORSDOF 14
ENDMDL
MODEL 7
REMARK VINA RESULT:      -6.9      2.141      5.065
REMARK  Name = 
REMARK  18 active torsions:
REMARK  status: ('A' for Active; 'I' for Inactive)
REMARK    1  A    between atoms: C_1  and  C_2
REMARK    2  A    between atoms: C_2  and  C_4
REMARK    3  A    between atoms: C_2  and  C_50
REMARK    4  A    between atoms: C_4  and  C_6
REMARK    5  A    between atoms: C_4  and  C_35
REMARK    6  A    between atoms: C_6  and  C_7
REMARK    7  A    between atoms: C_7  and  O_9
REMARK    8  A    between atoms: C_7  and  C_10
REMARK    9  A    between atoms: C_10  and  N_11
REMARK   10  A    between atoms: N_14  and  C_15
REMARK   11  A    between atoms: C_15  and  C_16
REMARK   12  A    between atoms: C_26  and  C_28
REMARK   13  A    between atoms: N_30  and  C_31
REMARK   14  A    between atoms: C_31  and  C_32
REMARK   15  A    between atoms: C_31  and  C_33
REMARK   16  A    between atoms: C_31  and  C_34
REMARK   17  A    between atoms: N_37  and  C_38
REMARK   18  A    between atoms: C_40  and  O_42
REMARK                            x       y       z     vdW  Elec       q    Type
REMARK                         _______ _______ _______ _____ _____    ______ ____
ROOT
ATOM      1  C   UNL     1       3.370  -0.184  27.098  0.00  0.00    +0.129 C 
ENDROOT
BRANCH   1   2
ATOM      2  O   UNL     1       2.950   0.070  28.444  0.00  0.00    -0.391 OA
ATOM      3  H   UNL     1       2.066  -0.327  28.566  0.00  0.00    +0.210 HD
ENDBRANCH   1   2
BRANCH   1   4
ATOM      4  C   UNL     1       3.806  -1.651  26.963  0.00  0.00    +0.046 C 
BRANCH   4   5
ATOM      5  C   UNL     1       2.680  -2.640  26.540  0.00  0.00    +0.085 C 
BRANCH   5   6
ATOM      6  C   UNL     1       3.126  -3.376  25.273  0.00  0.00    +0.217 C 
ATOM      7  N   UNL     1       4.405  -3.069  24.877  0.00  0.00    -0.306 N 
ATOM      8  H   UNL     1       4.943  -2.402  25.413  0.00  0.00    +0.149 HD
ATOM      9  O   UNL     1       2.439  -4.227  24.713  0.00  0.00    -0.275 OA
BRANCH   7  10
ATOM     10  C   UNL     1       5.122  -3.893  23.921  0.00  0.00    +0.132 C 
ATOM     11  C   UNL     1       6.347  -4.443  24.590  0.00  0.00    -0.022 A 
ATOM     12  C   UNL     1       7.518  -3.919  24.047  0.00  0.00    -0.040 A 
ATOM     13  C   UNL     1       8.748  -4.180  24.630  0.00  0.00    +0.004 A 
ATOM     14  C   UNL     1       8.791  -4.984  25.772  0.00  0.00    +0.000 A 
ATOM     15  C   UNL     1       7.617  -5.539  26.299  0.00  0.00    +0.000 A 
ATOM     16  C   UNL     1       7.245  -3.040  22.869  0.00  0.00    +0.069 C 
ATOM     17  C   UNL     1       6.384  -5.278  25.702  0.00  0.00    +0.006 A 
ATOM     18  C   UNL     1       5.706  -3.081  22.725  0.00  0.00    +0.143 C 
BRANCH  18  19
ATOM     19  O   UNL     1       5.365  -3.674  21.462  0.00  0.00    -0.389 OA
ATOM     20  H   UNL     1       5.921  -3.258  20.779  0.00  0.00    +0.210 HD
ENDBRANCH  18  19
ENDBRANCH   7  10
ENDBRANCH   5   6
BRANCH   5  22
ATOM     21  C   UNL     1       1.657  -2.944  28.866  0.00  0.00    +0.013 C 
ATOM     22  C   UNL     1       2.257  -3.659  27.639  0.00  0.00    +0.028 C 
BRANCH  22  23
ATOM     23  C   UNL     1       3.357  -4.589  28.147  0.00  0.00    -0.044 A 
ATOM     24  C   UNL     1       4.374  -4.164  29.016  0.00  0.00    +0.004 A 
ATOM     25  C   UNL     1       5.335  -5.065  29.484  0.00  0.00    +0.000 A 
ATOM     26  C   UNL     1       5.281  -6.406  29.111  0.00  0.00    +0.000 A 
ATOM     27  C   UNL     1       4.261  -6.851  28.275  0.00  0.00    +0.000 A 
ATOM     28  C   UNL     1       3.306  -5.950  27.799  0.00  0.00    +0.004 A 
ENDBRANCH  22  23
ENDBRANCH   5  22
ENDBRANCH   4   5
ENDBRANCH   1   4
BRANCH   1  29
ATOM     29  C   UNL     1       4.520   0.819  26.856  0.00  0.00    +0.116 C 
BRANCH  29  30
ATOM     30  N   UNL     1       5.192   0.889  25.525  0.00  0.00    -0.287 NA
ATOM     31  C   UNL     1       6.660   1.109  25.801  0.00  0.00    +0.157 C 
ATOM     32  C   UNL     1       7.024   2.553  26.280  0.00  0.00    +0.113 C 
ATOM     33  N   UNL     1       6.443   3.688  25.521  0.00  0.00    -0.295 NA
ATOM     34  C   UNL     1       5.005   3.438  25.292  0.00  0.00    +0.100 C 
ATOM     35  C   UNL     1       4.673   2.030  24.735  0.00  0.00    +0.100 C 
BRANCH  31  36
ATOM     36  C   UNL     1       7.621   0.702  24.653  0.00  0.00    +0.232 C 
ATOM     37  N   UNL     1       8.982   0.835  24.844  0.00  0.00    -0.309 N 
ATOM     38  H   UNL     1       9.294   1.013  25.794  0.00  0.00    +0.149 HD
ATOM     39  O   UNL     1       7.152   0.372  23.566  0.00  0.00    -0.274 OA
BRANCH  37  40
ATOM     40  C   UNL     1       9.949   0.501  23.775  0.00  0.00    +0.026 C 
ATOM     41  C   UNL     1      10.120  -1.022  23.644  0.00  0.00    +0.031 C 
ATOM     42  C   UNL     1      11.329   1.091  24.101  0.00  0.00    +0.031 C 
ATOM     43  C   UNL     1       9.507   1.093  22.420  0.00  0.00    +0.031 C 
ENDBRANCH  37  40
ENDBRANCH  31  36
BRANCH  33  44
ATOM     44  C   UNL     1       7.119   3.947  24.232  0.00  0.00    +0.119 C 
BRANCH  44  45
ATOM     45  C   UNL     1       8.441   4.688  24.290  0.00  0.00    -0.030 A 
ATOM     46  C   UNL     1       9.592   4.229  23.634  0.00  0.00    +0.054 A 
ATOM     47  C   UNL     1      10.754   4.964  23.772  0.00  0.00    +0.167 A 
ATOM     48  C   UNL     1      10.810   6.109  24.532  0.00  0.00    +0.166 A 
ATOM     49  O   UNL     1      12.047   6.673  24.540  0.00  0.00    -0.453 OA
ATOM     50  C   UNL     1      12.770   5.740  23.712  0.00  0.00    +0.466 C 
ATOM     51  C   UNL     1       9.712   6.583  25.206  0.00  0.00    +0.050 A 
ATOM     52  O   UNL     1      11.955   4.663  23.204  0.00  0.00    -0.453 OA
ATOM     53  C   UNL     1       8.528   5.851  25.096  0.00  0.00    +0.009 A 
ENDBRANCH  44  45
ENDBRANCH  33  44
ENDBRANCH  29  30
ENDBRANCH   1  29
TORSDOF 14
ENDMDL
MODEL 8
REMARK VINA RESULT:      -6.9      2.454      8.178
REMARK  Name = 
REMARK  18 active torsions:
REMARK  status: ('A' for Active; 'I' for Inactive)
REMARK    1  A    between atoms: C_1  and  C_2
REMARK    2  A    between atoms: C_2  and  C_4
REMARK    3  A    between atoms: C_2  and  C_50
REMARK    4  A    between atoms: C_4  and  C_6
REMARK    5  A    between atoms: C_4  and  C_35
REMARK    6  A    between atoms: C_6  and  C_7
REMARK    7  A    between atoms: C_7  and  O_9
REMARK    8  A    between atoms: C_7  and  C_10
REMARK    9  A    between atoms: C_10  and  N_11
REMARK   10  A    between atoms: N_14  and  C_15
REMARK   11  A    between atoms: C_15  and  C_16
REMARK   12  A    between atoms: C_26  and  C_28
REMARK   13  A    between atoms: N_30  and  C_31
REMARK   14  A    between atoms: C_31  and  C_32
REMARK   15  A    between atoms: C_31  and  C_33
REMARK   16  A    between atoms: C_31  and  C_34
REMARK   17  A    between atoms: N_37  and  C_38
REMARK   18  A    between atoms: C_40  and  O_42
REMARK                            x       y       z     vdW  Elec       q    Type
REMARK                         _______ _______ _______ _____ _____    ______ ____
ROOT
ATOM      1  C   UNL     1       8.640  -0.149  25.858  0.00  0.00    +0.129 C 
ENDROOT
BRANCH   1   2
ATOM      2  O   UNL     1       9.017  -0.750  27.103  0.00  0.00    -0.391 OA
ATOM      3  H   UNL     1       8.717  -1.680  27.094  0.00  0.00    +0.210 HD
ENDBRANCH   1   2
BRANCH   1   4
ATOM      4  C   UNL     1       9.891   0.384  25.144  0.00  0.00    +0.046 C 
BRANCH   4   5
ATOM      5  C   UNL     1       9.975   0.056  23.623  0.00  0.00    +0.085 C 
BRANCH   5   6
ATOM      6  C   UNL     1      10.170  -1.455  23.460  0.00  0.00    +0.217 C 
ATOM      7  N   UNL     1       9.385  -2.207  24.299  0.00  0.00    -0.306 N 
ATOM      8  H   UNL     1       8.765  -1.742  24.948  0.00  0.00    +0.149 HD
ATOM      9  O   UNL     1      10.894  -1.949  22.599  0.00  0.00    -0.275 OA
BRANCH   7  10
ATOM     10  C   UNL     1       9.174  -3.625  24.072  0.00  0.00    +0.132 C 
ATOM     11  C   UNL     1       7.772  -3.825  23.574  0.00  0.00    -0.022 A 
ATOM     12  C   UNL     1       6.984  -4.509  24.496  0.00  0.00    -0.040 A 
ATOM     13  C   UNL     1       5.621  -4.654  24.292  0.00  0.00    +0.004 A 
ATOM     14  C   UNL     1       5.053  -4.104  23.141  0.00  0.00    +0.000 A 
ATOM     15  C   UNL     1       5.852  -3.446  22.195  0.00  0.00    +0.000 A 
ATOM     16  C   UNL     1       7.773  -4.962  25.683  0.00  0.00    +0.069 C 
ATOM     17  C   UNL     1       7.225  -3.310  22.404  0.00  0.00    +0.006 A 
ATOM     18  C   UNL     1       9.208  -4.470  25.382  0.00  0.00    +0.143 C 
BRANCH  18  19
ATOM     19  O   UNL     1      10.081  -5.604  25.262  0.00  0.00    -0.389 OA
ATOM     20  H   UNL     1       9.595  -6.388  25.573  0.00  0.00    +0.210 HD
ENDBRANCH  18  19
ENDBRANCH   7  10
ENDBRANCH   5   6
BRANCH   5  22
ATOM     21  C   UNL     1       8.948   0.214  21.285  0.00  0.00    +0.013 C 
ATOM     22  C   UNL     1       8.758   0.540  22.781  0.00  0.00    +0.028 C 
BRANCH  22  23
ATOM     23  C   UNL     1       8.420   2.025  22.884  0.00  0.00    -0.044 A 
ATOM     24  C   UNL     1       9.277   2.962  23.483  0.00  0.00    +0.004 A 
ATOM     25  C   UNL     1       8.938   4.318  23.517  0.00  0.00    +0.000 A 
ATOM     26  C   UNL     1       7.754   4.762  22.933  0.00  0.00    +0.000 A 
ATOM     27  C   UNL     1       6.909   3.850  22.307  0.00  0.00    +0.000 A 
ATOM     28  C   UNL     1       7.241   2.494  22.281  0.00  0.00    +0.004 A 
ENDBRANCH  22  23
ENDBRANCH   5  22
ENDBRANCH   4   5
ENDBRANCH   1   4
BRANCH   1  29
ATOM     29  C   UNL     1       7.641   0.962  26.252  0.00  0.00    +0.116 C 
BRANCH  29  30
ATOM     30  N   UNL     1       6.239   0.931  25.741  0.00  0.00    -0.287 NA
ATOM     31  C   UNL     1       5.347   1.187  26.932  0.00  0.00    +0.157 C 
ATOM     32  C   UNL     1       5.221  -0.016  27.923  0.00  0.00    +0.113 C 
ATOM     33  N   UNL     1       4.965  -1.356  27.337  0.00  0.00    -0.295 NA
ATOM     34  C   UNL     1       5.872  -1.569  26.191  0.00  0.00    +0.100 C 
ATOM     35  C   UNL     1       5.917  -0.399  25.174  0.00  0.00    +0.100 C 
BRANCH  31  36
ATOM     36  C   UNL     1       3.927   1.715  26.597  0.00  0.00    +0.232 C 
ATOM     37  N   UNL     1       3.022   1.893  27.625  0.00  0.00    -0.309 N 
ATOM     38  H   UNL     1       3.391   1.849  28.571  0.00  0.00    +0.149 HD
ATOM     39  O   UNL     1       3.603   1.864  25.422  0.00  0.00    -0.274 OA
BRANCH  37  40
ATOM     40  C   UNL     1       1.640   2.356  27.368  0.00  0.00    +0.026 C 
ATOM     41  C   UNL     1       1.641   3.655  26.544  0.00  0.00    +0.031 C 
ATOM     42  C   UNL     1       0.923   2.653  28.694  0.00  0.00    +0.031 C 
ATOM     43  C   UNL     1       0.818   1.274  26.635  0.00  0.00    +0.031 C 
ENDBRANCH  37  40
ENDBRANCH  31  36
BRANCH  33  44
ATOM     44  C   UNL     1       3.564  -1.559  26.914  0.00  0.00    +0.119 C 
BRANCH  44  45
ATOM     45  C   UNL     1       3.151  -2.979  26.574  0.00  0.00    -0.030 A 
ATOM     46  C   UNL     1       2.316  -3.281  25.489  0.00  0.00    +0.054 A 
ATOM     47  C   UNL     1       1.976  -4.603  25.280  0.00  0.00    +0.167 A 
ATOM     48  C   UNL     1       2.421  -5.612  26.104  0.00  0.00    +0.166 A 
ATOM     49  O   UNL     1       1.965  -6.836  25.726  0.00  0.00    -0.453 OA
ATOM     50  C   UNL     1       1.166  -6.481  24.580  0.00  0.00    +0.466 C 
ATOM     51  C   UNL     1       3.224  -5.358  27.188  0.00  0.00    +0.050 A 
ATOM     52  O   UNL     1       1.181  -5.070  24.278  0.00  0.00    -0.453 OA
ATOM     53  C   UNL     1       3.570  -4.027  27.430  0.00  0.00    +0.009 A 
ENDBRANCH  44  45
ENDBRANCH  33  44
ENDBRANCH  29  30
ENDBRANCH   1  29
TORSDOF 14
ENDMDL
MODEL 9
REMARK VINA RESULT:      -6.8      3.150      5.770
REMARK  Name = 
REMARK  18 active torsions:
REMARK  status: ('A' for Active; 'I' for Inactive)
REMARK    1  A    between atoms: C_1  and  C_2
REMARK    2  A    between atoms: C_2  and  C_4
REMARK    3  A    between atoms: C_2  and  C_50
REMARK    4  A    between atoms: C_4  and  C_6
REMARK    5  A    between atoms: C_4  and  C_35
REMARK    6  A    between atoms: C_6  and  C_7
REMARK    7  A    between atoms: C_7  and  O_9
REMARK    8  A    between atoms: C_7  and  C_10
REMARK    9  A    between atoms: C_10  and  N_11
REMARK   10  A    between atoms: N_14  and  C_15
REMARK   11  A    between atoms: C_15  and  C_16
REMARK   12  A    between atoms: C_26  and  C_28
REMARK   13  A    between atoms: N_30  and  C_31
REMARK   14  A    between atoms: C_31  and  C_32
REMARK   15  A    between atoms: C_31  and  C_33
REMARK   16  A    between atoms: C_31  and  C_34
REMARK   17  A    between atoms: N_37  and  C_38
REMARK   18  A    between atoms: C_40  and  O_42
REMARK                            x       y       z     vdW  Elec       q    Type
REMARK                         _______ _______ _______ _____ _____    ______ ____
ROOT
ATOM      1  C   UNL     1       8.251  -0.184  26.606  0.00  0.00    +0.129 C 
ENDROOT
BRANCH   1   2
ATOM      2  O   UNL     1       9.328  -0.510  27.494  0.00  0.00    -0.391 OA
ATOM      3  H   UNL     1       9.994   0.202  27.437  0.00  0.00    +0.210 HD
ENDBRANCH   1   2
BRANCH   1   4
ATOM      4  C   UNL     1       7.166  -1.267  26.692  0.00  0.00    +0.046 C 
BRANCH   4   5
ATOM      5  C   UNL     1       7.369  -2.484  25.741  0.00  0.00    +0.085 C 
BRANCH   5   6
ATOM      6  C   UNL     1       7.498  -3.752  26.591  0.00  0.00    +0.217 C 
ATOM      7  N   UNL     1       6.400  -4.005  27.375  0.00  0.00    -0.306 N 
ATOM      8  H   UNL     1       5.617  -3.365  27.354  0.00  0.00    +0.149 HD
ATOM      9  O   UNL     1       8.455  -4.519  26.512  0.00  0.00    -0.275 OA
BRANCH   7  10
ATOM     10  C   UNL     1       6.184  -5.305  27.984  0.00  0.00    +0.132 C 
ATOM     11  C   UNL     1       5.173  -6.053  27.165  0.00  0.00    -0.022 A 
ATOM     12  C   UNL     1       3.980  -6.244  27.859  0.00  0.00    -0.040 A 
ATOM     13  C   UNL     1       2.868  -6.773  27.222  0.00  0.00    +0.004 A 
ATOM     14  C   UNL     1       2.969  -7.115  25.871  0.00  0.00    +0.000 A 
ATOM     15  C   UNL     1       4.179  -6.955  25.182  0.00  0.00    +0.000 A 
ATOM     16  C   UNL     1       4.067  -5.757  29.269  0.00  0.00    +0.069 C 
ATOM     17  C   UNL     1       5.296  -6.428  25.832  0.00  0.00    +0.006 A 
ATOM     18  C   UNL     1       5.513  -5.224  29.389  0.00  0.00    +0.143 C 
BRANCH  18  19
ATOM     19  O   UNL     1       6.225  -6.001  30.364  0.00  0.00    -0.389 OA
ATOM     20  H   UNL     1       5.951  -5.693  31.247  0.00  0.00    +0.210 HD
ENDBRANCH  18  19
ENDBRANCH   7  10
ENDBRANCH   5   6
BRANCH   5  22
ATOM     21  C   UNL     1       4.868  -2.804  25.309  0.00  0.00    +0.013 C 
ATOM     22  C   UNL     1       6.260  -2.664  24.662  0.00  0.00    +0.028 C 
BRANCH  22  23
ATOM     23  C   UNL     1       6.440  -3.843  23.708  0.00  0.00    -0.044 A 
ATOM     24  C   UNL     1       7.655  -4.530  23.565  0.00  0.00    +0.004 A 
ATOM     25  C   UNL     1       7.757  -5.629  22.706  0.00  0.00    +0.000 A 
ATOM     26  C   UNL     1       6.642  -6.071  21.997  0.00  0.00    +0.000 A 
ATOM     27  C   UNL     1       5.422  -5.421  22.151  0.00  0.00    +0.000 A 
ATOM     28  C   UNL     1       5.322  -4.317  23.001  0.00  0.00    +0.004 A 
ENDBRANCH  22  23
ENDBRANCH   5  22
ENDBRANCH   4   5
ENDBRANCH   1   4
BRANCH   1  29
ATOM     29  C   UNL     1       8.912  -0.091  25.213  0.00  0.00    +0.116 C 
BRANCH  29  30
ATOM     30  N   UNL     1       9.076   1.233  24.542  0.00  0.00    -0.287 NA
ATOM     31  C   UNL     1       7.998   2.129  25.103  0.00  0.00    +0.157 C 
ATOM     32  C   UNL     1       6.556   1.822  24.581  0.00  0.00    +0.113 C 
ATOM     33  N   UNL     1       6.390   1.630  23.119  0.00  0.00    -0.295 NA
ATOM     34  C   UNL     1       7.451   0.733  22.619  0.00  0.00    +0.100 C 
ATOM     35  C   UNL     1       8.885   1.106  23.079  0.00  0.00    +0.100 C 
BRANCH  31  36
ATOM     36  C   UNL     1       8.267   3.652  24.974  0.00  0.00    +0.232 C 
ATOM     37  N   UNL     1       9.403   4.075  24.312  0.00  0.00    -0.309 N 
ATOM     38  H   UNL     1       9.908   3.373  23.779  0.00  0.00    +0.149 HD
ATOM     39  O   UNL     1       7.525   4.444  25.549  0.00  0.00    -0.274 OA
BRANCH  37  40
ATOM     40  C   UNL     1       9.737   5.511  24.188  0.00  0.00    +0.026 C 
ATOM     41  C   UNL     1       8.821   6.202  23.163  0.00  0.00    +0.031 C 
ATOM     42  C   UNL     1      11.184   5.681  23.700  0.00  0.00    +0.031 C 
ATOM     43  C   UNL     1       9.627   6.227  25.551  0.00  0.00    +0.031 C 
ENDBRANCH  37  40
ENDBRANCH  31  36
BRANCH  33  44
ATOM     44  C   UNL     1       6.397   2.893  22.351  0.00  0.00    +0.119 C 
BRANCH  44  45
ATOM     45  C   UNL     1       5.214   3.822  22.550  0.00  0.00    -0.030 A 
ATOM     46  C   UNL     1       3.887   3.390  22.422  0.00  0.00    +0.054 A 
ATOM     47  C   UNL     1       2.881   4.321  22.596  0.00  0.00    +0.167 A 
ATOM     48  C   UNL     1       3.148   5.642  22.877  0.00  0.00    +0.166 A 
ATOM     49  O   UNL     1       2.019   6.389  23.003  0.00  0.00    -0.453 OA
ATOM     50  C   UNL     1       1.010   5.391  22.749  0.00  0.00    +0.466 C 
ATOM     51  C   UNL     1       4.433   6.110  22.992  0.00  0.00    +0.050 A 
ATOM     52  O   UNL     1       1.545   4.072  22.509  0.00  0.00    -0.453 OA
ATOM     53  C   UNL     1       5.469   5.193  22.805  0.00  0.00    +0.009 A 
ENDBRANCH  44  45
ENDBRANCH  33  44
ENDBRANCH  29  30
ENDBRANCH   1  29
TORSDOF 14
ENDMDL
