MODEL 1
REMARK VINA RESULT:      -5.9      0.000      0.000
REMARK  Name = 
REMARK  13 active torsions:
REMARK  status: ('A' for Active; 'I' for Inactive)
REMARK    1  A    between atoms: C_1  and  O_2
REMARK    2  A    between atoms: O_2  and  C_3
REMARK    3  A    between atoms: C_3  and  C_4
REMARK    4  A    between atoms: C_4  and  C_5
REMARK    5  A    between atoms: C_8  and  O_9
REMARK    6  A    between atoms: O_9  and  C_10
REMARK    7  A    between atoms: C_10  and  C_11
REMARK    8  A    between atoms: C_11  and  O_12
REMARK    9  A    between atoms: C_11  and  C_13
REMARK   10  A    between atoms: C_13  and  N_14
REMARK   11  A    between atoms: N_14  and  C_15
REMARK   12  A    between atoms: C_15  and  C_16
REMARK   13  A    between atoms: C_15  and  C_17
REMARK                            x       y       z     vdW  Elec       q    Type
REMARK                         _______ _______ _______ _____ _____    ______ ____
ROOT
ATOM      1  O   UNL     1      10.064  -3.289  24.024  0.00  0.00    -0.489 OA
ENDROOT
BRANCH   1   5
ATOM      2  C   UNL     1       9.921   0.707  22.763  0.00  0.00    -0.045 A 
ATOM      3  C   UNL     1       9.943  -0.352  21.848  0.00  0.00    +0.007 A 
ATOM      4  C   UNL     1       9.971  -1.680  22.300  0.00  0.00    +0.046 A 
ATOM      5  C   UNL     1       9.980  -1.962  23.666  0.00  0.00    +0.121 A 
ATOM      6  C   UNL     1       9.906  -0.903  24.571  0.00  0.00    +0.046 A 
ATOM      7  C   UNL     1       9.872   0.415  24.126  0.00  0.00    +0.007 A 
BRANCH   2   8
ATOM      8  C   UNL     1       9.995   2.150  22.322  0.00  0.00    +0.063 C 
BRANCH   8   9
ATOM      9  C   UNL     1      10.671   3.015  23.392  0.00  0.00    +0.164 C 
BRANCH   9  11
ATOM     10  C   UNL     1      10.223   5.272  23.850  0.00  0.00    +0.193 C 
ATOM     11  O   UNL     1       9.729   3.940  23.936  0.00  0.00    -0.383 OA
ENDBRANCH   9  11
ENDBRANCH   8   9
ENDBRANCH   2   8
ENDBRANCH   1   5
BRANCH   1  12
ATOM     12  C   UNL     1       8.796  -3.922  24.264  0.00  0.00    +0.261 C 
BRANCH  12  13
ATOM     13  C   UNL     1       8.927  -5.083  25.258  0.00  0.00    +0.166 C 
BRANCH  13  14
ATOM     14  O   UNL     1      10.266  -5.591  25.233  0.00  0.00    -0.387 OA
ATOM     15  H   UNL     1      10.429  -5.972  26.118  0.00  0.00    +0.210 HD
ENDBRANCH  13  14
BRANCH  13  16
ATOM     16  C   UNL     1       8.554  -4.696  26.701  0.00  0.00    +0.115 C 
BRANCH  16  17
ATOM     17  N   UNL     1       7.766  -5.742  27.364  0.00  0.00    -0.311 NA
ATOM     18  H   UNL     1       8.172  -5.938  28.280  0.00  0.00    +0.122 HD
BRANCH  17  19
ATOM     19  C   UNL     1       6.349  -5.397  27.537  0.00  0.00    +0.048 C 
ATOM     20  C   UNL     1       5.545  -6.216  26.522  0.00  0.00    +0.023 C 
ATOM     21  C   UNL     1       6.065  -3.909  27.326  0.00  0.00    +0.023 C 
ENDBRANCH  17  19
ENDBRANCH  16  17
ENDBRANCH  13  16
ENDBRANCH  12  13
ENDBRANCH   1  12
TORSDOF 10
ENDMDL
MODEL 2
REMARK VINA RESULT:      -5.7      1.990      2.323
REMARK  Name = 
REMARK  13 active torsions:
REMARK  status: ('A' for Active; 'I' for Inactive)
REMARK    1  A    between atoms: C_1  and  O_2
REMARK    2  A    between atoms: O_2  and  C_3
REMARK    3  A    between atoms: C_3  and  C_4
REMARK    4  A    between atoms: C_4  and  C_5
REMARK    5  A    between atoms: C_8  and  O_9
REMARK    6  A    between atoms: O_9  and  C_10
REMARK    7  A    between atoms: C_10  and  C_11
REMARK    8  A    between atoms: C_11  and  O_12
REMARK    9  A    between atoms: C_11  and  C_13
REMARK   10  A    between atoms: C_13  and  N_14
REMARK   11  A    between atoms: N_14  and  C_15
REMARK   12  A    between atoms: C_15  and  C_16
REMARK   13  A    between atoms: C_15  and  C_17
REMARK                            x       y       z     vdW  Elec       q    Type
REMARK                         _______ _______ _______ _____ _____    ______ ____
ROOT
ATOM      1  O   UNL     1       9.542  -3.629  23.992  0.00  0.00    -0.489 OA
ENDROOT
BRANCH   1   5
ATOM      2  C   UNL     1       9.741   0.325  22.612  0.00  0.00    -0.045 A 
ATOM      3  C   UNL     1       9.424  -0.737  21.756  0.00  0.00    +0.007 A 
ATOM      4  C   UNL     1       9.345  -2.048  22.252  0.00  0.00    +0.046 A 
ATOM      5  C   UNL     1       9.584  -2.310  23.601  0.00  0.00    +0.121 A 
ATOM      6  C   UNL     1       9.849  -1.240  24.457  0.00  0.00    +0.046 A 
ATOM      7  C   UNL     1       9.921   0.062  23.970  0.00  0.00    +0.007 A 
BRANCH   2   8
ATOM      8  C   UNL     1       9.937   1.734  22.103  0.00  0.00    +0.063 C 
BRANCH   8   9
ATOM      9  C   UNL     1      10.360   2.672  23.239  0.00  0.00    +0.164 C 
BRANCH   9  11
ATOM     10  C   UNL     1       8.775   3.589  24.705  0.00  0.00    +0.193 C 
ATOM     11  O   UNL     1       9.377   3.692  23.420  0.00  0.00    -0.383 OA
ENDBRANCH   9  11
ENDBRANCH   8   9
ENDBRANCH   2   8
ENDBRANCH   1   5
BRANCH   1  12
ATOM     12  C   UNL     1       9.067  -3.837  25.333  0.00  0.00    +0.261 C 
BRANCH  12  13
ATOM     13  C   UNL     1       8.236  -5.122  25.442  0.00  0.00    +0.166 C 
BRANCH  13  14
ATOM     14  O   UNL     1       8.332  -5.647  26.770  0.00  0.00    -0.387 OA
ATOM     15  H   UNL     1       7.728  -5.110  27.319  0.00  0.00    +0.210 HD
ENDBRANCH  13  14
BRANCH  13  16
ATOM     16  C   UNL     1       6.753  -4.923  25.076  0.00  0.00    +0.115 C 
BRANCH  16  17
ATOM     17  N   UNL     1       6.579  -4.565  23.663  0.00  0.00    -0.311 NA
ATOM     18  H   UNL     1       6.258  -5.385  23.147  0.00  0.00    +0.122 HD
BRANCH  17  19
ATOM     19  C   UNL     1       5.633  -3.463  23.442  0.00  0.00    +0.048 C 
ATOM     20  C   UNL     1       5.720  -3.066  21.965  0.00  0.00    +0.023 C 
ATOM     21  C   UNL     1       5.925  -2.241  24.314  0.00  0.00    +0.023 C 
ENDBRANCH  17  19
ENDBRANCH  16  17
ENDBRANCH  13  16
ENDBRANCH  12  13
ENDBRANCH   1  12
TORSDOF 10
ENDMDL
MODEL 3
REMARK VINA RESULT:      -5.7      2.590      6.792
REMARK  Name = 
REMARK  13 active torsions:
REMARK  status: ('A' for Active; 'I' for Inactive)
REMARK    1  A    between atoms: C_1  and  O_2
REMARK    2  A    between atoms: O_2  and  C_3
REMARK    3  A    between atoms: C_3  and  C_4
REMARK    4  A    between atoms: C_4  and  C_5
REMARK    5  A    between atoms: C_8  and  O_9
REMARK    6  A    between atoms: O_9  and  C_10
REMARK    7  A    between atoms: C_10  and  C_11
REMARK    8  A    between atoms: C_11  and  O_12
REMARK    9  A    between atoms: C_11  and  C_13
REMARK   10  A    between atoms: C_13  and  N_14
REMARK   11  A    between atoms: N_14  and  C_15
REMARK   12  A    between atoms: C_15  and  C_16
REMARK   13  A    between atoms: C_15  and  C_17
REMARK                            x       y       z     vdW  Elec       q    Type
REMARK                         _______ _______ _______ _____ _____    ______ ____
ROOT
ATOM      1  O   UNL     1      10.300  -1.329  22.367  0.00  0.00    -0.489 OA
ENDROOT
BRANCH   1   5
ATOM      2  C   UNL     1       7.584  -4.014  24.098  0.00  0.00    -0.045 A 
ATOM      3  C   UNL     1       7.281  -3.319  22.921  0.00  0.00    +0.007 A 
ATOM      4  C   UNL     1       8.219  -2.441  22.355  0.00  0.00    +0.046 A 
ATOM      5  C   UNL     1       9.462  -2.249  22.957  0.00  0.00    +0.121 A 
ATOM      6  C   UNL     1       9.776  -2.984  24.100  0.00  0.00    +0.046 A 
ATOM      7  C   UNL     1       8.851  -3.860  24.661  0.00  0.00    +0.007 A 
BRANCH   2   8
ATOM      8  C   UNL     1       6.569  -4.888  24.797  0.00  0.00    +0.063 C 
BRANCH   8   9
ATOM      9  C   UNL     1       7.044  -5.257  26.207  0.00  0.00    +0.164 C 
BRANCH   9  11
ATOM     10  C   UNL     1       5.065  -6.493  25.968  0.00  0.00    +0.193 C 
ATOM     11  O   UNL     1       6.269  -6.345  26.712  0.00  0.00    -0.383 OA
ENDBRANCH   9  11
ENDBRANCH   8   9
ENDBRANCH   2   8
ENDBRANCH   1   5
BRANCH   1  12
ATOM     12  C   UNL     1       9.626  -0.213  21.764  0.00  0.00    +0.261 C 
BRANCH  12  13
ATOM     13  C   UNL     1      10.019   1.110  22.433  0.00  0.00    +0.166 C 
BRANCH  13  14
ATOM     14  O   UNL     1       9.975   2.170  21.471  0.00  0.00    -0.387 OA
ATOM     15  H   UNL     1      10.719   2.765  21.688  0.00  0.00    +0.210 HD
ENDBRANCH  13  14
BRANCH  13  16
ATOM     16  C   UNL     1       9.128   1.474  23.636  0.00  0.00    +0.115 C 
BRANCH  16  17
ATOM     17  N   UNL     1       9.423   0.644  24.809  0.00  0.00    -0.311 NA
ATOM     18  H   UNL     1      10.142   1.101  25.371  0.00  0.00    +0.122 HD
BRANCH  17  19
ATOM     19  C   UNL     1       8.254   0.378  25.657  0.00  0.00    +0.048 C 
ATOM     20  C   UNL     1       8.649  -0.705  26.666  0.00  0.00    +0.023 C 
ATOM     21  C   UNL     1       7.034  -0.090  24.863  0.00  0.00    +0.023 C 
ENDBRANCH  17  19
ENDBRANCH  16  17
ENDBRANCH  13  16
ENDBRANCH  12  13
ENDBRANCH   1  12
TORSDOF 10
ENDMDL
MODEL 4
REMARK VINA RESULT:      -5.7      1.970      2.778
REMARK  Name = 
REMARK  13 active torsions:
REMARK  status: ('A' for Active; 'I' for Inactive)
REMARK    1  A    between atoms: C_1  and  O_2
REMARK    2  A    between atoms: O_2  and  C_3
REMARK    3  A    between atoms: C_3  and  C_4
REMARK    4  A    between atoms: C_4  and  C_5
REMARK    5  A    between atoms: C_8  and  O_9
REMARK    6  A    between atoms: O_9  and  C_10
REMARK    7  A    between atoms: C_10  and  C_11
REMARK    8  A    between atoms: C_11  and  O_12
REMARK    9  A    between atoms: C_11  and  C_13
REMARK   10  A    between atoms: C_13  and  N_14
REMARK   11  A    between atoms: N_14  and  C_15
REMARK   12  A    between atoms: C_15  and  C_16
REMARK   13  A    between atoms: C_15  and  C_17
REMARK                            x       y       z     vdW  Elec       q    Type
REMARK                         _______ _______ _______ _____ _____    ______ ____
ROOT
ATOM      1  O   UNL     1       9.821  -3.252  23.853  0.00  0.00    -0.489 OA
ENDROOT
BRANCH   1   5
ATOM      2  C   UNL     1       9.547   0.817  22.879  0.00  0.00    -0.045 A 
ATOM      3  C   UNL     1       9.421   0.367  24.199  0.00  0.00    +0.007 A 
ATOM      4  C   UNL     1       9.537  -0.999  24.497  0.00  0.00    +0.046 A 
ATOM      5  C   UNL     1       9.777  -1.926  23.482  0.00  0.00    +0.121 A 
ATOM      6  C   UNL     1       9.952  -1.465  22.178  0.00  0.00    +0.046 A 
ATOM      7  C   UNL     1       9.844  -0.109  21.880  0.00  0.00    +0.007 A 
BRANCH   2   8
ATOM      8  C   UNL     1       9.327   2.263  22.500  0.00  0.00    +0.063 C 
BRANCH   8   9
ATOM      9  C   UNL     1       9.942   3.202  23.545  0.00  0.00    +0.164 C 
BRANCH   9  11
ATOM     10  C   UNL     1      11.835   4.581  23.414  0.00  0.00    +0.193 C 
ATOM     11  O   UNL     1      11.361   3.239  23.390  0.00  0.00    -0.383 OA
ENDBRANCH   9  11
ENDBRANCH   8   9
ENDBRANCH   2   8
ENDBRANCH   1   5
BRANCH   1  12
ATOM     12  C   UNL     1       9.331  -3.514  25.179  0.00  0.00    +0.261 C 
BRANCH  12  13
ATOM     13  C   UNL     1       8.801  -4.948  25.308  0.00  0.00    +0.166 C 
BRANCH  13  14
ATOM     14  O   UNL     1       8.692  -5.299  26.693  0.00  0.00    -0.387 OA
ATOM     15  H   UNL     1       8.534  -6.262  26.717  0.00  0.00    +0.210 HD
ENDBRANCH  13  14
BRANCH  13  16
ATOM     16  C   UNL     1       7.441  -5.161  24.618  0.00  0.00    +0.115 C 
BRANCH  16  17
ATOM     17  N   UNL     1       7.581  -5.320  23.166  0.00  0.00    -0.311 NA
ATOM     18  H   UNL     1       7.689  -6.311  22.946  0.00  0.00    +0.122 HD
BRANCH  17  19
ATOM     19  C   UNL     1       6.450  -4.784  22.398  0.00  0.00    +0.048 C 
ATOM     20  C   UNL     1       6.332  -5.605  21.111  0.00  0.00    +0.023 C 
ATOM     21  C   UNL     1       6.616  -3.305  22.043  0.00  0.00    +0.023 C 
ENDBRANCH  17  19
ENDBRANCH  16  17
ENDBRANCH  13  16
ENDBRANCH  12  13
ENDBRANCH   1  12
TORSDOF 10
ENDMDL
MODEL 5
REMARK VINA RESULT:      -5.5      2.869      4.819
REMARK  Name = 
REMARK  13 active torsions:
REMARK  status: ('A' for Active; 'I' for Inactive)
REMARK    1  A    between atoms: C_1  and  O_2
REMARK    2  A    between atoms: O_2  and  C_3
REMARK    3  A    between atoms: C_3  and  C_4
REMARK    4  A    between atoms: C_4  and  C_5
REMARK    5  A    between atoms: C_8  and  O_9
REMARK    6  A    between atoms: O_9  and  C_10
REMARK    7  A    between atoms: C_10  and  C_11
REMARK    8  A    between atoms: C_11  and  O_12
REMARK    9  A    between atoms: C_11  and  C_13
REMARK   10  A    between atoms: C_13  and  N_14
REMARK   11  A    between atoms: N_14  and  C_15
REMARK   12  A    between atoms: C_15  and  C_16
REMARK   13  A    between atoms: C_15  and  C_17
REMARK                            x       y       z     vdW  Elec       q    Type
REMARK                         _______ _______ _______ _____ _____    ______ ____
ROOT
ATOM      1  O   UNL     1       6.946  -6.065  26.765  0.00  0.00    -0.489 OA
ENDROOT
BRANCH   1   5
ATOM      2  C   UNL     1       9.159  -3.248  24.587  0.00  0.00    -0.045 A 
ATOM      3  C   UNL     1       7.896  -2.946  25.109  0.00  0.00    +0.007 A 
ATOM      4  C   UNL     1       7.187  -3.903  25.851  0.00  0.00    +0.046 A 
ATOM      5  C   UNL     1       7.731  -5.168  26.076  0.00  0.00    +0.121 A 
ATOM      6  C   UNL     1       9.011  -5.444  25.597  0.00  0.00    +0.046 A 
ATOM      7  C   UNL     1       9.720  -4.495  24.867  0.00  0.00    +0.007 A 
BRANCH   2   8
ATOM      8  C   UNL     1       9.911  -2.286  23.698  0.00  0.00    +0.063 C 
BRANCH   8   9
ATOM      9  C   UNL     1       9.474  -0.841  23.963  0.00  0.00    +0.164 C 
BRANCH   9  11
ATOM     10  C   UNL     1      10.811   1.049  24.346  0.00  0.00    +0.193 C 
ATOM     11  O   UNL     1      10.393  -0.211  24.858  0.00  0.00    -0.383 OA
ENDBRANCH   9  11
ENDBRANCH   8   9
ENDBRANCH   2   8
ENDBRANCH   1   5
BRANCH   1  12
ATOM     12  C   UNL     1       5.533  -5.825  26.656  0.00  0.00    +0.261 C 
BRANCH  12  13
ATOM     13  C   UNL     1       4.868  -6.808  25.685  0.00  0.00    +0.166 C 
BRANCH  13  14
ATOM     14  O   UNL     1       3.770  -7.459  26.334  0.00  0.00    -0.387 OA
ATOM     15  H   UNL     1       3.872  -8.413  26.150  0.00  0.00    +0.210 HD
ENDBRANCH  13  14
BRANCH  13  16
ATOM     16  C   UNL     1       4.373  -6.144  24.387  0.00  0.00    +0.115 C 
BRANCH  16  17
ATOM     17  N   UNL     1       5.078  -6.655  23.205  0.00  0.00    -0.311 NA
ATOM     18  H   UNL     1       4.442  -7.245  22.666  0.00  0.00    +0.122 HD
BRANCH  17  19
ATOM     19  C   UNL     1       5.609  -5.603  22.329  0.00  0.00    +0.048 C 
ATOM     20  C   UNL     1       7.136  -5.724  22.332  0.00  0.00    +0.023 C 
ATOM     21  C   UNL     1       5.210  -4.196  22.776  0.00  0.00    +0.023 C 
ENDBRANCH  17  19
ENDBRANCH  16  17
ENDBRANCH  13  16
ENDBRANCH  12  13
ENDBRANCH   1  12
TORSDOF 10
ENDMDL
MODEL 6
REMARK VINA RESULT:      -5.4      3.318      7.809
REMARK  Name = 
REMARK  13 active torsions:
REMARK  status: ('A' for Active; 'I' for Inactive)
REMARK    1  A    between atoms: C_1  and  O_2
REMARK    2  A    between atoms: O_2  and  C_3
REMARK    3  A    between atoms: C_3  and  C_4
REMARK    4  A    between atoms: C_4  and  C_5
REMARK    5  A    between atoms: C_8  and  O_9
REMARK    6  A    between atoms: O_9  and  C_10
REMARK    7  A    between atoms: C_10  and  C_11
REMARK    8  A    between atoms: C_11  and  O_12
REMARK    9  A    between atoms: C_11  and  C_13
REMARK   10  A    between atoms: C_13  and  N_14
REMARK   11  A    between atoms: N_14  and  C_15
REMARK   12  A    between atoms: C_15  and  C_16
REMARK   13  A    between atoms: C_15  and  C_17
REMARK                            x       y       z     vdW  Elec       q    Type
REMARK                         _______ _______ _______ _____ _____    ______ ____
ROOT
ATOM      1  O   UNL     1      10.155   3.496  23.141  0.00  0.00    -0.489 OA
ENDROOT
BRANCH   1   5
ATOM      2  C   UNL     1      10.185  -0.697  23.163  0.00  0.00    -0.045 A 
ATOM      3  C   UNL     1       9.971   0.030  21.986  0.00  0.00    +0.007 A 
ATOM      4  C   UNL     1       9.986   1.433  22.007  0.00  0.00    +0.046 A 
ATOM      5  C   UNL     1      10.213   2.121  23.199  0.00  0.00    +0.121 A 
ATOM      6  C   UNL     1      10.476   1.389  24.357  0.00  0.00    +0.046 A 
ATOM      7  C   UNL     1      10.468  -0.002  24.339  0.00  0.00    +0.007 A 
BRANCH   2   8
ATOM      8  C   UNL     1      10.076  -2.203  23.207  0.00  0.00    +0.063 C 
BRANCH   8   9
ATOM      9  C   UNL     1       8.949  -2.642  24.148  0.00  0.00    +0.164 C 
BRANCH   9  11
ATOM     10  C   UNL     1       8.446  -4.900  24.539  0.00  0.00    +0.193 C 
ATOM     11  O   UNL     1       9.332  -3.829  24.845  0.00  0.00    -0.383 OA
ENDBRANCH   9  11
ENDBRANCH   8   9
ENDBRANCH   2   8
ENDBRANCH   1   5
BRANCH   1  12
ATOM     12  C   UNL     1       9.317   4.098  24.142  0.00  0.00    +0.261 C 
BRANCH  12  13
ATOM     13  C   UNL     1       8.829   5.485  23.705  0.00  0.00    +0.166 C 
BRANCH  13  14
ATOM     14  O   UNL     1       9.891   6.185  23.047  0.00  0.00    -0.387 OA
ATOM     15  H   UNL     1      10.302   5.543  22.436  0.00  0.00    +0.210 HD
ENDBRANCH  13  14
BRANCH  13  16
ATOM     16  C   UNL     1       7.598   5.436  22.780  0.00  0.00    +0.115 C 
BRANCH  16  17
ATOM     17  N   UNL     1       7.520   4.173  22.037  0.00  0.00    -0.311 NA
ATOM     18  H   UNL     1       8.287   3.565  22.328  0.00  0.00    +0.122 HD
BRANCH  17  19
ATOM     19  C   UNL     1       6.251   3.456  22.218  0.00  0.00    +0.048 C 
ATOM     20  C   UNL     1       5.369   4.300  23.142  0.00  0.00    +0.023 C 
ATOM     21  C   UNL     1       6.433   2.063  22.823  0.00  0.00    +0.023 C 
ENDBRANCH  17  19
ENDBRANCH  16  17
ENDBRANCH  13  16
ENDBRANCH  12  13
ENDBRANCH   1  12
TORSDOF 10
ENDMDL
MODEL 7
REMARK VINA RESULT:      -5.3      2.850      6.962
REMARK  Name = 
REMARK  13 active torsions:
REMARK  status: ('A' for Active; 'I' for Inactive)
REMARK    1  A    between atoms: C_1  and  O_2
REMARK    2  A    between atoms: O_2  and  C_3
REMARK    3  A    between atoms: C_3  and  C_4
REMARK    4  A    between atoms: C_4  and  C_5
REMARK    5  A    between atoms: C_8  and  O_9
REMARK    6  A    between atoms: O_9  and  C_10
REMARK    7  A    between atoms: C_10  and  C_11
REMARK    8  A    between atoms: C_11  and  O_12
REMARK    9  A    between atoms: C_11  and  C_13
REMARK   10  A    between atoms: C_13  and  N_14
REMARK   11  A    between atoms: N_14  and  C_15
REMARK   12  A    between atoms: C_15  and  C_16
REMARK   13  A    between atoms: C_15  and  C_17
REMARK                            x       y       z     vdW  Elec       q    Type
REMARK                         _______ _______ _______ _____ _____    ______ ____
ROOT
ATOM      1  O   UNL     1      10.142  -0.265  22.377  0.00  0.00    -0.489 OA
ENDROOT
BRANCH   1   5
ATOM      2  C   UNL     1       8.210  -3.723  23.749  0.00  0.00    -0.045 A 
ATOM      3  C   UNL     1       9.220  -3.102  24.492  0.00  0.00    +0.007 A 
ATOM      4  C   UNL     1       9.835  -1.934  24.016  0.00  0.00    +0.046 A 
ATOM      5  C   UNL     1       9.449  -1.378  22.796  0.00  0.00    +0.121 A 
ATOM      6  C   UNL     1       8.407  -1.974  22.086  0.00  0.00    +0.046 A 
ATOM      7  C   UNL     1       7.790  -3.129  22.558  0.00  0.00    +0.007 A 
BRANCH   2   8
ATOM      8  C   UNL     1       7.594  -5.036  24.172  0.00  0.00    +0.063 C 
BRANCH   8   9
ATOM      9  C   UNL     1       7.335  -5.057  25.683  0.00  0.00    +0.164 C 
BRANCH   9  11
ATOM     10  C   UNL     1       5.337  -6.250  25.978  0.00  0.00    +0.193 C 
ATOM     11  O   UNL     1       5.934  -4.958  25.938  0.00  0.00    -0.383 OA
ENDBRANCH   9  11
ENDBRANCH   8   9
ENDBRANCH   2   8
ENDBRANCH   1   5
BRANCH   1  12
ATOM     12  C   UNL     1      10.574   0.601  23.439  0.00  0.00    +0.261 C 
BRANCH  12  13
ATOM     13  C   UNL     1      10.298   2.074  23.112  0.00  0.00    +0.166 C 
BRANCH  13  14
ATOM     14  O   UNL     1      10.222   2.246  21.692  0.00  0.00    -0.387 OA
ATOM     15  H   UNL     1       9.857   1.413  21.336  0.00  0.00    +0.210 HD
ENDBRANCH  13  14
BRANCH  13  16
ATOM     16  C   UNL     1       9.010   2.613  23.762  0.00  0.00    +0.115 C 
BRANCH  16  17
ATOM     17  N   UNL     1       8.261   1.558  24.454  0.00  0.00    -0.311 NA
ATOM     18  H   UNL     1       8.236   1.765  25.453  0.00  0.00    +0.122 HD
BRANCH  17  19
ATOM     19  C   UNL     1       6.885   1.390  23.969  0.00  0.00    +0.048 C 
ATOM     20  C   UNL     1       6.372   0.042  24.484  0.00  0.00    +0.023 C 
ATOM     21  C   UNL     1       6.782   1.422  22.443  0.00  0.00    +0.023 C 
ENDBRANCH  17  19
ENDBRANCH  16  17
ENDBRANCH  13  16
ENDBRANCH  12  13
ENDBRANCH   1  12
TORSDOF 10
ENDMDL
MODEL 8
REMARK VINA RESULT:      -5.3      3.576      8.248
REMARK  Name = 
REMARK  13 active torsions:
REMARK  status: ('A' for Active; 'I' for Inactive)
REMARK    1  A    between atoms: C_1  and  O_2
REMARK    2  A    between atoms: O_2  and  C_3
REMARK    3  A    between atoms: C_3  and  C_4
REMARK    4  A    between atoms: C_4  and  C_5
REMARK    5  A    between atoms: C_8  and  O_9
REMARK    6  A    between atoms: O_9  and  C_10
REMARK    7  A    between atoms: C_10  and  C_11
REMARK    8  A    between atoms: C_11  and  O_12
REMARK    9  A    between atoms: C_11  and  C_13
REMARK   10  A    between atoms: C_13  and  N_14
REMARK   11  A    between atoms: N_14  and  C_15
REMARK   12  A    between atoms: C_15  and  C_16
REMARK   13  A    between atoms: C_15  and  C_17
REMARK                            x       y       z     vdW  Elec       q    Type
REMARK                         _______ _______ _______ _____ _____    ______ ____
ROOT
ATOM      1  O   UNL     1      10.550  -0.425  22.944  0.00  0.00    -0.489 OA
ENDROOT
BRANCH   1   5
ATOM      2  C   UNL     1       7.898  -3.657  23.260  0.00  0.00    -0.045 A 
ATOM      3  C   UNL     1       7.793  -2.718  22.226  0.00  0.00    +0.007 A 
ATOM      4  C   UNL     1       8.708  -1.658  22.136  0.00  0.00    +0.046 A 
ATOM      5  C   UNL     1       9.731  -1.524  23.074  0.00  0.00    +0.121 A 
ATOM      6  C   UNL     1       9.860  -2.492  24.070  0.00  0.00    +0.046 A 
ATOM      7  C   UNL     1       8.959  -3.548  24.160  0.00  0.00    +0.007 A 
BRANCH   2   8
ATOM      8  C   UNL     1       6.876  -4.752  23.455  0.00  0.00    +0.063 C 
BRANCH   8   9
ATOM      9  C   UNL     1       5.540  -4.376  22.806  0.00  0.00    +0.164 C 
BRANCH   9  11
ATOM     10  C   UNL     1       6.110  -5.849  21.072  0.00  0.00    +0.193 C 
ATOM     11  O   UNL     1       5.086  -5.444  21.973  0.00  0.00    -0.383 OA
ENDBRANCH   9  11
ENDBRANCH   8   9
ENDBRANCH   2   8
ENDBRANCH   1   5
BRANCH   1  12
ATOM     12  C   UNL     1       9.930   0.707  22.311  0.00  0.00    +0.261 C 
BRANCH  12  13
ATOM     13  C   UNL     1       9.760   1.876  23.290  0.00  0.00    +0.166 C 
BRANCH  13  14
ATOM     14  O   UNL     1       9.186   1.401  24.513  0.00  0.00    -0.387 OA
ATOM     15  H   UNL     1       9.538   0.500  24.647  0.00  0.00    +0.210 HD
ENDBRANCH  13  14
BRANCH  13  16
ATOM     16  C   UNL     1      11.078   2.612  23.596  0.00  0.00    +0.115 C 
BRANCH  16  17
ATOM     17  N   UNL     1      11.203   3.856  22.829  0.00  0.00    -0.311 NA
ATOM     18  H   UNL     1      10.276   4.260  22.693  0.00  0.00    +0.122 HD
BRANCH  17  19
ATOM     19  C   UNL     1      12.070   4.859  23.462  0.00  0.00    +0.048 C 
ATOM     20  C   UNL     1      11.173   5.988  23.979  0.00  0.00    +0.023 C 
ATOM     21  C   UNL     1      13.112   5.438  22.503  0.00  0.00    +0.023 C 
ENDBRANCH  17  19
ENDBRANCH  16  17
ENDBRANCH  13  16
ENDBRANCH  12  13
ENDBRANCH   1  12
TORSDOF 10
ENDMDL
MODEL 9
REMARK VINA RESULT:      -5.3      2.447      3.245
REMARK  Name = 
REMARK  13 active torsions:
REMARK  status: ('A' for Active; 'I' for Inactive)
REMARK    1  A    between atoms: C_1  and  O_2
REMARK    2  A    between atoms: O_2  and  C_3
REMARK    3  A    between atoms: C_3  and  C_4
REMARK    4  A    between atoms: C_4  and  C_5
REMARK    5  A    between atoms: C_8  and  O_9
REMARK    6  A    between atoms: O_9  and  C_10
REMARK    7  A    between atoms: C_10  and  C_11
REMARK    8  A    between atoms: C_11  and  O_12
REMARK    9  A    between atoms: C_11  and  C_13
REMARK   10  A    between atoms: C_13  and  N_14
REMARK   11  A    between atoms: N_14  and  C_15
REMARK   12  A    between atoms: C_15  and  C_16
REMARK   13  A    between atoms: C_15  and  C_17
REMARK                            x       y       z     vdW  Elec       q    Type
REMARK                         _______ _______ _______ _____ _____    ______ ____
ROOT
ATOM      1  O   UNL     1      10.117  -1.930  22.729  0.00  0.00    -0.489 OA
ENDROOT
BRANCH   1   5
ATOM      2  C   UNL     1      10.296   2.204  23.406  0.00  0.00    -0.045 A 
ATOM      3  C   UNL     1      10.642   1.281  24.400  0.00  0.00    +0.007 A 
ATOM      4  C   UNL     1      10.591  -0.097  24.137  0.00  0.00    +0.046 A 
ATOM      5  C   UNL     1      10.193  -0.564  22.884  0.00  0.00    +0.121 A 
ATOM      6  C   UNL     1       9.900   0.363  21.884  0.00  0.00    +0.046 A 
ATOM      7  C   UNL     1       9.956   1.730  22.138  0.00  0.00    +0.007 A 
BRANCH   2   8
ATOM      8  C   UNL     1      10.238   3.689  23.676  0.00  0.00    +0.063 C 
BRANCH   8   9
ATOM      9  C   UNL     1       8.807   4.129  24.007  0.00  0.00    +0.164 C 
BRANCH   9  11
ATOM     10  C   UNL     1       8.302   6.374  23.551  0.00  0.00    +0.193 C 
ATOM     11  O   UNL     1       8.342   5.053  23.022  0.00  0.00    -0.383 OA
ENDBRANCH   9  11
ENDBRANCH   8   9
ENDBRANCH   2   8
ENDBRANCH   1   5
BRANCH   1  12
ATOM     12  C   UNL     1       9.404  -2.608  23.776  0.00  0.00    +0.261 C 
BRANCH  12  13
ATOM     13  C   UNL     1       7.901  -2.684  23.476  0.00  0.00    +0.166 C 
BRANCH  13  14
ATOM     14  O   UNL     1       7.682  -2.525  22.070  0.00  0.00    -0.387 OA
ATOM     15  H   UNL     1       8.399  -3.019  21.625  0.00  0.00    +0.210 HD
ENDBRANCH  13  14
BRANCH  13  16
ATOM     16  C   UNL     1       7.250  -3.997  23.950  0.00  0.00    +0.115 C 
BRANCH  16  17
ATOM     17  N   UNL     1       7.581  -5.123  23.070  0.00  0.00    -0.311 NA
ATOM     18  H   UNL     1       8.206  -5.762  23.565  0.00  0.00    +0.122 HD
BRANCH  17  19
ATOM     19  C   UNL     1       6.410  -5.874  22.599  0.00  0.00    +0.048 C 
ATOM     20  C   UNL     1       6.366  -5.753  21.072  0.00  0.00    +0.023 C 
ATOM     21  C   UNL     1       5.095  -5.359  23.186  0.00  0.00    +0.023 C 
ENDBRANCH  17  19
ENDBRANCH  16  17
ENDBRANCH  13  16
ENDBRANCH  12  13
ENDBRANCH   1  12
TORSDOF 10
ENDMDL
