MODEL 1
REMARK VINA RESULT:      -5.8      0.000      0.000
REMARK  Name = 
REMARK  9 active torsions:
REMARK  status: ('A' for Active; 'I' for Inactive)
REMARK    1  A    between atoms: C_1  and  C_2
REMARK    2  A    between atoms: N_4  and  C_5
REMARK    3  A    between atoms: C_7  and  O_9
REMARK    4  A    between atoms: C_11  and  C_13
REMARK    5  A    between atoms: C_13  and  O_14
REMARK    6  A    between atoms: O_14  and  S_15
REMARK    7  A    between atoms: S_15  and  O_16
REMARK    8  A    between atoms: C_19  and  O_21
REMARK    9  A    between atoms: C_22  and  O_24
REMARK                            x       y       z     vdW  Elec       q    Type
REMARK                         _______ _______ _______ _____ _____    ______ ____
ROOT
ATOM      1  C   UNL     1       7.275  -3.033  23.478  0.00  0.00    +0.160 C 
ATOM      2  C   UNL     1       7.469  -1.784  22.605  0.00  0.00    +0.171 C 
ATOM      3  C   UNL     1       8.924  -1.675  22.120  0.00  0.00    +0.176 C 
ATOM      4  C   UNL     1       9.935  -1.794  23.279  0.00  0.00    +0.180 C 
ATOM      5  O   UNL     1       9.651  -2.929  24.111  0.00  0.00    -0.341 OA
ATOM      6  C   UNL     1       8.317  -3.017  24.621  0.00  0.00    +0.270 C 
ENDROOT
BRANCH   1   9
ATOM      7  C   UNL     1       6.546  -6.024  21.245  0.00  0.00    +0.109 C 
ATOM      8  C   UNL     1       6.250  -4.800  22.067  0.00  0.00    +0.210 C 
ATOM      9  N   UNL     1       7.357  -4.266  22.685  0.00  0.00    -0.305 N 
ATOM     10  H   UNL     1       8.272  -4.654  22.484  0.00  0.00    +0.149 HD
ATOM     11  O   UNL     1       5.129  -4.313  22.151  0.00  0.00    -0.276 OA
ENDBRANCH   1   9
BRANCH   2  12
ATOM     12  O   UNL     1       7.137  -0.607  23.365  0.00  0.00    -0.387 OA
ATOM     13  H   UNL     1       6.193  -0.434  23.158  0.00  0.00    +0.210 HD
ENDBRANCH   2  12
BRANCH   3  14
ATOM     14  O   UNL     1       9.076  -0.450  21.398  0.00  0.00    -0.387 OA
ATOM     15  H   UNL     1       9.843   0.023  21.769  0.00  0.00    +0.210 HD
ENDBRANCH   3  14
BRANCH   6  16
ATOM     16  O   UNL     1       8.062  -2.011  25.591  0.00  0.00    -0.365 OA
ATOM     17  H   UNL     1       7.809  -1.202  25.101  0.00  0.00    +0.213 HD
ENDBRANCH   6  16
BRANCH   4  18
ATOM     18  C   UNL     1      10.150  -0.492  24.071  0.00  0.00    +0.230 C 
BRANCH  18  19
ATOM     19  O   UNL     1      10.813   0.463  23.252  0.00  0.00    -0.213 OA
BRANCH  19  20
ATOM     20  S   UNL     1      10.145   1.938  23.133  0.00  0.00    +0.208 S 
ATOM     21  O   UNL     1      11.011   2.893  23.782  0.00  0.00    -0.118 OA
ATOM     22  O   UNL     1       8.743   1.820  23.472  0.00  0.00    -0.118 OA
BRANCH  20  23
ATOM     23  O   UNL     1      10.186   2.222  21.548  0.00  0.00    -0.231 OA
ATOM     24  H   UNL     1      10.464   3.151  21.419  0.00  0.00    +0.247 HD
ENDBRANCH  20  23
ENDBRANCH  19  20
ENDBRANCH  18  19
ENDBRANCH   4  18
TORSDOF 8
ENDMDL
MODEL 2
REMARK VINA RESULT:      -5.8      1.571      2.311
REMARK  Name = 
REMARK  9 active torsions:
REMARK  status: ('A' for Active; 'I' for Inactive)
REMARK    1  A    between atoms: C_1  and  C_2
REMARK    2  A    between atoms: N_4  and  C_5
REMARK    3  A    between atoms: C_7  and  O_9
REMARK    4  A    between atoms: C_11  and  C_13
REMARK    5  A    between atoms: C_13  and  O_14
REMARK    6  A    between atoms: O_14  and  S_15
REMARK    7  A    between atoms: S_15  and  O_16
REMARK    8  A    between atoms: C_19  and  O_21
REMARK    9  A    between atoms: C_22  and  O_24
REMARK                            x       y       z     vdW  Elec       q    Type
REMARK                         _______ _______ _______ _____ _____    ______ ____
ROOT
ATOM      1  C   UNL     1       7.215  -1.465  22.588  0.00  0.00    +0.160 C 
ATOM      2  C   UNL     1       8.604  -2.045  22.279  0.00  0.00    +0.171 C 
ATOM      3  C   UNL     1       9.485  -2.054  23.538  0.00  0.00    +0.176 C 
ATOM      4  C   UNL     1       9.521  -0.678  24.235  0.00  0.00    +0.180 C 
ATOM      5  O   UNL     1       8.200  -0.146  24.417  0.00  0.00    -0.341 OA
ATOM      6  C   UNL     1       7.383  -0.075  23.245  0.00  0.00    +0.270 C 
ENDROOT
BRANCH   1   9
ATOM      7  C   UNL     1       4.856  -4.145  23.898  0.00  0.00    +0.109 C 
ATOM      8  C   UNL     1       5.517  -3.253  22.885  0.00  0.00    +0.210 C 
ATOM      9  N   UNL     1       6.423  -2.372  23.429  0.00  0.00    -0.305 N 
ATOM     10  H   UNL     1       6.649  -2.439  24.415  0.00  0.00    +0.149 HD
ATOM     11  O   UNL     1       5.286  -3.327  21.684  0.00  0.00    -0.276 OA
ENDBRANCH   1   9
BRANCH   2  12
ATOM     12  O   UNL     1       9.243  -1.252  21.262  0.00  0.00    -0.387 OA
ATOM     13  H   UNL     1       9.773  -1.893  20.742  0.00  0.00    +0.210 HD
ENDBRANCH   2  12
BRANCH   3  14
ATOM     14  O   UNL     1      10.793  -2.509  23.179  0.00  0.00    -0.387 OA
ATOM     15  H   UNL     1      10.849  -3.458  23.392  0.00  0.00    +0.210 HD
ENDBRANCH   3  14
BRANCH   6  16
ATOM     16  O   UNL     1       7.854   0.914  22.340  0.00  0.00    -0.365 OA
ATOM     17  H   UNL     1       7.471   0.702  21.464  0.00  0.00    +0.213 HD
ENDBRANCH   6  16
BRANCH   4  18
ATOM     18  C   UNL     1      10.505   0.326  23.609  0.00  0.00    +0.230 C 
BRANCH  18  19
ATOM     19  O   UNL     1      10.347   1.598  24.224  0.00  0.00    -0.213 OA
BRANCH  19  20
ATOM     20  S   UNL     1      10.325   2.901  23.255  0.00  0.00    +0.208 S 
ATOM     21  O   UNL     1      11.565   3.622  23.419  0.00  0.00    -0.118 OA
ATOM     22  O   UNL     1       9.038   3.545  23.406  0.00  0.00    -0.118 OA
BRANCH  20  23
ATOM     23  O   UNL     1      10.315   2.250  21.782  0.00  0.00    -0.231 OA
ATOM     24  H   UNL     1       9.406   2.327  21.429  0.00  0.00    +0.247 HD
ENDBRANCH  20  23
ENDBRANCH  19  20
ENDBRANCH  18  19
ENDBRANCH   4  18
TORSDOF 8
ENDMDL
MODEL 3
REMARK VINA RESULT:      -5.7      4.138      6.910
REMARK  Name = 
REMARK  9 active torsions:
REMARK  status: ('A' for Active; 'I' for Inactive)
REMARK    1  A    between atoms: C_1  and  C_2
REMARK    2  A    between atoms: N_4  and  C_5
REMARK    3  A    between atoms: C_7  and  O_9
REMARK    4  A    between atoms: C_11  and  C_13
REMARK    5  A    between atoms: C_13  and  O_14
REMARK    6  A    between atoms: O_14  and  S_15
REMARK    7  A    between atoms: S_15  and  O_16
REMARK    8  A    between atoms: C_19  and  O_21
REMARK    9  A    between atoms: C_22  and  O_24
REMARK                            x       y       z     vdW  Elec       q    Type
REMARK                         _______ _______ _______ _____ _____    ______ ____
ROOT
ATOM      1  C   UNL     1       8.984  -3.330  24.041  0.00  0.00    +0.160 C 
ATOM      2  C   UNL     1       7.458  -3.453  24.175  0.00  0.00    +0.171 C 
ATOM      3  C   UNL     1       7.019  -3.252  25.634  0.00  0.00    +0.176 C 
ATOM      4  C   UNL     1       7.808  -4.150  26.609  0.00  0.00    +0.180 C 
ATOM      5  O   UNL     1       9.223  -4.061  26.378  0.00  0.00    -0.341 OA
ATOM      6  C   UNL     1       9.658  -4.303  25.037  0.00  0.00    +0.270 C 
ENDROOT
BRANCH   1   9
ATOM      7  C   UNL     1      10.501   0.136  23.650  0.00  0.00    +0.109 C 
ATOM      8  C   UNL     1      10.194  -1.294  23.297  0.00  0.00    +0.210 C 
ATOM      9  N   UNL     1       9.436  -1.947  24.241  0.00  0.00    -0.305 N 
ATOM     10  H   UNL     1       9.070  -1.426  25.030  0.00  0.00    +0.149 HD
ATOM     11  O   UNL     1      10.566  -1.813  22.252  0.00  0.00    -0.276 OA
ENDBRANCH   1   9
BRANCH   2  12
ATOM     12  O   UNL     1       7.037  -4.756  23.731  0.00  0.00    -0.387 OA
ATOM     13  H   UNL     1       6.544  -4.589  22.899  0.00  0.00    +0.210 HD
ENDBRANCH   2  12
BRANCH   3  14
ATOM     14  O   UNL     1       5.608  -3.472  25.722  0.00  0.00    -0.387 OA
ATOM     15  H   UNL     1       5.453  -4.435  25.696  0.00  0.00    +0.210 HD
ENDBRANCH   3  14
BRANCH   6  16
ATOM     16  O   UNL     1       9.499  -5.667  24.675  0.00  0.00    -0.365 OA
ATOM     17  H   UNL     1       8.787  -6.031  25.241  0.00  0.00    +0.213 HD
ENDBRANCH   6  16
BRANCH   4  18
ATOM     18  C   UNL     1       7.292  -5.597  26.700  0.00  0.00    +0.230 C 
BRANCH  18  19
ATOM     19  O   UNL     1       7.319  -6.031  28.054  0.00  0.00    -0.213 OA
BRANCH  19  20
ATOM     20  S   UNL     1       5.905  -6.097  28.848  0.00  0.00    +0.208 S 
ATOM     21  O   UNL     1       4.963  -5.222  28.191  0.00  0.00    -0.118 OA
ATOM     22  O   UNL     1       6.185  -5.997  30.264  0.00  0.00    -0.118 OA
BRANCH  20  23
ATOM     23  O   UNL     1       5.429  -7.617  28.605  0.00  0.00    -0.231 OA
ATOM     24  H   UNL     1       6.072  -8.205  29.051  0.00  0.00    +0.247 HD
ENDBRANCH  20  23
ENDBRANCH  19  20
ENDBRANCH  18  19
ENDBRANCH   4  18
TORSDOF 8
ENDMDL
MODEL 4
REMARK VINA RESULT:      -5.6      3.440      6.245
REMARK  Name = 
REMARK  9 active torsions:
REMARK  status: ('A' for Active; 'I' for Inactive)
REMARK    1  A    between atoms: C_1  and  C_2
REMARK    2  A    between atoms: N_4  and  C_5
REMARK    3  A    between atoms: C_7  and  O_9
REMARK    4  A    between atoms: C_11  and  C_13
REMARK    5  A    between atoms: C_13  and  O_14
REMARK    6  A    between atoms: O_14  and  S_15
REMARK    7  A    between atoms: S_15  and  O_16
REMARK    8  A    between atoms: C_19  and  O_21
REMARK    9  A    between atoms: C_22  and  O_24
REMARK                            x       y       z     vdW  Elec       q    Type
REMARK                         _______ _______ _______ _____ _____    ______ ____
ROOT
ATOM      1  C   UNL     1       8.289  -3.204  22.967  0.00  0.00    +0.160 C 
ATOM      2  C   UNL     1       7.038  -3.965  22.503  0.00  0.00    +0.171 C 
ATOM      3  C   UNL     1       5.768  -3.358  23.119  0.00  0.00    +0.176 C 
ATOM      4  C   UNL     1       5.878  -3.207  24.651  0.00  0.00    +0.180 C 
ATOM      5  O   UNL     1       7.107  -2.568  25.029  0.00  0.00    -0.341 OA
ATOM      6  C   UNL     1       8.305  -3.154  24.513  0.00  0.00    +0.270 C 
ENDROOT
BRANCH   1   9
ATOM      7  C   UNL     1       9.416   0.073  21.400  0.00  0.00    +0.109 C 
ATOM      8  C   UNL     1       9.556  -1.273  22.054  0.00  0.00    +0.210 C 
ATOM      9  N   UNL     1       8.355  -1.860  22.378  0.00  0.00    -0.305 N 
ATOM     10  H   UNL     1       7.491  -1.416  22.086  0.00  0.00    +0.149 HD
ATOM     11  O   UNL     1      10.642  -1.804  22.253  0.00  0.00    -0.276 OA
ENDBRANCH   1   9
BRANCH   2  12
ATOM     12  O   UNL     1       7.139  -5.346  22.897  0.00  0.00    -0.387 OA
ATOM     13  H   UNL     1       8.049  -5.439  23.253  0.00  0.00    +0.210 HD
ENDBRANCH   2  12
BRANCH   3  14
ATOM     14  O   UNL     1       4.645  -4.159  22.738  0.00  0.00    -0.387 OA
ATOM     15  H   UNL     1       3.855  -3.588  22.742  0.00  0.00    +0.210 HD
ENDBRANCH   3  14
BRANCH   6  16
ATOM     16  O   UNL     1       8.566  -4.418  25.107  0.00  0.00    -0.365 OA
ATOM     17  H   UNL     1       7.832  -5.011  24.845  0.00  0.00    +0.213 HD
ENDBRANCH   6  16
BRANCH   4  18
ATOM     18  C   UNL     1       5.589  -4.496  25.439  0.00  0.00    +0.230 C 
BRANCH  18  19
ATOM     19  O   UNL     1       5.937  -4.311  26.805  0.00  0.00    -0.213 OA
BRANCH  19  20
ATOM     20  S   UNL     1       6.304  -5.634  27.671  0.00  0.00    +0.208 S 
ATOM     21  O   UNL     1       5.639  -6.772  27.082  0.00  0.00    -0.118 OA
ATOM     22  O   UNL     1       6.161  -5.302  29.072  0.00  0.00    -0.118 OA
BRANCH  20  23
ATOM     23  O   UNL     1       7.887  -5.796  27.422  0.00  0.00    -0.231 OA
ATOM     24  H   UNL     1       8.340  -5.082  27.914  0.00  0.00    +0.247 HD
ENDBRANCH  20  23
ENDBRANCH  19  20
ENDBRANCH  18  19
ENDBRANCH   4  18
TORSDOF 8
ENDMDL
MODEL 5
REMARK VINA RESULT:      -5.5      3.245      5.989
REMARK  Name = 
REMARK  9 active torsions:
REMARK  status: ('A' for Active; 'I' for Inactive)
REMARK    1  A    between atoms: C_1  and  C_2
REMARK    2  A    between atoms: N_4  and  C_5
REMARK    3  A    between atoms: C_7  and  O_9
REMARK    4  A    between atoms: C_11  and  C_13
REMARK    5  A    between atoms: C_13  and  O_14
REMARK    6  A    between atoms: O_14  and  S_15
REMARK    7  A    between atoms: S_15  and  O_16
REMARK    8  A    between atoms: C_19  and  O_21
REMARK    9  A    between atoms: C_22  and  O_24
REMARK                            x       y       z     vdW  Elec       q    Type
REMARK                         _______ _______ _______ _____ _____    ______ ____
ROOT
ATOM      1  C   UNL     1       8.608   0.978  22.503  0.00  0.00    +0.160 C 
ATOM      2  C   UNL     1       7.754   0.106  23.436  0.00  0.00    +0.171 C 
ATOM      3  C   UNL     1       8.613  -0.506  24.553  0.00  0.00    +0.176 C 
ATOM      4  C   UNL     1       9.865  -1.219  24.001  0.00  0.00    +0.180 C 
ATOM      5  O   UNL     1      10.575  -0.389  23.068  0.00  0.00    -0.341 OA
ATOM      6  C   UNL     1       9.804   0.143  21.987  0.00  0.00    +0.270 C 
ENDROOT
BRANCH   1   9
ATOM      7  C   UNL     1       8.961   4.539  23.791  0.00  0.00    +0.109 C 
ATOM      8  C   UNL     1       8.404   3.407  22.972  0.00  0.00    +0.210 C 
ATOM      9  N   UNL     1       9.052   2.210  23.168  0.00  0.00    -0.305 N 
ATOM     10  H   UNL     1       9.766   2.144  23.884  0.00  0.00    +0.149 HD
ATOM     11  O   UNL     1       7.444   3.541  22.223  0.00  0.00    -0.276 OA
ENDBRANCH   1   9
BRANCH   2  12
ATOM     12  O   UNL     1       7.140  -0.954  22.679  0.00  0.00    -0.387 OA
ATOM     13  H   UNL     1       6.313  -1.161  23.165  0.00  0.00    +0.210 HD
ENDBRANCH   2  12
BRANCH   3  14
ATOM     14  O   UNL     1       7.795  -1.383  25.332  0.00  0.00    -0.387 OA
ATOM     15  H   UNL     1       7.396  -2.036  24.728  0.00  0.00    +0.210 HD
ENDBRANCH   3  14
BRANCH   6  16
ATOM     16  O   UNL     1       9.419  -0.873  21.072  0.00  0.00    -0.365 OA
ATOM     17  H   UNL     1       8.483  -1.089  21.264  0.00  0.00    +0.213 HD
ENDBRANCH   6  16
BRANCH   4  18
ATOM     18  C   UNL     1       9.608  -2.644  23.481  0.00  0.00    +0.230 C 
BRANCH  18  19
ATOM     19  O   UNL     1      10.048  -3.593  24.445  0.00  0.00    -0.213 OA
BRANCH  19  20
ATOM     20  S   UNL     1       8.998  -4.747  24.892  0.00  0.00    +0.208 S 
ATOM     21  O   UNL     1       8.432  -5.344  23.706  0.00  0.00    -0.118 OA
ATOM     22  O   UNL     1       8.169  -4.208  25.950  0.00  0.00    -0.118 OA
BRANCH  20  23
ATOM     23  O   UNL     1       9.947  -5.840  25.599  0.00  0.00    -0.231 OA
ATOM     24  H   UNL     1       9.378  -6.574  25.907  0.00  0.00    +0.247 HD
ENDBRANCH  20  23
ENDBRANCH  19  20
ENDBRANCH  18  19
ENDBRANCH   4  18
TORSDOF 8
ENDMDL
MODEL 6
REMARK VINA RESULT:      -5.4      3.210      5.776
REMARK  Name = 
REMARK  9 active torsions:
REMARK  status: ('A' for Active; 'I' for Inactive)
REMARK    1  A    between atoms: C_1  and  C_2
REMARK    2  A    between atoms: N_4  and  C_5
REMARK    3  A    between atoms: C_7  and  O_9
REMARK    4  A    between atoms: C_11  and  C_13
REMARK    5  A    between atoms: C_13  and  O_14
REMARK    6  A    between atoms: O_14  and  S_15
REMARK    7  A    between atoms: S_15  and  O_16
REMARK    8  A    between atoms: C_19  and  O_21
REMARK    9  A    between atoms: C_22  and  O_24
REMARK                            x       y       z     vdW  Elec       q    Type
REMARK                         _______ _______ _______ _____ _____    ______ ____
ROOT
ATOM      1  C   UNL     1       8.895   1.082  23.965  0.00  0.00    +0.160 C 
ATOM      2  C   UNL     1       9.858   0.392  22.986  0.00  0.00    +0.171 C 
ATOM      3  C   UNL     1       9.214  -0.864  22.378  0.00  0.00    +0.176 C 
ATOM      4  C   UNL     1       8.638  -1.803  23.458  0.00  0.00    +0.180 C 
ATOM      5  O   UNL     1       7.818  -1.088  24.394  0.00  0.00    -0.341 OA
ATOM      6  C   UNL     1       8.420   0.051  25.016  0.00  0.00    +0.270 C 
ENDROOT
BRANCH   1   9
ATOM      7  C   UNL     1       6.563   3.475  22.149  0.00  0.00    +0.109 C 
ATOM      8  C   UNL     1       7.777   3.038  22.920  0.00  0.00    +0.210 C 
ATOM      9  N   UNL     1       7.765   1.706  23.264  0.00  0.00    -0.305 N 
ATOM     10  H   UNL     1       7.024   1.110  22.913  0.00  0.00    +0.149 HD
ATOM     11  O   UNL     1       8.700   3.796  23.191  0.00  0.00    -0.276 OA
ENDBRANCH   1   9
BRANCH   2  12
ATOM     12  O   UNL     1      11.064   0.017  23.678  0.00  0.00    -0.387 OA
ATOM     13  H   UNL     1      10.846   0.115  24.630  0.00  0.00    +0.210 HD
ENDBRANCH   2  12
BRANCH   3  14
ATOM     14  O   UNL     1      10.181  -1.521  21.554  0.00  0.00    -0.387 OA
ATOM     15  H   UNL     1      10.663  -2.161  22.110  0.00  0.00    +0.210 HD
ENDBRANCH   3  14
BRANCH   6  16
ATOM     16  O   UNL     1       9.444  -0.329  25.923  0.00  0.00    -0.365 OA
ATOM     17  H   UNL     1       9.880   0.496  26.222  0.00  0.00    +0.213 HD
ENDBRANCH   6  16
BRANCH   4  18
ATOM     18  C   UNL     1       9.680  -2.717  24.128  0.00  0.00    +0.230 C 
BRANCH  18  19
ATOM     19  O   UNL     1       9.094  -3.373  25.245  0.00  0.00    -0.213 OA
BRANCH  19  20
ATOM     20  S   UNL     1       8.956  -4.989  25.176  0.00  0.00    +0.208 S 
ATOM     21  O   UNL     1       8.577  -5.365  23.835  0.00  0.00    -0.118 OA
ATOM     22  O   UNL     1       8.202  -5.420  26.335  0.00  0.00    -0.118 OA
BRANCH  20  23
ATOM     23  O   UNL     1      10.466  -5.488  25.429  0.00  0.00    -0.231 OA
ATOM     24  H   UNL     1      10.611  -5.518  26.397  0.00  0.00    +0.247 HD
ENDBRANCH  20  23
ENDBRANCH  19  20
ENDBRANCH  18  19
ENDBRANCH   4  18
TORSDOF 8
ENDMDL
MODEL 7
REMARK VINA RESULT:      -5.4      3.520      6.671
REMARK  Name = 
REMARK  9 active torsions:
REMARK  status: ('A' for Active; 'I' for Inactive)
REMARK    1  A    between atoms: C_1  and  C_2
REMARK    2  A    between atoms: N_4  and  C_5
REMARK    3  A    between atoms: C_7  and  O_9
REMARK    4  A    between atoms: C_11  and  C_13
REMARK    5  A    between atoms: C_13  and  O_14
REMARK    6  A    between atoms: O_14  and  S_15
REMARK    7  A    between atoms: S_15  and  O_16
REMARK    8  A    between atoms: C_19  and  O_21
REMARK    9  A    between atoms: C_22  and  O_24
REMARK                            x       y       z     vdW  Elec       q    Type
REMARK                         _______ _______ _______ _____ _____    ______ ____
ROOT
ATOM      1  C   UNL     1       9.674   2.826  23.150  0.00  0.00    +0.160 C 
ATOM      2  C   UNL     1       9.476   2.085  24.481  0.00  0.00    +0.171 C 
ATOM      3  C   UNL     1      10.310   0.794  24.518  0.00  0.00    +0.176 C 
ATOM      4  C   UNL     1      10.081  -0.084  23.271  0.00  0.00    +0.180 C 
ATOM      5  O   UNL     1      10.192   0.681  22.061  0.00  0.00    -0.341 OA
ATOM      6  C   UNL     1       9.378   1.855  21.983  0.00  0.00    +0.270 C 
ENDROOT
BRANCH   1   9
ATOM      7  C   UNL     1      12.728   5.086  23.332  0.00  0.00    +0.109 C 
ATOM      8  C   UNL     1      11.281   4.696  23.450  0.00  0.00    +0.210 C 
ATOM      9  N   UNL     1      11.020   3.406  23.048  0.00  0.00    -0.305 N 
ATOM     10  H   UNL     1      11.792   2.798  22.800  0.00  0.00    +0.149 HD
ATOM     11  O   UNL     1      10.424   5.452  23.889  0.00  0.00    -0.276 OA
ENDBRANCH   1   9
BRANCH   2  12
ATOM     12  O   UNL     1       8.085   1.752  24.647  0.00  0.00    -0.387 OA
ATOM     13  H   UNL     1       7.599   2.497  24.234  0.00  0.00    +0.210 HD
ENDBRANCH   2  12
BRANCH   3  14
ATOM     14  O   UNL     1      10.017   0.093  25.730  0.00  0.00    -0.387 OA
ATOM     15  H   UNL     1       9.690   0.743  26.380  0.00  0.00    +0.210 HD
ENDBRANCH   3  14
BRANCH   6  16
ATOM     16  O   UNL     1       8.001   1.529  21.867  0.00  0.00    -0.365 OA
ATOM     17  H   UNL     1       7.526   2.366  21.681  0.00  0.00    +0.213 HD
ENDBRANCH   6  16
BRANCH   4  18
ATOM     18  C   UNL     1       8.814  -0.956  23.331  0.00  0.00    +0.230 C 
BRANCH  18  19
ATOM     19  O   UNL     1       9.167  -2.325  23.186  0.00  0.00    -0.213 OA
BRANCH  19  20
ATOM     20  S   UNL     1       8.768  -3.333  24.394  0.00  0.00    +0.208 S 
ATOM     21  O   UNL     1       7.692  -4.187  23.949  0.00  0.00    -0.118 OA
ATOM     22  O   UNL     1       8.674  -2.554  25.610  0.00  0.00    -0.118 OA
BRANCH  20  23
ATOM     23  O   UNL     1      10.090  -4.237  24.558  0.00  0.00    -0.231 OA
ATOM     24  H   UNL     1       9.812  -5.175  24.559  0.00  0.00    +0.247 HD
ENDBRANCH  20  23
ENDBRANCH  19  20
ENDBRANCH  18  19
ENDBRANCH   4  18
TORSDOF 8
ENDMDL
MODEL 8
REMARK VINA RESULT:      -5.4      2.269      3.424
REMARK  Name = 
REMARK  9 active torsions:
REMARK  status: ('A' for Active; 'I' for Inactive)
REMARK    1  A    between atoms: C_1  and  C_2
REMARK    2  A    between atoms: N_4  and  C_5
REMARK    3  A    between atoms: C_7  and  O_9
REMARK    4  A    between atoms: C_11  and  C_13
REMARK    5  A    between atoms: C_13  and  O_14
REMARK    6  A    between atoms: O_14  and  S_15
REMARK    7  A    between atoms: S_15  and  O_16
REMARK    8  A    between atoms: C_19  and  O_21
REMARK    9  A    between atoms: C_22  and  O_24
REMARK                            x       y       z     vdW  Elec       q    Type
REMARK                         _______ _______ _______ _____ _____    ______ ____
ROOT
ATOM      1  C   UNL     1       9.425  -2.267  23.616  0.00  0.00    +0.160 C 
ATOM      2  C   UNL     1       9.764  -1.046  24.484  0.00  0.00    +0.171 C 
ATOM      3  C   UNL     1       8.516  -0.183  24.727  0.00  0.00    +0.176 C 
ATOM      4  C   UNL     1       7.784   0.165  23.414  0.00  0.00    +0.180 C 
ATOM      5  O   UNL     1       7.573  -1.001  22.604  0.00  0.00    -0.341 OA
ATOM      6  C   UNL     1       8.734  -1.787  22.318  0.00  0.00    +0.270 C 
ENDROOT
BRANCH   1   9
ATOM      7  C   UNL     1       8.149  -5.223  25.641  0.00  0.00    +0.109 C 
ATOM      8  C   UNL     1       9.136  -4.390  24.871  0.00  0.00    +0.210 C 
ATOM      9  N   UNL     1       8.599  -3.238  24.345  0.00  0.00    -0.305 N 
ATOM     10  H   UNL     1       7.644  -2.986  24.575  0.00  0.00    +0.149 HD
ATOM     11  O   UNL     1      10.315  -4.701  24.751  0.00  0.00    -0.276 OA
ENDBRANCH   1   9
BRANCH   2  12
ATOM     12  O   UNL     1      10.768  -0.250  23.827  0.00  0.00    -0.387 OA
ATOM     13  H   UNL     1      10.895   0.526  24.415  0.00  0.00    +0.210 HD
ENDBRANCH   2  12
BRANCH   3  14
ATOM     14  O   UNL     1       8.902   0.987  25.453  0.00  0.00    -0.387 OA
ATOM     15  H   UNL     1       9.427   1.551  24.856  0.00  0.00    +0.210 HD
ENDBRANCH   3  14
BRANCH   6  16
ATOM     16  O   UNL     1       9.617  -1.110  21.436  0.00  0.00    -0.365 OA
ATOM     17  H   UNL     1      10.165  -1.796  21.000  0.00  0.00    +0.213 HD
ENDBRANCH   6  16
BRANCH   4  18
ATOM     18  C   UNL     1       8.395   1.347  22.640  0.00  0.00    +0.230 C 
BRANCH  18  19
ATOM     19  O   UNL     1       7.985   2.572  23.234  0.00  0.00    -0.213 OA
BRANCH  19  20
ATOM     20  S   UNL     1       9.144   3.531  23.845  0.00  0.00    +0.208 S 
ATOM     21  O   UNL     1      10.421   2.880  23.677  0.00  0.00    -0.118 OA
ATOM     22  O   UNL     1       8.691   4.011  25.133  0.00  0.00    -0.118 OA
BRANCH  20  23
ATOM     23  O   UNL     1       9.102   4.810  22.866  0.00  0.00    -0.231 OA
ATOM     24  H   UNL     1      10.019   5.001  22.585  0.00  0.00    +0.247 HD
ENDBRANCH  20  23
ENDBRANCH  19  20
ENDBRANCH  18  19
ENDBRANCH   4  18
TORSDOF 8
ENDMDL
MODEL 9
REMARK VINA RESULT:      -5.3      2.462      3.836
REMARK  Name = 
REMARK  9 active torsions:
REMARK  status: ('A' for Active; 'I' for Inactive)
REMARK    1  A    between atoms: C_1  and  C_2
REMARK    2  A    between atoms: N_4  and  C_5
REMARK    3  A    between atoms: C_7  and  O_9
REMARK    4  A    between atoms: C_11  and  C_13
REMARK    5  A    between atoms: C_13  and  O_14
REMARK    6  A    between atoms: O_14  and  S_15
REMARK    7  A    between atoms: S_15  and  O_16
REMARK    8  A    between atoms: C_19  and  O_21
REMARK    9  A    between atoms: C_22  and  O_24
REMARK                            x       y       z     vdW  Elec       q    Type
REMARK                         _______ _______ _______ _____ _____    ______ ____
ROOT
ATOM      1  C   UNL     1       5.706  -5.241  23.611  0.00  0.00    +0.160 C 
ATOM      2  C   UNL     1       7.237  -5.196  23.492  0.00  0.00    +0.171 C 
ATOM      3  C   UNL     1       7.806  -3.956  24.200  0.00  0.00    +0.176 C 
ATOM      4  C   UNL     1       7.104  -2.657  23.754  0.00  0.00    +0.180 C 
ATOM      5  O   UNL     1       5.675  -2.788  23.802  0.00  0.00    -0.341 OA
ATOM      6  C   UNL     1       5.121  -3.903  23.099  0.00  0.00    +0.270 C 
ENDROOT
BRANCH   1   9
ATOM      7  C   UNL     1       4.322  -6.844  26.770  0.00  0.00    +0.109 C 
ATOM      8  C   UNL     1       4.616  -6.695  25.302  0.00  0.00    +0.210 C 
ATOM      9  N   UNL     1       5.278  -5.532  24.985  0.00  0.00    -0.305 N 
ATOM     10  H   UNL     1       5.595  -4.922  25.731  0.00  0.00    +0.149 HD
ATOM     11  O   UNL     1       4.316  -7.548  24.476  0.00  0.00    -0.276 OA
ENDBRANCH   1   9
BRANCH   2  12
ATOM     12  O   UNL     1       7.613  -5.158  22.102  0.00  0.00    -0.387 OA
ATOM     13  H   UNL     1       8.141  -4.337  22.008  0.00  0.00    +0.210 HD
ENDBRANCH   2  12
BRANCH   3  14
ATOM     14  O   UNL     1       9.218  -3.908  23.977  0.00  0.00    -0.387 OA
ATOM     15  H   UNL     1       9.465  -4.691  23.452  0.00  0.00    +0.210 HD
ENDBRANCH   3  14
BRANCH   6  16
ATOM     16  O   UNL     1       5.242  -3.746  21.693  0.00  0.00    -0.365 OA
ATOM     17  H   UNL     1       6.103  -4.138  21.436  0.00  0.00    +0.213 HD
ENDBRANCH   6  16
BRANCH   4  18
ATOM     18  C   UNL     1       7.622  -2.078  22.425  0.00  0.00    +0.230 C 
BRANCH  18  19
ATOM     19  O   UNL     1       8.126  -0.766  22.639  0.00  0.00    -0.213 OA
BRANCH  19  20
ATOM     20  S   UNL     1       9.738  -0.580  22.674  0.00  0.00    +0.208 S 
ATOM     21  O   UNL     1      10.231  -1.048  23.947  0.00  0.00    -0.118 OA
ATOM     22  O   UNL     1      10.043   0.743  22.172  0.00  0.00    -0.118 OA
BRANCH  20  23
ATOM     23  O   UNL     1      10.241  -1.602  21.535  0.00  0.00    -0.231 OA
ATOM     24  H   UNL     1       9.896  -1.285  20.676  0.00  0.00    +0.247 HD
ENDBRANCH  20  23
ENDBRANCH  19  20
ENDBRANCH  18  19
ENDBRANCH   4  18
TORSDOF 8
ENDMDL
