MODEL 1
REMARK VINA RESULT:      -8.0      0.000      0.000
REMARK  Name = 
REMARK  7 active torsions:
REMARK  status: ('A' for Active; 'I' for Inactive)
REMARK    1  A    between atoms: C_1  and  O_2
REMARK    2  A    between atoms: O_2  and  C_3
REMARK    3  A    between atoms: C_7  and  C_9
REMARK    4  A    between atoms: C_12  and  N_13
REMARK    5  A    between atoms: C_14  and  C_16
REMARK    6  A    between atoms: C_17  and  C_21
REMARK    7  A    between atoms: C_21  and  O_22
REMARK                            x       y       z     vdW  Elec       q    Type
REMARK                         _______ _______ _______ _____ _____    ______ ____
ROOT
ATOM      1  C   UNL     1      10.043   1.916  23.218  0.00  0.00    -0.015 A 
ATOM      2  C   UNL     1       9.994   0.972  24.259  0.00  0.00    +0.048 A 
ATOM      3  C   UNL     1       9.593  -0.343  24.017  0.00  0.00    +0.145 A 
ATOM      4  F   UNL     1       9.523  -1.195  25.051  0.00  0.00    -0.204 F 
ATOM      5  C   UNL     1       9.195  -0.757  22.746  0.00  0.00    +0.069 A 
ATOM      6  C   UNL     1       9.312   0.146  21.693  0.00  0.00    +0.027 A 
ATOM      7  C   UNL     1       9.741   1.457  21.925  0.00  0.00    +0.010 A 
ENDROOT
BRANCH   1  10
ATOM      8  C   UNL     1      11.899   5.230  23.539  0.00  0.00    +0.121 A 
ATOM      9  C   UNL     1      11.593   3.909  23.199  0.00  0.00    +0.054 A 
ATOM     10  C   UNL     1      10.333   3.348  23.475  0.00  0.00    -0.014 A 
ATOM     11  C   UNL     1       9.367   4.188  24.063  0.00  0.00    +0.009 A 
ATOM     12  C   UNL     1       9.652   5.519  24.377  0.00  0.00    +0.004 A 
ATOM     13  C   UNL     1      10.919   6.032  24.121  0.00  0.00    +0.045 A 
BRANCH   8  15
ATOM     14  C   UNL     1      13.603   5.911  22.033  0.00  0.00    +0.277 C 
ATOM     15  O   UNL     1      13.112   5.838  23.366  0.00  0.00    -0.495 OA
ENDBRANCH   8  15
ENDBRANCH   1  10
BRANCH   5  16
ATOM     16  N   UNL     1       8.690  -2.066  22.590  0.00  0.00    -0.279 N 
ATOM     17  H   UNL     1       9.403  -2.796  22.532  0.00  0.00    +0.155 HD
ATOM     18  C   UNL     1       7.361  -2.426  22.660  0.00  0.00    +0.250 C 
ATOM     19  O   UNL     1       6.456  -1.649  22.957  0.00  0.00    -0.270 OA
BRANCH  18  20
ATOM     20  C   UNL     1       7.021  -3.839  22.422  0.00  0.00    +0.058 A 
ATOM     21  C   UNL     1       6.282  -4.230  21.241  0.00  0.00    +0.021 A 
ATOM     22  C   UNL     1       6.128  -5.587  21.113  0.00  0.00    +0.047 A 
ATOM     23  S   UNL     1       6.862  -6.421  22.398  0.00  0.00    -0.090 S 
ATOM     24  C   UNL     1       7.381  -4.963  23.161  0.00  0.00    +0.108 A 
BRANCH  24  25
ATOM     25  C   UNL     1       8.085  -5.056  24.426  0.00  0.00    +0.344 C 
ATOM     26  O   UNL     1       7.597  -5.451  25.476  0.00  0.00    -0.245 OA
BRANCH  25  27
ATOM     27  O   UNL     1       9.378  -4.650  24.352  0.00  0.00    -0.477 OA
ATOM     28  H   UNL     1       9.593  -4.274  23.476  0.00  0.00    +0.295 HD
ENDBRANCH  25  27
ENDBRANCH  24  25
ENDBRANCH  18  20
ENDBRANCH   5  16
TORSDOF 6
ENDMDL
MODEL 2
REMARK VINA RESULT:      -7.9      1.011      1.762
REMARK  Name = 
REMARK  7 active torsions:
REMARK  status: ('A' for Active; 'I' for Inactive)
REMARK    1  A    between atoms: C_1  and  O_2
REMARK    2  A    between atoms: O_2  and  C_3
REMARK    3  A    between atoms: C_7  and  C_9
REMARK    4  A    between atoms: C_12  and  N_13
REMARK    5  A    between atoms: C_14  and  C_16
REMARK    6  A    between atoms: C_17  and  C_21
REMARK    7  A    between atoms: C_21  and  O_22
REMARK                            x       y       z     vdW  Elec       q    Type
REMARK                         _______ _______ _______ _____ _____    ______ ____
ROOT
ATOM      1  C   UNL     1      10.304   2.077  23.183  0.00  0.00    -0.015 A 
ATOM      2  C   UNL     1      10.395   1.077  24.168  0.00  0.00    +0.048 A 
ATOM      3  C   UNL     1       9.950  -0.221  23.916  0.00  0.00    +0.145 A 
ATOM      4  F   UNL     1      10.020  -1.128  24.902  0.00  0.00    -0.204 F 
ATOM      5  C   UNL     1       9.369  -0.564  22.695  0.00  0.00    +0.069 A 
ATOM      6  C   UNL     1       9.343   0.395  21.686  0.00  0.00    +0.027 A 
ATOM      7  C   UNL     1       9.815   1.690  21.924  0.00  0.00    +0.010 A 
ENDROOT
BRANCH   1  10
ATOM      8  C   UNL     1       9.962   5.782  24.010  0.00  0.00    +0.121 A 
ATOM      9  C   UNL     1       9.660   4.427  23.841  0.00  0.00    +0.054 A 
ATOM     10  C   UNL     1      10.643   3.492  23.471  0.00  0.00    -0.014 A 
ATOM     11  C   UNL     1      11.962   3.966  23.327  0.00  0.00    +0.009 A 
ATOM     12  C   UNL     1      12.280   5.311  23.525  0.00  0.00    +0.004 A 
ATOM     13  C   UNL     1      11.277   6.215  23.857  0.00  0.00    +0.045 A 
BRANCH   8  15
ATOM     14  C   UNL     1       7.818   6.726  23.616  0.00  0.00    +0.277 C 
ATOM     15  O   UNL     1       9.062   6.769  24.307  0.00  0.00    -0.495 OA
ENDBRANCH   8  15
ENDBRANCH   1  10
BRANCH   5  16
ATOM     16  N   UNL     1       8.833  -1.862  22.543  0.00  0.00    -0.279 N 
ATOM     17  H   UNL     1       9.525  -2.592  22.361  0.00  0.00    +0.155 HD
ATOM     18  C   UNL     1       7.520  -2.217  22.763  0.00  0.00    +0.250 C 
ATOM     19  O   UNL     1       6.669  -1.450  23.209  0.00  0.00    -0.270 OA
BRANCH  18  20
ATOM     20  C   UNL     1       7.137  -3.615  22.505  0.00  0.00    +0.058 A 
ATOM     21  C   UNL     1       6.312  -3.953  21.365  0.00  0.00    +0.021 A 
ATOM     22  C   UNL     1       6.122  -5.303  21.205  0.00  0.00    +0.047 A 
ATOM     23  S   UNL     1       6.924  -6.191  22.410  0.00  0.00    -0.090 S 
ATOM     24  C   UNL     1       7.522  -4.768  23.182  0.00  0.00    +0.108 A 
BRANCH  24  25
ATOM     25  C   UNL     1       8.307  -4.916  24.393  0.00  0.00    +0.344 C 
ATOM     26  O   UNL     1       7.928  -5.472  25.414  0.00  0.00    -0.245 OA
BRANCH  25  27
ATOM     27  O   UNL     1       9.543  -4.362  24.302  0.00  0.00    -0.477 OA
ATOM     28  H   UNL     1       9.516  -3.471  23.903  0.00  0.00    +0.295 HD
ENDBRANCH  25  27
ENDBRANCH  24  25
ENDBRANCH  18  20
ENDBRANCH   5  16
TORSDOF 6
ENDMDL
MODEL 3
REMARK VINA RESULT:      -7.5      1.606      2.251
REMARK  Name = 
REMARK  7 active torsions:
REMARK  status: ('A' for Active; 'I' for Inactive)
REMARK    1  A    between atoms: C_1  and  O_2
REMARK    2  A    between atoms: O_2  and  C_3
REMARK    3  A    between atoms: C_7  and  C_9
REMARK    4  A    between atoms: C_12  and  N_13
REMARK    5  A    between atoms: C_14  and  C_16
REMARK    6  A    between atoms: C_17  and  C_21
REMARK    7  A    between atoms: C_21  and  O_22
REMARK                            x       y       z     vdW  Elec       q    Type
REMARK                         _______ _______ _______ _____ _____    ______ ____
ROOT
ATOM      1  C   UNL     1       9.450   1.818  23.681  0.00  0.00    -0.015 A 
ATOM      2  C   UNL     1       9.559   0.981  24.806  0.00  0.00    +0.048 A 
ATOM      3  C   UNL     1       8.905  -0.250  24.852  0.00  0.00    +0.145 A 
ATOM      4  F   UNL     1       9.007  -0.993  25.964  0.00  0.00    -0.204 F 
ATOM      5  C   UNL     1       8.093  -0.678  23.801  0.00  0.00    +0.069 A 
ATOM      6  C   UNL     1       8.037   0.105  22.651  0.00  0.00    +0.027 A 
ATOM      7  C   UNL     1       8.715   1.326  22.590  0.00  0.00    +0.010 A 
ENDROOT
BRANCH   1  10
ATOM      8  C   UNL     1      11.932   4.697  23.404  0.00  0.00    +0.121 A 
ATOM      9  C   UNL     1      11.364   3.423  23.316  0.00  0.00    +0.054 A 
ATOM     10  C   UNL     1      10.023   3.186  23.666  0.00  0.00    -0.014 A 
ATOM     11  C   UNL     1       9.253   4.298  24.061  0.00  0.00    +0.009 A 
ATOM     12  C   UNL     1       9.802   5.581  24.121  0.00  0.00    +0.004 A 
ATOM     13  C   UNL     1      11.141   5.774  23.800  0.00  0.00    +0.045 A 
BRANCH   8  15
ATOM     14  C   UNL     1      13.497   5.728  21.945  0.00  0.00    +0.277 C 
ATOM     15  O   UNL     1      13.239   5.008  23.145  0.00  0.00    -0.495 OA
ENDBRANCH   8  15
ENDBRANCH   1  10
BRANCH   5  16
ATOM     16  N   UNL     1       7.365  -1.879  23.956  0.00  0.00    -0.279 N 
ATOM     17  H   UNL     1       6.357  -1.757  24.069  0.00  0.00    +0.155 HD
ATOM     18  C   UNL     1       7.879  -3.150  23.820  0.00  0.00    +0.250 C 
ATOM     19  O   UNL     1       9.029  -3.388  23.457  0.00  0.00    -0.270 OA
BRANCH  18  20
ATOM     20  C   UNL     1       6.974  -4.284  24.066  0.00  0.00    +0.058 A 
ATOM     21  C   UNL     1       6.717  -4.741  25.415  0.00  0.00    +0.021 A 
ATOM     22  C   UNL     1       5.779  -5.741  25.488  0.00  0.00    +0.047 A 
ATOM     23  S   UNL     1       5.187  -6.152  23.950  0.00  0.00    -0.090 S 
ATOM     24  C   UNL     1       6.203  -5.004  23.157  0.00  0.00    +0.108 A 
BRANCH  24  25
ATOM     25  C   UNL     1       6.159  -4.925  21.709  0.00  0.00    +0.344 C 
ATOM     26  O   UNL     1       6.606  -5.767  20.944  0.00  0.00    -0.245 OA
BRANCH  25  27
ATOM     27  O   UNL     1       5.564  -3.794  21.252  0.00  0.00    -0.477 OA
ATOM     28  H   UNL     1       6.174  -3.252  20.713  0.00  0.00    +0.295 HD
ENDBRANCH  25  27
ENDBRANCH  24  25
ENDBRANCH  18  20
ENDBRANCH   5  16
TORSDOF 6
ENDMDL
MODEL 4
REMARK VINA RESULT:      -7.3      1.662      1.800
REMARK  Name = 
REMARK  7 active torsions:
REMARK  status: ('A' for Active; 'I' for Inactive)
REMARK    1  A    between atoms: C_1  and  O_2
REMARK    2  A    between atoms: O_2  and  C_3
REMARK    3  A    between atoms: C_7  and  C_9
REMARK    4  A    between atoms: C_12  and  N_13
REMARK    5  A    between atoms: C_14  and  C_16
REMARK    6  A    between atoms: C_17  and  C_21
REMARK    7  A    between atoms: C_21  and  O_22
REMARK                            x       y       z     vdW  Elec       q    Type
REMARK                         _______ _______ _______ _____ _____    ______ ____
ROOT
ATOM      1  C   UNL     1       9.292   2.041  23.819  0.00  0.00    -0.015 A 
ATOM      2  C   UNL     1       9.683   1.084  24.773  0.00  0.00    +0.048 A 
ATOM      3  C   UNL     1       8.986  -0.117  24.912  0.00  0.00    +0.145 A 
ATOM      4  F   UNL     1       9.373  -0.979  25.864  0.00  0.00    -0.204 F 
ATOM      5  C   UNL     1       7.861  -0.395  24.137  0.00  0.00    +0.069 A 
ATOM      6  C   UNL     1       7.509   0.508  23.138  0.00  0.00    +0.027 A 
ATOM      7  C   UNL     1       8.222   1.700  22.975  0.00  0.00    +0.010 A 
ENDROOT
BRANCH   1  10
ATOM      8  C   UNL     1      11.906   4.784  23.406  0.00  0.00    +0.121 A 
ATOM      9  C   UNL     1      11.276   3.536  23.372  0.00  0.00    +0.054 A 
ATOM     10  C   UNL     1       9.930   3.378  23.747  0.00  0.00    -0.014 A 
ATOM     11  C   UNL     1       9.222   4.540  24.112  0.00  0.00    +0.009 A 
ATOM     12  C   UNL     1       9.833   5.795  24.118  0.00  0.00    +0.004 A 
ATOM     13  C   UNL     1      11.175   5.911  23.773  0.00  0.00    +0.045 A 
BRANCH   8  15
ATOM     14  C   UNL     1      13.496   5.711  21.906  0.00  0.00    +0.277 C 
ATOM     15  O   UNL     1      13.223   5.020  23.119  0.00  0.00    -0.495 OA
ENDBRANCH   8  15
ENDBRANCH   1  10
BRANCH   5  16
ATOM     16  N   UNL     1       7.131  -1.575  24.404  0.00  0.00    -0.279 N 
ATOM     17  H   UNL     1       6.355  -1.459  25.059  0.00  0.00    +0.155 HD
ATOM     18  C   UNL     1       7.293  -2.780  23.757  0.00  0.00    +0.250 C 
ATOM     19  O   UNL     1       8.043  -2.948  22.798  0.00  0.00    -0.270 OA
BRANCH  18  20
ATOM     20  C   UNL     1       6.470  -3.915  24.209  0.00  0.00    +0.058 A 
ATOM     21  C   UNL     1       5.318  -4.340  23.443  0.00  0.00    +0.021 A 
ATOM     22  C   UNL     1       4.712  -5.467  23.938  0.00  0.00    +0.047 A 
ATOM     23  S   UNL     1       5.507  -6.041  25.326  0.00  0.00    -0.090 S 
ATOM     24  C   UNL     1       6.667  -4.764  25.294  0.00  0.00    +0.108 A 
BRANCH  24  25
ATOM     25  C   UNL     1       7.662  -4.706  26.350  0.00  0.00    +0.344 C 
ATOM     26  O   UNL     1       8.285  -3.706  26.675  0.00  0.00    -0.245 OA
BRANCH  25  27
ATOM     27  O   UNL     1       7.859  -5.898  26.967  0.00  0.00    -0.477 OA
ATOM     28  H   UNL     1       8.175  -6.584  26.347  0.00  0.00    +0.295 HD
ENDBRANCH  25  27
ENDBRANCH  24  25
ENDBRANCH  18  20
ENDBRANCH   5  16
TORSDOF 6
ENDMDL
MODEL 5
REMARK VINA RESULT:      -7.0      1.802      2.845
REMARK  Name = 
REMARK  7 active torsions:
REMARK  status: ('A' for Active; 'I' for Inactive)
REMARK    1  A    between atoms: C_1  and  O_2
REMARK    2  A    between atoms: O_2  and  C_3
REMARK    3  A    between atoms: C_7  and  C_9
REMARK    4  A    between atoms: C_12  and  N_13
REMARK    5  A    between atoms: C_14  and  C_16
REMARK    6  A    between atoms: C_17  and  C_21
REMARK    7  A    between atoms: C_21  and  O_22
REMARK                            x       y       z     vdW  Elec       q    Type
REMARK                         _______ _______ _______ _____ _____    ______ ____
ROOT
ATOM      1  C   UNL     1       9.506   1.768  23.744  0.00  0.00    -0.015 A 
ATOM      2  C   UNL     1       9.577   0.932  24.873  0.00  0.00    +0.048 A 
ATOM      3  C   UNL     1       8.912  -0.294  24.901  0.00  0.00    +0.145 A 
ATOM      4  F   UNL     1       8.978  -1.036  26.017  0.00  0.00    -0.204 F 
ATOM      5  C   UNL     1       8.126  -0.717  23.830  0.00  0.00    +0.069 A 
ATOM      6  C   UNL     1       8.108   0.064  22.678  0.00  0.00    +0.027 A 
ATOM      7  C   UNL     1       8.798   1.280  22.633  0.00  0.00    +0.010 A 
ENDROOT
BRANCH   1  10
ATOM      8  C   UNL     1       9.839   5.560  23.932  0.00  0.00    +0.121 A 
ATOM      9  C   UNL     1       9.315   4.268  24.037  0.00  0.00    +0.054 A 
ATOM     10  C   UNL     1      10.089   3.131  23.743  0.00  0.00    -0.014 A 
ATOM     11  C   UNL     1      11.436   3.343  23.387  0.00  0.00    +0.009 A 
ATOM     12  C   UNL     1      11.978   4.628  23.312  0.00  0.00    +0.004 A 
ATOM     13  C   UNL     1      11.175   5.732  23.576  0.00  0.00    +0.045 A 
BRANCH   8  15
ATOM     14  C   UNL     1       7.967   6.905  23.360  0.00  0.00    +0.277 C 
ATOM     15  O   UNL     1       9.144   6.721  24.138  0.00  0.00    -0.495 OA
ENDBRANCH   8  15
ENDBRANCH   1  10
BRANCH   5  16
ATOM     16  N   UNL     1       7.385  -1.912  23.965  0.00  0.00    -0.279 N 
ATOM     17  H   UNL     1       6.371  -1.788  23.978  0.00  0.00    +0.155 HD
ATOM     18  C   UNL     1       7.907  -3.186  23.931  0.00  0.00    +0.250 C 
ATOM     19  O   UNL     1       9.086  -3.437  23.688  0.00  0.00    -0.270 OA
BRANCH  18  20
ATOM     20  C   UNL     1       6.981  -4.312  24.139  0.00  0.00    +0.058 A 
ATOM     21  C   UNL     1       6.881  -4.954  25.432  0.00  0.00    +0.021 A 
ATOM     22  C   UNL     1       5.907  -5.919  25.493  0.00  0.00    +0.047 A 
ATOM     23  S   UNL     1       5.093  -6.077  24.010  0.00  0.00    -0.090 S 
ATOM     24  C   UNL     1       6.057  -4.861  23.254  0.00  0.00    +0.108 A 
BRANCH  24  25
ATOM     25  C   UNL     1       5.825  -4.567  21.852  0.00  0.00    +0.344 C 
ATOM     26  O   UNL     1       5.903  -5.378  20.940  0.00  0.00    -0.245 OA
BRANCH  25  27
ATOM     27  O   UNL     1       5.507  -3.268  21.622  0.00  0.00    -0.477 OA
ATOM     28  H   UNL     1       4.626  -3.038  21.978  0.00  0.00    +0.295 HD
ENDBRANCH  25  27
ENDBRANCH  24  25
ENDBRANCH  18  20
ENDBRANCH   5  16
TORSDOF 6
ENDMDL
MODEL 6
REMARK VINA RESULT:      -6.9      1.663      2.405
REMARK  Name = 
REMARK  7 active torsions:
REMARK  status: ('A' for Active; 'I' for Inactive)
REMARK    1  A    between atoms: C_1  and  O_2
REMARK    2  A    between atoms: O_2  and  C_3
REMARK    3  A    between atoms: C_7  and  C_9
REMARK    4  A    between atoms: C_12  and  N_13
REMARK    5  A    between atoms: C_14  and  C_16
REMARK    6  A    between atoms: C_17  and  C_21
REMARK    7  A    between atoms: C_21  and  O_22
REMARK                            x       y       z     vdW  Elec       q    Type
REMARK                         _______ _______ _______ _____ _____    ______ ____
ROOT
ATOM      1  C   UNL     1       9.732   2.056  23.366  0.00  0.00    -0.015 A 
ATOM      2  C   UNL     1       9.000   1.440  24.397  0.00  0.00    +0.048 A 
ATOM      3  C   UNL     1       8.333   0.234  24.181  0.00  0.00    +0.145 A 
ATOM      4  F   UNL     1       7.614  -0.292  25.184  0.00  0.00    -0.204 F 
ATOM      5  C   UNL     1       8.339  -0.384  22.931  0.00  0.00    +0.069 A 
ATOM      6  C   UNL     1       9.122   0.174  21.925  0.00  0.00    +0.027 A 
ATOM      7  C   UNL     1       9.816   1.368  22.144  0.00  0.00    +0.010 A 
ENDROOT
BRANCH   1  10
ATOM      8  C   UNL     1      10.106   5.805  23.940  0.00  0.00    +0.121 A 
ATOM      9  C   UNL     1       9.559   4.519  23.888  0.00  0.00    +0.054 A 
ATOM     10  C   UNL     1      10.334   3.402  23.531  0.00  0.00    -0.014 A 
ATOM     11  C   UNL     1      11.702   3.620  23.275  0.00  0.00    +0.009 A 
ATOM     12  C   UNL     1      12.265   4.896  23.356  0.00  0.00    +0.004 A 
ATOM     13  C   UNL     1      11.463   5.985  23.680  0.00  0.00    +0.045 A 
BRANCH   8  15
ATOM     14  C   UNL     1       8.089   7.038  23.712  0.00  0.00    +0.277 C 
ATOM     15  O   UNL     1       9.416   6.954  24.217  0.00  0.00    -0.495 OA
ENDBRANCH   8  15
ENDBRANCH   1  10
BRANCH   5  16
ATOM     16  N   UNL     1       7.550  -1.541  22.746  0.00  0.00    -0.279 N 
ATOM     17  H   UNL     1       6.701  -1.397  22.194  0.00  0.00    +0.155 HD
ATOM     18  C   UNL     1       7.906  -2.821  23.111  0.00  0.00    +0.250 C 
ATOM     19  O   UNL     1       9.006  -3.121  23.570  0.00  0.00    -0.270 OA
BRANCH  18  20
ATOM     20  C   UNL     1       6.928  -3.897  22.879  0.00  0.00    +0.058 A 
ATOM     21  C   UNL     1       7.142  -4.872  21.831  0.00  0.00    +0.021 A 
ATOM     22  C   UNL     1       6.195  -5.865  21.803  0.00  0.00    +0.047 A 
ATOM     23  S   UNL     1       5.034  -5.653  23.025  0.00  0.00    -0.090 S 
ATOM     24  C   UNL     1       5.777  -4.204  23.598  0.00  0.00    +0.108 A 
BRANCH  24  25
ATOM     25  C   UNL     1       5.151  -3.495  24.698  0.00  0.00    +0.344 C 
ATOM     26  O   UNL     1       4.075  -2.918  24.642  0.00  0.00    -0.245 OA
BRANCH  25  27
ATOM     27  O   UNL     1       5.887  -3.516  25.838  0.00  0.00    -0.477 OA
ATOM     28  H   UNL     1       5.926  -4.411  26.231  0.00  0.00    +0.295 HD
ENDBRANCH  25  27
ENDBRANCH  24  25
ENDBRANCH  18  20
ENDBRANCH   5  16
TORSDOF 6
ENDMDL
MODEL 7
REMARK VINA RESULT:      -6.7      3.599      9.327
REMARK  Name = 
REMARK  7 active torsions:
REMARK  status: ('A' for Active; 'I' for Inactive)
REMARK    1  A    between atoms: C_1  and  O_2
REMARK    2  A    between atoms: O_2  and  C_3
REMARK    3  A    between atoms: C_7  and  C_9
REMARK    4  A    between atoms: C_12  and  N_13
REMARK    5  A    between atoms: C_14  and  C_16
REMARK    6  A    between atoms: C_17  and  C_21
REMARK    7  A    between atoms: C_21  and  O_22
REMARK                            x       y       z     vdW  Elec       q    Type
REMARK                         _______ _______ _______ _____ _____    ______ ____
ROOT
ATOM      1  C   UNL     1       8.068  -2.594  23.340  0.00  0.00    -0.015 A 
ATOM      2  C   UNL     1       8.598  -1.931  22.219  0.00  0.00    +0.048 A 
ATOM      3  C   UNL     1       9.276  -0.719  22.356  0.00  0.00    +0.145 A 
ATOM      4  F   UNL     1       9.727  -0.105  21.252  0.00  0.00    -0.204 F 
ATOM      5  C   UNL     1       9.420  -0.106  23.601  0.00  0.00    +0.069 A 
ATOM      6  C   UNL     1       8.967  -0.788  24.726  0.00  0.00    +0.027 A 
ATOM      7  C   UNL     1       8.313  -2.018  24.597  0.00  0.00    +0.010 A 
ENDROOT
BRANCH   1  10
ATOM      8  C   UNL     1       5.775  -5.519  24.184  0.00  0.00    +0.121 A 
ATOM      9  C   UNL     1       6.481  -4.316  24.282  0.00  0.00    +0.054 A 
ATOM     10  C   UNL     1       7.228  -3.809  23.204  0.00  0.00    -0.014 A 
ATOM     11  C   UNL     1       7.197  -4.537  21.998  0.00  0.00    +0.009 A 
ATOM     12  C   UNL     1       6.468  -5.723  21.880  0.00  0.00    +0.004 A 
ATOM     13  C   UNL     1       5.766  -6.214  22.976  0.00  0.00    +0.045 A 
BRANCH   8  15
ATOM     14  C   UNL     1       4.193  -7.171  24.825  0.00  0.00    +0.277 C 
ATOM     15  O   UNL     1       5.074  -6.117  25.196  0.00  0.00    -0.495 OA
ENDBRANCH   8  15
ENDBRANCH   1  10
BRANCH   5  16
ATOM     16  N   UNL     1      10.012   1.175  23.658  0.00  0.00    -0.279 N 
ATOM     17  H   UNL     1      11.030   1.180  23.564  0.00  0.00    +0.155 HD
ATOM     18  C   UNL     1       9.331   2.372  23.680  0.00  0.00    +0.250 C 
ATOM     19  O   UNL     1       8.111   2.468  23.562  0.00  0.00    -0.270 OA
BRANCH  18  20
ATOM     20  C   UNL     1      10.123   3.608  23.790  0.00  0.00    +0.058 A 
ATOM     21  C   UNL     1      11.447   3.689  23.209  0.00  0.00    +0.021 A 
ATOM     22  C   UNL     1      12.017   4.933  23.310  0.00  0.00    +0.047 A 
ATOM     23  S   UNL     1      10.985   6.028  24.098  0.00  0.00    -0.090 S 
ATOM     24  C   UNL     1       9.760   4.836  24.337  0.00  0.00    +0.108 A 
BRANCH  24  25
ATOM     25  C   UNL     1       8.556   5.214  25.053  0.00  0.00    +0.344 C 
ATOM     26  O   UNL     1       8.482   5.392  26.260  0.00  0.00    -0.245 OA
BRANCH  25  27
ATOM     27  O   UNL     1       7.474   5.354  24.246  0.00  0.00    -0.477 OA
ATOM     28  H   UNL     1       7.685   5.857  23.435  0.00  0.00    +0.295 HD
ENDBRANCH  25  27
ENDBRANCH  24  25
ENDBRANCH  18  20
ENDBRANCH   5  16
TORSDOF 6
ENDMDL
MODEL 8
REMARK VINA RESULT:      -6.6      2.332      2.872
REMARK  Name = 
REMARK  7 active torsions:
REMARK  status: ('A' for Active; 'I' for Inactive)
REMARK    1  A    between atoms: C_1  and  O_2
REMARK    2  A    between atoms: O_2  and  C_3
REMARK    3  A    between atoms: C_7  and  C_9
REMARK    4  A    between atoms: C_12  and  N_13
REMARK    5  A    between atoms: C_14  and  C_16
REMARK    6  A    between atoms: C_17  and  C_21
REMARK    7  A    between atoms: C_21  and  O_22
REMARK                            x       y       z     vdW  Elec       q    Type
REMARK                         _______ _______ _______ _____ _____    ______ ____
ROOT
ATOM      1  C   UNL     1       8.675   3.114  23.741  0.00  0.00    -0.015 A 
ATOM      2  C   UNL     1       8.833   2.084  22.796  0.00  0.00    +0.048 A 
ATOM      3  C   UNL     1       7.959   0.997  22.766  0.00  0.00    +0.145 A 
ATOM      4  F   UNL     1       8.177   0.021  21.873  0.00  0.00    -0.204 F 
ATOM      5  C   UNL     1       6.922   0.876  23.691  0.00  0.00    +0.069 A 
ATOM      6  C   UNL     1       6.709   1.924  24.582  0.00  0.00    +0.027 A 
ATOM      7  C   UNL     1       7.564   3.030  24.596  0.00  0.00    +0.010 A 
ENDROOT
BRANCH   1  10
ATOM      8  C   UNL     1      11.941   5.074  23.591  0.00  0.00    +0.121 A 
ATOM      9  C   UNL     1      10.973   4.089  23.367  0.00  0.00    +0.054 A 
ATOM     10  C   UNL     1       9.669   4.206  23.880  0.00  0.00    -0.014 A 
ATOM     11  C   UNL     1       9.358   5.383  24.589  0.00  0.00    +0.009 A 
ATOM     12  C   UNL     1      10.308   6.387  24.790  0.00  0.00    +0.004 A 
ATOM     13  C   UNL     1      11.598   6.225  24.297  0.00  0.00    +0.045 A 
BRANCH   8  15
ATOM     14  C   UNL     1      13.557   5.652  21.950  0.00  0.00    +0.277 C 
ATOM     15  O   UNL     1      13.246   5.016  23.184  0.00  0.00    -0.495 OA
ENDBRANCH   8  15
ENDBRANCH   1  10
BRANCH   5  16
ATOM     16  N   UNL     1       6.145  -0.304  23.683  0.00  0.00    -0.279 N 
ATOM     17  H   UNL     1       5.324  -0.271  23.074  0.00  0.00    +0.155 HD
ATOM     18  C   UNL     1       6.484  -1.491  24.293  0.00  0.00    +0.250 C 
ATOM     19  O   UNL     1       7.560  -1.691  24.852  0.00  0.00    -0.270 OA
BRANCH  18  20
ATOM     20  C   UNL     1       5.519  -2.601  24.215  0.00  0.00    +0.058 A 
ATOM     21  C   UNL     1       4.513  -2.775  25.240  0.00  0.00    +0.021 A 
ATOM     22  C   UNL     1       3.630  -3.792  24.978  0.00  0.00    +0.047 A 
ATOM     23  S   UNL     1       3.984  -4.558  23.503  0.00  0.00    -0.090 S 
ATOM     24  C   UNL     1       5.349  -3.544  23.206  0.00  0.00    +0.108 A 
BRANCH  24  25
ATOM     25  C   UNL     1       6.137  -3.778  22.010  0.00  0.00    +0.344 C 
ATOM     26  O   UNL     1       5.708  -3.741  20.866  0.00  0.00    -0.245 OA
BRANCH  25  27
ATOM     27  O   UNL     1       7.439  -4.058  22.272  0.00  0.00    -0.477 OA
ATOM     28  H   UNL     1       7.995  -3.991  21.471  0.00  0.00    +0.295 HD
ENDBRANCH  25  27
ENDBRANCH  24  25
ENDBRANCH  18  20
ENDBRANCH   5  16
TORSDOF 6
ENDMDL
MODEL 9
REMARK VINA RESULT:      -6.5      2.077      3.005
REMARK  Name = 
REMARK  7 active torsions:
REMARK  status: ('A' for Active; 'I' for Inactive)
REMARK    1  A    between atoms: C_1  and  O_2
REMARK    2  A    between atoms: O_2  and  C_3
REMARK    3  A    between atoms: C_7  and  C_9
REMARK    4  A    between atoms: C_12  and  N_13
REMARK    5  A    between atoms: C_14  and  C_16
REMARK    6  A    between atoms: C_17  and  C_21
REMARK    7  A    between atoms: C_21  and  O_22
REMARK                            x       y       z     vdW  Elec       q    Type
REMARK                         _______ _______ _______ _____ _____    ______ ____
ROOT
ATOM      1  C   UNL     1       9.393   1.967  24.343  0.00  0.00    -0.015 A 
ATOM      2  C   UNL     1       7.993   1.845  24.280  0.00  0.00    +0.048 A 
ATOM      3  C   UNL     1       7.373   0.606  24.444  0.00  0.00    +0.145 A 
ATOM      4  F   UNL     1       6.038   0.535  24.333  0.00  0.00    -0.204 F 
ATOM      5  C   UNL     1       8.117  -0.557  24.640  0.00  0.00    +0.069 A 
ATOM      6  C   UNL     1       9.497  -0.439  24.781  0.00  0.00    +0.027 A 
ATOM      7  C   UNL     1      10.122   0.805  24.647  0.00  0.00    +0.010 A 
ENDROOT
BRANCH   1  10
ATOM      8  C   UNL     1      10.040   5.679  23.767  0.00  0.00    +0.121 A 
ATOM      9  C   UNL     1       9.426   4.484  24.157  0.00  0.00    +0.054 A 
ATOM     10  C   UNL     1      10.080   3.245  24.037  0.00  0.00    -0.014 A 
ATOM     11  C   UNL     1      11.404   3.258  23.555  0.00  0.00    +0.009 A 
ATOM     12  C   UNL     1      12.037   4.450  23.194  0.00  0.00    +0.004 A 
ATOM     13  C   UNL     1      11.350   5.654  23.293  0.00  0.00    +0.045 A 
BRANCH   8  15
ATOM     14  C   UNL     1       8.063   6.962  24.059  0.00  0.00    +0.277 C 
ATOM     15  O   UNL     1       9.459   6.918  23.790  0.00  0.00    -0.495 OA
ENDBRANCH   8  15
ENDBRANCH   1  10
BRANCH   5  16
ATOM     16  N   UNL     1       7.438  -1.795  24.682  0.00  0.00    -0.279 N 
ATOM     17  H   UNL     1       6.823  -1.918  25.489  0.00  0.00    +0.155 HD
ATOM     18  C   UNL     1       7.433  -2.739  23.680  0.00  0.00    +0.250 C 
ATOM     19  O   UNL     1       7.956  -2.574  22.580  0.00  0.00    -0.270 OA
BRANCH  18  20
ATOM     20  C   UNL     1       6.703  -3.995  23.926  0.00  0.00    +0.058 A 
ATOM     21  C   UNL     1       6.367  -4.398  25.275  0.00  0.00    +0.021 A 
ATOM     22  C   UNL     1       5.605  -5.538  25.334  0.00  0.00    +0.047 A 
ATOM     23  S   UNL     1       5.275  -6.147  23.783  0.00  0.00    -0.090 S 
ATOM     24  C   UNL     1       6.174  -4.896  23.006  0.00  0.00    +0.108 A 
BRANCH  24  25
ATOM     25  C   UNL     1       6.289  -4.922  21.560  0.00  0.00    +0.344 C 
ATOM     26  O   UNL     1       5.681  -4.189  20.793  0.00  0.00    -0.245 OA
BRANCH  25  27
ATOM     27  O   UNL     1       7.153  -5.864  21.107  0.00  0.00    -0.477 OA
ATOM     28  H   UNL     1       7.107  -6.687  21.634  0.00  0.00    +0.295 HD
ENDBRANCH  25  27
ENDBRANCH  24  25
ENDBRANCH  18  20
ENDBRANCH   5  16
TORSDOF 6
ENDMDL
