MODEL 1
REMARK VINA RESULT:      -6.9      0.000      0.000
REMARK  Name = 
REMARK  7 active torsions:
REMARK  status: ('A' for Active; 'I' for Inactive)
REMARK    1  A    between atoms: C_1  and  O_2
REMARK    2  A    between atoms: O_2  and  C_3
REMARK    3  A    between atoms: C_7  and  N_9
REMARK    4  A    between atoms: C_10  and  C_11
REMARK    5  A    between atoms: C_11  and  N_12
REMARK    6  A    between atoms: C_22  and  S_24
REMARK    7  A    between atoms: S_24  and  N_25
REMARK                            x       y       z     vdW  Elec       q    Type
REMARK                         _______ _______ _______ _____ _____    ______ ____
ROOT
ATOM      1  N   UNL     1       8.298  -1.028  24.078  0.00  0.00    -0.174 N 
ATOM      2  S   UNL     1       9.385  -0.138  23.068  0.00  0.00    +0.086 S 
ATOM      3  O   UNL     1       8.882  -0.117  21.711  0.00  0.00    -0.149 OA
ATOM      4  O   UNL     1      10.751  -0.483  23.394  0.00  0.00    -0.149 OA
ATOM      5  C   UNL     1       9.172   1.495  23.638  0.00  0.00    +0.155 A 
ATOM      6  S   UNL     1      10.273   2.707  23.240  0.00  0.00    -0.048 S 
ATOM      7  C   UNL     1       9.352   3.871  24.106  0.00  0.00    +0.145 A 
ATOM      8  C   UNL     1       8.214   3.314  24.671  0.00  0.00    +0.046 A 
ATOM      9  C   UNL     1       8.119   1.925  24.391  0.00  0.00    +0.012 A 
ATOM     10  C   UNL     1       7.084   0.996  24.722  0.00  0.00    +0.032 C 
ATOM     11  C   UNL     1       7.072  -0.351  24.537  0.00  0.00    +0.049 C 
ENDROOT
BRANCH   1  14
ATOM     12  C   UNL     1       7.176  -4.222  22.510  0.00  0.00    +0.122 A 
ATOM     13  C   UNL     1       7.435  -2.859  22.698  0.00  0.00    +0.070 A 
ATOM     14  C   UNL     1       8.304  -2.427  23.714  0.00  0.00    +0.060 A 
ATOM     15  C   UNL     1       8.894  -3.378  24.550  0.00  0.00    +0.025 A 
ATOM     16  C   UNL     1       8.612  -4.734  24.386  0.00  0.00    +0.005 A 
ATOM     17  C   UNL     1       7.742  -5.154  23.379  0.00  0.00    +0.046 A 
BRANCH  12  19
ATOM     18  C   UNL     1       6.276  -5.915  21.128  0.00  0.00    +0.277 C 
ATOM     19  O   UNL     1       6.312  -4.537  21.494  0.00  0.00    -0.495 OA
ENDBRANCH  12  19
ENDBRANCH   1  14
BRANCH   7  20
ATOM     20  S   UNL     1      10.034   5.509  24.134  0.00  0.00    +0.062 S 
ATOM     21  O   UNL     1      11.392   5.347  23.682  0.00  0.00    -0.153 OA
ATOM     22  O   UNL     1       9.685   6.061  25.420  0.00  0.00    -0.153 OA
BRANCH  20  23
ATOM     23  N   UNL     1       9.215   6.378  22.954  0.00  0.00    -0.203 NA
ATOM     24  H   UNL     1       8.675   5.771  22.340  0.00  0.00    +0.144 HD
ATOM     25  H   UNL     1       8.693   7.162  23.347  0.00  0.00    +0.144 HD
ENDBRANCH  20  23
ENDBRANCH   7  20
BRANCH  11  26
ATOM     26  C   UNL     1       5.799  -1.127  24.886  0.00  0.00    +0.137 C 
BRANCH  26  27
ATOM     27  N   UNL     1       5.549  -1.363  26.310  0.00  0.00    -0.293 NA
ATOM     28  C   UNL     1       6.205  -2.604  26.782  0.00  0.00    +0.113 C 
ATOM     29  C   UNL     1       5.454  -3.906  26.451  0.00  0.00    +0.175 C 
ATOM     30  O   UNL     1       4.101  -3.858  26.916  0.00  0.00    -0.377 OA
ATOM     31  C   UNL     1       3.411  -2.745  26.339  0.00  0.00    +0.175 C 
ATOM     32  C   UNL     1       4.114  -1.415  26.664  0.00  0.00    +0.113 C 
ENDBRANCH  26  27
ENDBRANCH  11  26
TORSDOF 6
ENDMDL
MODEL 2
REMARK VINA RESULT:      -6.6      2.883      7.645
REMARK  Name = 
REMARK  7 active torsions:
REMARK  status: ('A' for Active; 'I' for Inactive)
REMARK    1  A    between atoms: C_1  and  O_2
REMARK    2  A    between atoms: O_2  and  C_3
REMARK    3  A    between atoms: C_7  and  N_9
REMARK    4  A    between atoms: C_10  and  C_11
REMARK    5  A    between atoms: C_11  and  N_12
REMARK    6  A    between atoms: C_22  and  S_24
REMARK    7  A    between atoms: S_24  and  N_25
REMARK                            x       y       z     vdW  Elec       q    Type
REMARK                         _______ _______ _______ _____ _____    ______ ____
ROOT
ATOM      1  N   UNL     1       8.209   1.768  24.066  0.00  0.00    -0.174 N 
ATOM      2  S   UNL     1       9.328   0.633  23.394  0.00  0.00    +0.086 S 
ATOM      3  O   UNL     1      10.669   0.950  23.838  0.00  0.00    -0.149 OA
ATOM      4  O   UNL     1       8.999   0.382  22.007  0.00  0.00    -0.149 OA
ATOM      5  C   UNL     1       8.923  -0.837  24.237  0.00  0.00    +0.155 A 
ATOM      6  S   UNL     1       9.468  -2.335  23.689  0.00  0.00    -0.048 S 
ATOM      7  C   UNL     1       8.705  -3.130  25.008  0.00  0.00    +0.145 A 
ATOM      8  C   UNL     1       8.060  -2.234  25.850  0.00  0.00    +0.046 A 
ATOM      9  C   UNL     1       8.195  -0.897  25.389  0.00  0.00    +0.012 A 
ATOM     10  C   UNL     1       7.748   0.323  25.986  0.00  0.00    +0.032 C 
ATOM     11  C   UNL     1       7.794   1.579  25.468  0.00  0.00    +0.049 C 
ENDROOT
BRANCH   1  14
ATOM     12  C   UNL     1       9.574   5.223  23.729  0.00  0.00    +0.122 A 
ATOM     13  C   UNL     1       9.493   3.853  24.004  0.00  0.00    +0.070 A 
ATOM     14  C   UNL     1       8.428   3.082  23.508  0.00  0.00    +0.060 A 
ATOM     15  C   UNL     1       7.436   3.708  22.749  0.00  0.00    +0.025 A 
ATOM     16  C   UNL     1       7.497   5.080  22.500  0.00  0.00    +0.005 A 
ATOM     17  C   UNL     1       8.554   5.838  23.004  0.00  0.00    +0.046 A 
BRANCH  12  19
ATOM     18  C   UNL     1      11.905   5.601  23.647  0.00  0.00    +0.277 C 
ATOM     19  O   UNL     1      10.650   5.882  24.263  0.00  0.00    -0.495 OA
ENDBRANCH  12  19
ENDBRANCH   1  14
BRANCH   7  20
ATOM     20  S   UNL     1       8.860  -4.897  25.020  0.00  0.00    +0.062 S 
ATOM     21  O   UNL     1       8.420  -5.311  23.713  0.00  0.00    -0.153 OA
ATOM     22  O   UNL     1       8.239  -5.340  26.245  0.00  0.00    -0.153 OA
BRANCH  20  23
ATOM     23  N   UNL     1      10.503  -5.223  25.122  0.00  0.00    -0.203 NA
ATOM     24  H   UNL     1      10.813  -5.316  26.088  0.00  0.00    +0.144 HD
ATOM     25  H   UNL     1      10.782  -5.988  24.507  0.00  0.00    +0.144 HD
ENDBRANCH  20  23
ENDBRANCH   7  20
BRANCH  11  26
ATOM     26  C   UNL     1       7.339   2.750  26.344  0.00  0.00    +0.137 C 
BRANCH  26  27
ATOM     27  N   UNL     1       5.929   2.756  26.744  0.00  0.00    -0.293 NA
ATOM     28  C   UNL     1       5.045   3.159  25.627  0.00  0.00    +0.113 C 
ATOM     29  C   UNL     1       4.963   4.676  25.376  0.00  0.00    +0.175 C 
ATOM     30  O   UNL     1       4.603   5.381  26.568  0.00  0.00    -0.377 OA
ATOM     31  C   UNL     1       5.545   5.118  27.612  0.00  0.00    +0.175 C 
ATOM     32  C   UNL     1       5.645   3.612  27.915  0.00  0.00    +0.113 C 
ENDBRANCH  26  27
ENDBRANCH  11  26
TORSDOF 6
ENDMDL
MODEL 3
REMARK VINA RESULT:      -6.4      2.996      7.804
REMARK  Name = 
REMARK  7 active torsions:
REMARK  status: ('A' for Active; 'I' for Inactive)
REMARK    1  A    between atoms: C_1  and  O_2
REMARK    2  A    between atoms: O_2  and  C_3
REMARK    3  A    between atoms: C_7  and  N_9
REMARK    4  A    between atoms: C_10  and  C_11
REMARK    5  A    between atoms: C_11  and  N_12
REMARK    6  A    between atoms: C_22  and  S_24
REMARK    7  A    between atoms: S_24  and  N_25
REMARK                            x       y       z     vdW  Elec       q    Type
REMARK                         _______ _______ _______ _____ _____    ______ ____
ROOT
ATOM      1  N   UNL     1       8.800   1.764  23.136  0.00  0.00    -0.174 N 
ATOM      2  S   UNL     1       9.571   0.622  24.182  0.00  0.00    +0.086 S 
ATOM      3  O   UNL     1       9.247   0.927  25.560  0.00  0.00    -0.149 OA
ATOM      4  O   UNL     1      10.922   0.376  23.728  0.00  0.00    -0.149 OA
ATOM      5  C   UNL     1       8.695  -0.846  23.842  0.00  0.00    +0.155 A 
ATOM      6  S   UNL     1       9.291  -2.347  24.324  0.00  0.00    -0.048 S 
ATOM      7  C   UNL     1       7.909  -3.138  23.676  0.00  0.00    +0.145 A 
ATOM      8  C   UNL     1       7.013  -2.239  23.116  0.00  0.00    +0.046 A 
ATOM      9  C   UNL     1       7.483  -0.902  23.220  0.00  0.00    +0.012 A 
ATOM     10  C   UNL     1       6.847   0.320  22.838  0.00  0.00    +0.032 C 
ATOM     11  C   UNL     1       7.367   1.577  22.847  0.00  0.00    +0.049 C 
ENDROOT
BRANCH   1  14
ATOM     12  C   UNL     1      11.415   4.403  23.479  0.00  0.00    +0.122 A 
ATOM     13  C   UNL     1      10.741   3.255  23.045  0.00  0.00    +0.070 A 
ATOM     14  C   UNL     1       9.374   3.078  23.315  0.00  0.00    +0.060 A 
ATOM     15  C   UNL     1       8.697   4.059  24.044  0.00  0.00    +0.025 A 
ATOM     16  C   UNL     1       9.372   5.189  24.506  0.00  0.00    +0.005 A 
ATOM     17  C   UNL     1      10.732   5.352  24.239  0.00  0.00    +0.046 A 
BRANCH  12  19
ATOM     18  C   UNL     1      13.120   5.576  22.339  0.00  0.00    +0.277 C 
ATOM     19  O   UNL     1      12.747   4.475  23.165  0.00  0.00    -0.495 OA
ENDBRANCH  12  19
ENDBRANCH   1  14
BRANCH   7  20
ATOM     20  S   UNL     1       7.913  -4.906  23.817  0.00  0.00    +0.062 S 
ATOM     21  O   UNL     1       9.188  -5.224  24.407  0.00  0.00    -0.153 OA
ATOM     22  O   UNL     1       7.485  -5.407  22.533  0.00  0.00    -0.153 OA
BRANCH  20  23
ATOM     23  N   UNL     1       6.730  -5.289  24.945  0.00  0.00    -0.203 NA
ATOM     24  H   UNL     1       6.180  -4.474  25.210  0.00  0.00    +0.144 HD
ATOM     25  H   UNL     1       6.182  -6.103  24.667  0.00  0.00    +0.144 HD
ENDBRANCH  20  23
ENDBRANCH   7  20
BRANCH  11  26
ATOM     26  C   UNL     1       6.453   2.750  22.481  0.00  0.00    +0.137 C 
BRANCH  26  27
ATOM     27  N   UNL     1       5.114   2.745  23.077  0.00  0.00    -0.293 NA
ATOM     28  C   UNL     1       4.202   3.680  22.379  0.00  0.00    +0.113 C 
ATOM     29  C   UNL     1       4.355   5.159  22.777  0.00  0.00    +0.175 C 
ATOM     30  O   UNL     1       4.246   5.331  24.193  0.00  0.00    -0.377 OA
ATOM     31  C   UNL     1       5.232   4.546  24.871  0.00  0.00    +0.175 C 
ATOM     32  C   UNL     1       5.103   3.052  24.523  0.00  0.00    +0.113 C 
ENDBRANCH  26  27
ENDBRANCH  11  26
TORSDOF 6
ENDMDL
MODEL 4
REMARK VINA RESULT:      -6.4      3.658      5.876
REMARK  Name = 
REMARK  7 active torsions:
REMARK  status: ('A' for Active; 'I' for Inactive)
REMARK    1  A    between atoms: C_1  and  O_2
REMARK    2  A    between atoms: O_2  and  C_3
REMARK    3  A    between atoms: C_7  and  N_9
REMARK    4  A    between atoms: C_10  and  C_11
REMARK    5  A    between atoms: C_11  and  N_12
REMARK    6  A    between atoms: C_22  and  S_24
REMARK    7  A    between atoms: S_24  and  N_25
REMARK                            x       y       z     vdW  Elec       q    Type
REMARK                         _______ _______ _______ _____ _____    ______ ____
ROOT
ATOM      1  N   UNL     1       5.137  -5.111  24.996  0.00  0.00    -0.174 N 
ATOM      2  S   UNL     1       5.029  -3.726  23.965  0.00  0.00    +0.086 S 
ATOM      3  O   UNL     1       4.307  -2.670  24.643  0.00  0.00    -0.149 OA
ATOM      4  O   UNL     1       4.726  -4.143  22.614  0.00  0.00    -0.149 OA
ATOM      5  C   UNL     1       6.679  -3.167  23.917  0.00  0.00    +0.155 A 
ATOM      6  S   UNL     1       7.189  -2.059  22.754  0.00  0.00    -0.048 S 
ATOM      7  C   UNL     1       8.776  -2.049  23.414  0.00  0.00    +0.145 A 
ATOM      8  C   UNL     1       8.881  -2.882  24.520  0.00  0.00    +0.046 A 
ATOM      9  C   UNL     1       7.649  -3.529  24.804  0.00  0.00    +0.012 A 
ATOM     10  C   UNL     1       7.306  -4.405  25.881  0.00  0.00    +0.032 C 
ATOM     11  C   UNL     1       6.150  -5.097  26.066  0.00  0.00    +0.049 C 
ENDROOT
BRANCH   1  14
ATOM     12  C   UNL     1       2.362  -7.593  24.765  0.00  0.00    +0.122 A 
ATOM     13  C   UNL     1       3.648  -7.053  24.884  0.00  0.00    +0.070 A 
ATOM     14  C   UNL     1       3.830  -5.695  25.194  0.00  0.00    +0.060 A 
ATOM     15  C   UNL     1       2.706  -4.883  25.365  0.00  0.00    +0.025 A 
ATOM     16  C   UNL     1       1.424  -5.411  25.215  0.00  0.00    +0.005 A 
ATOM     17  C   UNL     1       1.252  -6.760  24.899  0.00  0.00    +0.046 A 
BRANCH  12  19
ATOM     18  C   UNL     1       1.300  -9.667  25.161  0.00  0.00    +0.277 C 
ATOM     19  O   UNL     1       2.295  -8.928  24.457  0.00  0.00    -0.495 OA
ENDBRANCH  12  19
ENDBRANCH   1  14
BRANCH   7  20
ATOM     20  S   UNL     1       9.947  -1.028  22.559  0.00  0.00    +0.062 S 
ATOM     21  O   UNL     1      11.099  -1.871  22.370  0.00  0.00    -0.153 OA
ATOM     22  O   UNL     1       9.986   0.220  23.281  0.00  0.00    -0.153 OA
BRANCH  20  23
ATOM     23  N   UNL     1       9.290  -0.731  21.042  0.00  0.00    -0.203 NA
ATOM     24  H   UNL     1       9.179   0.265  20.865  0.00  0.00    +0.144 HD
ATOM     25  H   UNL     1       9.775  -1.246  20.306  0.00  0.00    +0.144 HD
ENDBRANCH  20  23
ENDBRANCH   7  20
BRANCH  11  26
ATOM     26  C   UNL     1       5.978  -5.901  27.358  0.00  0.00    +0.137 C 
BRANCH  26  27
ATOM     27  N   UNL     1       5.925  -5.132  28.604  0.00  0.00    -0.293 NA
ATOM     28  C   UNL     1       5.784  -6.014  29.785  0.00  0.00    +0.113 C 
ATOM     29  C   UNL     1       4.355  -6.518  30.055  0.00  0.00    +0.175 C 
ATOM     30  O   UNL     1       3.427  -5.432  30.139  0.00  0.00    -0.377 OA
ATOM     31  C   UNL     1       3.446  -4.662  28.933  0.00  0.00    +0.175 C 
ATOM     32  C   UNL     1       4.853  -4.115  28.633  0.00  0.00    +0.113 C 
ENDBRANCH  26  27
ENDBRANCH  11  26
TORSDOF 6
ENDMDL
MODEL 5
REMARK VINA RESULT:      -6.4      3.166      7.487
REMARK  Name = 
REMARK  7 active torsions:
REMARK  status: ('A' for Active; 'I' for Inactive)
REMARK    1  A    between atoms: C_1  and  O_2
REMARK    2  A    between atoms: O_2  and  C_3
REMARK    3  A    between atoms: C_7  and  N_9
REMARK    4  A    between atoms: C_10  and  C_11
REMARK    5  A    between atoms: C_11  and  N_12
REMARK    6  A    between atoms: C_22  and  S_24
REMARK    7  A    between atoms: S_24  and  N_25
REMARK                            x       y       z     vdW  Elec       q    Type
REMARK                         _______ _______ _______ _____ _____    ______ ____
ROOT
ATOM      1  N   UNL     1       7.995  -0.322  24.705  0.00  0.00    -0.174 N 
ATOM      2  S   UNL     1       8.334  -1.565  23.550  0.00  0.00    +0.086 S 
ATOM      3  O   UNL     1       9.557  -2.248  23.915  0.00  0.00    -0.149 OA
ATOM      4  O   UNL     1       8.076  -1.076  22.213  0.00  0.00    -0.149 OA
ATOM      5  C   UNL     1       7.073  -2.725  23.868  0.00  0.00    +0.155 A 
ATOM      6  S   UNL     1       6.724  -3.955  22.770  0.00  0.00    -0.048 S 
ATOM      7  C   UNL     1       5.504  -4.578  23.809  0.00  0.00    +0.145 A 
ATOM      8  C   UNL     1       5.397  -3.842  24.980  0.00  0.00    +0.046 A 
ATOM      9  C   UNL     1       6.319  -2.762  25.004  0.00  0.00    +0.012 A 
ATOM     10  C   UNL     1       6.585  -1.812  26.038  0.00  0.00    +0.032 C 
ATOM     11  C   UNL     1       7.395  -0.721  25.991  0.00  0.00    +0.049 C 
ENDROOT
BRANCH   1  14
ATOM     12  C   UNL     1       9.523   2.955  23.787  0.00  0.00    +0.122 A 
ATOM     13  C   UNL     1       8.579   1.997  24.175  0.00  0.00    +0.070 A 
ATOM     14  C   UNL     1       8.984   0.727  24.620  0.00  0.00    +0.060 A 
ATOM     15  C   UNL     1      10.348   0.426  24.651  0.00  0.00    +0.025 A 
ATOM     16  C   UNL     1      11.290   1.366  24.235  0.00  0.00    +0.005 A 
ATOM     17  C   UNL     1      10.877   2.622  23.787  0.00  0.00    +0.046 A 
BRANCH  12  19
ATOM     18  C   UNL     1       8.070   4.762  24.241  0.00  0.00    +0.277 C 
ATOM     19  O   UNL     1       9.022   4.159  23.367  0.00  0.00    -0.495 OA
ENDBRANCH  12  19
ENDBRANCH   1  14
BRANCH   7  20
ATOM     20  S   UNL     1       4.622  -5.984  23.183  0.00  0.00    +0.062 S 
ATOM     21  O   UNL     1       3.316  -5.478  22.849  0.00  0.00    -0.153 OA
ATOM     22  O   UNL     1       4.842  -7.045  24.135  0.00  0.00    -0.153 OA
BRANCH  20  23
ATOM     23  N   UNL     1       5.376  -6.410  21.745  0.00  0.00    -0.203 NA
ATOM     24  H   UNL     1       6.360  -6.632  21.884  0.00  0.00    +0.144 HD
ATOM     25  H   UNL     1       4.848  -7.112  21.227  0.00  0.00    +0.144 HD
ENDBRANCH  20  23
ENDBRANCH   7  20
BRANCH  11  26
ATOM     26  C   UNL     1       7.595   0.099  27.268  0.00  0.00    +0.137 C 
BRANCH  26  27
ATOM     27  N   UNL     1       6.423   0.821  27.770  0.00  0.00    -0.293 NA
ATOM     28  C   UNL     1       6.198   2.082  27.026  0.00  0.00    +0.113 C 
ATOM     29  C   UNL     1       7.089   3.261  27.457  0.00  0.00    +0.175 C 
ATOM     30  O   UNL     1       6.994   3.497  28.865  0.00  0.00    -0.377 OA
ATOM     31  C   UNL     1       7.362   2.324  29.597  0.00  0.00    +0.175 C 
ATOM     32  C   UNL     1       6.480   1.121  29.216  0.00  0.00    +0.113 C 
ENDBRANCH  26  27
ENDBRANCH  11  26
TORSDOF 6
ENDMDL
MODEL 6
REMARK VINA RESULT:      -6.3      2.398      3.783
REMARK  Name = 
REMARK  7 active torsions:
REMARK  status: ('A' for Active; 'I' for Inactive)
REMARK    1  A    between atoms: C_1  and  O_2
REMARK    2  A    between atoms: O_2  and  C_3
REMARK    3  A    between atoms: C_7  and  N_9
REMARK    4  A    between atoms: C_10  and  C_11
REMARK    5  A    between atoms: C_11  and  N_12
REMARK    6  A    between atoms: C_22  and  S_24
REMARK    7  A    between atoms: S_24  and  N_25
REMARK                            x       y       z     vdW  Elec       q    Type
REMARK                         _______ _______ _______ _____ _____    ______ ____
ROOT
ATOM      1  N   UNL     1       6.887  -1.255  25.285  0.00  0.00    -0.174 N 
ATOM      2  S   UNL     1       7.587   0.088  26.122  0.00  0.00    +0.086 S 
ATOM      3  O   UNL     1       8.987  -0.174  26.377  0.00  0.00    -0.149 OA
ATOM      4  O   UNL     1       6.676   0.558  27.143  0.00  0.00    -0.149 OA
ATOM      5  C   UNL     1       7.590   1.330  24.899  0.00  0.00    +0.155 A 
ATOM      6  S   UNL     1       7.828   2.948  25.302  0.00  0.00    -0.048 S 
ATOM      7  C   UNL     1       7.724   3.408  23.649  0.00  0.00    +0.145 A 
ATOM      8  C   UNL     1       7.523   2.313  22.820  0.00  0.00    +0.046 A 
ATOM      9  C   UNL     1       7.447   1.104  23.562  0.00  0.00    +0.012 A 
ATOM     10  C   UNL     1       7.317  -0.243  23.100  0.00  0.00    +0.032 C 
ATOM     11  C   UNL     1       7.135  -1.371  23.837  0.00  0.00    +0.049 C 
ENDROOT
BRANCH   1  14
ATOM     12  C   UNL     1       7.767  -4.616  26.644  0.00  0.00    +0.122 A 
ATOM     13  C   UNL     1       7.895  -3.344  26.073  0.00  0.00    +0.070 A 
ATOM     14  C   UNL     1       6.843  -2.416  26.145  0.00  0.00    +0.060 A 
ATOM     15  C   UNL     1       5.655  -2.787  26.779  0.00  0.00    +0.025 A 
ATOM     16  C   UNL     1       5.513  -4.065  27.321  0.00  0.00    +0.005 A 
ATOM     17  C   UNL     1       6.560  -4.983  27.238  0.00  0.00    +0.046 A 
BRANCH  12  19
ATOM     18  C   UNL     1       9.478  -5.435  25.234  0.00  0.00    +0.277 C 
ATOM     19  O   UNL     1       8.851  -5.446  26.515  0.00  0.00    -0.495 OA
ENDBRANCH  12  19
ENDBRANCH   1  14
BRANCH   7  20
ATOM     20  S   UNL     1       7.860   5.148  23.336  0.00  0.00    +0.062 S 
ATOM     21  O   UNL     1       9.275   5.414  23.350  0.00  0.00    -0.153 OA
ATOM     22  O   UNL     1       6.923   5.785  24.230  0.00  0.00    -0.153 OA
BRANCH  20  23
ATOM     23  N   UNL     1       7.322   5.385  21.763  0.00  0.00    -0.203 NA
ATOM     24  H   UNL     1       7.316   6.371  21.509  0.00  0.00    +0.144 HD
ATOM     25  H   UNL     1       7.797   4.774  21.098  0.00  0.00    +0.144 HD
ENDBRANCH  20  23
ENDBRANCH   7  20
BRANCH  11  26
ATOM     26  C   UNL     1       7.120  -2.722  23.117  0.00  0.00    +0.137 C 
BRANCH  26  27
ATOM     27  N   UNL     1       5.875  -3.086  22.437  0.00  0.00    -0.293 NA
ATOM     28  C   UNL     1       4.939  -3.786  23.348  0.00  0.00    +0.113 C 
ATOM     29  C   UNL     1       5.238  -5.280  23.566  0.00  0.00    +0.175 C 
ATOM     30  O   UNL     1       5.328  -5.980  22.321  0.00  0.00    -0.377 OA
ATOM     31  C   UNL     1       6.343  -5.403  21.493  0.00  0.00    +0.175 C 
ATOM     32  C   UNL     1       6.074  -3.911  21.227  0.00  0.00    +0.113 C 
ENDBRANCH  26  27
ENDBRANCH  11  26
TORSDOF 6
ENDMDL
MODEL 7
REMARK VINA RESULT:      -6.3      3.452      7.710
REMARK  Name = 
REMARK  7 active torsions:
REMARK  status: ('A' for Active; 'I' for Inactive)
REMARK    1  A    between atoms: C_1  and  O_2
REMARK    2  A    between atoms: O_2  and  C_3
REMARK    3  A    between atoms: C_7  and  N_9
REMARK    4  A    between atoms: C_10  and  C_11
REMARK    5  A    between atoms: C_11  and  N_12
REMARK    6  A    between atoms: C_22  and  S_24
REMARK    7  A    between atoms: S_24  and  N_25
REMARK                            x       y       z     vdW  Elec       q    Type
REMARK                         _______ _______ _______ _____ _____    ______ ____
ROOT
ATOM      1  N   UNL     1       7.546  -2.089  24.416  0.00  0.00    -0.174 N 
ATOM      2  S   UNL     1       8.273  -3.267  25.454  0.00  0.00    +0.086 S 
ATOM      3  O   UNL     1       9.068  -2.600  26.464  0.00  0.00    -0.149 OA
ATOM      4  O   UNL     1       8.771  -4.374  24.668  0.00  0.00    -0.149 OA
ATOM      5  C   UNL     1       6.901  -3.897  26.323  0.00  0.00    +0.155 A 
ATOM      6  S   UNL     1       7.009  -5.333  27.198  0.00  0.00    -0.048 S 
ATOM      7  C   UNL     1       5.373  -5.184  27.705  0.00  0.00    +0.145 A 
ATOM      8  C   UNL     1       4.781  -4.032  27.207  0.00  0.00    +0.046 A 
ATOM      9  C   UNL     1       5.683  -3.288  26.401  0.00  0.00    +0.012 A 
ATOM     10  C   UNL     1       5.503  -2.023  25.760  0.00  0.00    +0.032 C 
ATOM     11  C   UNL     1       6.346  -1.387  24.903  0.00  0.00    +0.049 C 
ENDROOT
BRANCH   1  14
ATOM     12  C   UNL     1      10.050   0.504  23.455  0.00  0.00    +0.122 A 
ATOM     13  C   UNL     1       9.286  -0.374  24.232  0.00  0.00    +0.070 A 
ATOM     14  C   UNL     1       8.557  -1.415  23.633  0.00  0.00    +0.060 A 
ATOM     15  C   UNL     1       8.590  -1.552  22.243  0.00  0.00    +0.025 A 
ATOM     16  C   UNL     1       9.325  -0.659  21.463  0.00  0.00    +0.005 A 
ATOM     17  C   UNL     1      10.039   0.377  22.066  0.00  0.00    +0.046 A 
BRANCH  12  19
ATOM     18  C   UNL     1      10.615   2.795  23.581  0.00  0.00    +0.277 C 
ATOM     19  O   UNL     1      10.720   1.486  24.137  0.00  0.00    -0.495 OA
ENDBRANCH  12  19
ENDBRANCH   1  14
BRANCH   7  20
ATOM     20  S   UNL     1       4.768  -6.512  28.714  0.00  0.00    +0.062 S 
ATOM     21  O   UNL     1       5.774  -7.537  28.611  0.00  0.00    -0.153 OA
ATOM     22  O   UNL     1       3.392  -6.707  28.328  0.00  0.00    -0.153 OA
BRANCH  20  23
ATOM     23  N   UNL     1       4.790  -5.947  30.295  0.00  0.00    -0.203 NA
ATOM     24  H   UNL     1       5.595  -6.296  30.811  0.00  0.00    +0.144 HD
ATOM     25  H   UNL     1       4.654  -4.937  30.345  0.00  0.00    +0.144 HD
ENDBRANCH  20  23
ENDBRANCH   7  20
BRANCH  11  26
ATOM     26  C   UNL     1       5.974   0.017  24.418  0.00  0.00    +0.137 C 
BRANCH  26  27
ATOM     27  N   UNL     1       5.542   0.970  25.444  0.00  0.00    -0.293 NA
ATOM     28  C   UNL     1       4.884   2.155  24.848  0.00  0.00    +0.113 C 
ATOM     29  C   UNL     1       5.844   3.220  24.287  0.00  0.00    +0.175 C 
ATOM     30  O   UNL     1       6.797   3.630  25.271  0.00  0.00    -0.377 OA
ATOM     31  C   UNL     1       7.548   2.507  25.742  0.00  0.00    +0.175 C 
ATOM     32  C   UNL     1       6.631   1.423  26.335  0.00  0.00    +0.113 C 
ENDBRANCH  26  27
ENDBRANCH  11  26
TORSDOF 6
ENDMDL
MODEL 8
REMARK VINA RESULT:      -6.2      3.140      7.907
REMARK  Name = 
REMARK  7 active torsions:
REMARK  status: ('A' for Active; 'I' for Inactive)
REMARK    1  A    between atoms: C_1  and  O_2
REMARK    2  A    between atoms: O_2  and  C_3
REMARK    3  A    between atoms: C_7  and  N_9
REMARK    4  A    between atoms: C_10  and  C_11
REMARK    5  A    between atoms: C_11  and  N_12
REMARK    6  A    between atoms: C_22  and  S_24
REMARK    7  A    between atoms: S_24  and  N_25
REMARK                            x       y       z     vdW  Elec       q    Type
REMARK                         _______ _______ _______ _____ _____    ______ ____
ROOT
ATOM      1  N   UNL     1       8.544   1.880  23.811  0.00  0.00    -0.174 N 
ATOM      2  S   UNL     1       9.000   0.582  24.859  0.00  0.00    +0.086 S 
ATOM      3  O   UNL     1       8.304   0.710  26.123  0.00  0.00    -0.149 OA
ATOM      4  O   UNL     1      10.425   0.353  24.767  0.00  0.00    -0.149 OA
ATOM      5  C   UNL     1       8.260  -0.796  24.091  0.00  0.00    +0.155 A 
ATOM      6  S   UNL     1       8.706  -2.368  24.505  0.00  0.00    -0.048 S 
ATOM      7  C   UNL     1       7.563  -3.017  23.397  0.00  0.00    +0.145 A 
ATOM      8  C   UNL     1       6.853  -2.020  22.742  0.00  0.00    +0.046 A 
ATOM      9  C   UNL     1       7.269  -0.727  23.157  0.00  0.00    +0.012 A 
ATOM     10  C   UNL     1       6.759   0.557  22.788  0.00  0.00    +0.032 C 
ATOM     11  C   UNL     1       7.249   1.783  23.115  0.00  0.00    +0.049 C 
ENDROOT
BRANCH   1  14
ATOM     12  C   UNL     1       8.604   5.074  25.739  0.00  0.00    +0.122 A 
ATOM     13  C   UNL     1       8.366   3.737  25.400  0.00  0.00    +0.070 A 
ATOM     14  C   UNL     1       9.040   3.138  24.323  0.00  0.00    +0.060 A 
ATOM     15  C   UNL     1       9.941   3.903  23.579  0.00  0.00    +0.025 A 
ATOM     16  C   UNL     1      10.157   5.245  23.894  0.00  0.00    +0.005 A 
ATOM     17  C   UNL     1       9.477   5.834  24.961  0.00  0.00    +0.046 A 
BRANCH  12  19
ATOM     18  C   UNL     1       6.824   4.730  27.255  0.00  0.00    +0.277 C 
ATOM     19  O   UNL     1       7.892   5.562  26.804  0.00  0.00    -0.495 OA
ENDBRANCH  12  19
ENDBRANCH   1  14
BRANCH   7  20
ATOM     20  S   UNL     1       7.535  -4.787  23.286  0.00  0.00    +0.062 S 
ATOM     21  O   UNL     1       8.698  -5.218  24.020  0.00  0.00    -0.153 OA
ATOM     22  O   UNL     1       7.317  -5.093  21.894  0.00  0.00    -0.153 OA
BRANCH  20  23
ATOM     23  N   UNL     1       6.185  -5.290  24.148  0.00  0.00    -0.203 NA
ATOM     24  H   UNL     1       5.985  -4.674  24.934  0.00  0.00    +0.144 HD
ATOM     25  H   UNL     1       5.389  -5.480  23.539  0.00  0.00    +0.144 HD
ENDBRANCH  20  23
ENDBRANCH   7  20
BRANCH  11  26
ATOM     26  C   UNL     1       6.467   3.024  22.678  0.00  0.00    +0.137 C 
BRANCH  26  27
ATOM     27  N   UNL     1       5.436   3.505  23.601  0.00  0.00    -0.293 NA
ATOM     28  C   UNL     1       4.088   3.033  23.208  0.00  0.00    +0.113 C 
ATOM     29  C   UNL     1       3.422   3.833  22.074  0.00  0.00    +0.175 C 
ATOM     30  O   UNL     1       3.385   5.231  22.376  0.00  0.00    -0.377 OA
ATOM     31  C   UNL     1       4.706   5.730  22.605  0.00  0.00    +0.175 C 
ATOM     32  C   UNL     1       5.405   4.975  23.749  0.00  0.00    +0.113 C 
ENDBRANCH  26  27
ENDBRANCH  11  26
TORSDOF 6
ENDMDL
MODEL 9
REMARK VINA RESULT:      -6.2      3.732      7.881
REMARK  Name = 
REMARK  7 active torsions:
REMARK  status: ('A' for Active; 'I' for Inactive)
REMARK    1  A    between atoms: C_1  and  O_2
REMARK    2  A    between atoms: O_2  and  C_3
REMARK    3  A    between atoms: C_7  and  N_9
REMARK    4  A    between atoms: C_10  and  C_11
REMARK    5  A    between atoms: C_11  and  N_12
REMARK    6  A    between atoms: C_22  and  S_24
REMARK    7  A    between atoms: S_24  and  N_25
REMARK                            x       y       z     vdW  Elec       q    Type
REMARK                         _______ _______ _______ _____ _____    ______ ____
ROOT
ATOM      1  N   UNL     1       6.626  -1.941  23.696  0.00  0.00    -0.174 N 
ATOM      2  S   UNL     1       6.598  -3.451  22.853  0.00  0.00    +0.086 S 
ATOM      3  O   UNL     1       7.786  -4.212  23.177  0.00  0.00    -0.149 OA
ATOM      4  O   UNL     1       6.143  -3.246  21.495  0.00  0.00    -0.149 OA
ATOM      5  C   UNL     1       5.303  -4.301  23.651  0.00  0.00    +0.155 A 
ATOM      6  S   UNL     1       4.616  -5.680  22.969  0.00  0.00    -0.048 S 
ATOM      7  C   UNL     1       3.558  -5.855  24.313  0.00  0.00    +0.145 A 
ATOM      8  C   UNL     1       3.759  -4.864  25.262  0.00  0.00    +0.046 A 
ATOM      9  C   UNL     1       4.782  -3.962  24.865  0.00  0.00    +0.012 A 
ATOM     10  C   UNL     1       5.344  -2.852  25.570  0.00  0.00    +0.032 C 
ATOM     11  C   UNL     1       6.245  -1.939  25.120  0.00  0.00    +0.049 C 
ENDROOT
BRANCH   1  14
ATOM     12  C   UNL     1       8.281   0.909  21.948  0.00  0.00    +0.122 A 
ATOM     13  C   UNL     1       7.365   0.178  22.715  0.00  0.00    +0.070 A 
ATOM     14  C   UNL     1       7.690  -1.102  23.192  0.00  0.00    +0.060 A 
ATOM     15  C   UNL     1       8.936  -1.647  22.874  0.00  0.00    +0.025 A 
ATOM     16  C   UNL     1       9.838  -0.935  22.084  0.00  0.00    +0.005 A 
ATOM     17  C   UNL     1       9.504   0.334  21.607  0.00  0.00    +0.046 A 
BRANCH  12  19
ATOM     18  C   UNL     1       7.790   3.142  22.548  0.00  0.00    +0.277 C 
ATOM     19  O   UNL     1       7.864   2.146  21.529  0.00  0.00    -0.495 OA
ENDBRANCH  12  19
ENDBRANCH   1  14
BRANCH   7  20
ATOM     20  S   UNL     1       2.423  -7.214  24.211  0.00  0.00    +0.062 S 
ATOM     21  O   UNL     1       1.199  -6.713  24.782  0.00  0.00    -0.153 OA
ATOM     22  O   UNL     1       3.129  -8.360  24.730  0.00  0.00    -0.153 OA
BRANCH  20  23
ATOM     23  N   UNL     1       2.143  -7.472  22.576  0.00  0.00    -0.203 NA
ATOM     24  H   UNL     1       2.312  -6.632  22.025  0.00  0.00    +0.144 HD
ATOM     25  H   UNL     1       2.613  -8.310  22.233  0.00  0.00    +0.144 HD
ENDBRANCH  20  23
ENDBRANCH   7  20
BRANCH  11  26
ATOM     26  C   UNL     1       6.776  -0.889  26.101  0.00  0.00    +0.137 C 
BRANCH  26  27
ATOM     27  N   UNL     1       5.816   0.115  26.565  0.00  0.00    -0.293 NA
ATOM     28  C   UNL     1       6.016   1.418  25.887  0.00  0.00    +0.113 C 
ATOM     29  C   UNL     1       7.162   2.276  26.452  0.00  0.00    +0.175 C 
ATOM     30  O   UNL     1       7.019   2.472  27.862  0.00  0.00    -0.377 OA
ATOM     31  C   UNL     1       6.981   1.214  28.543  0.00  0.00    +0.175 C 
ATOM     32  C   UNL     1       5.833   0.327  28.027  0.00  0.00    +0.113 C 
ENDBRANCH  26  27
ENDBRANCH  11  26
TORSDOF 6
ENDMDL
