MODEL 1
REMARK VINA RESULT:      -6.1      0.000      0.000
REMARK  Name = 
REMARK  28 active torsions:
REMARK  status: ('A' for Active; 'I' for Inactive)
REMARK    1  A    between atoms: C_1  and  C_2
REMARK    2  A    between atoms: C_2  and  C_3
REMARK    3  A    between atoms: C_2  and  C_4
REMARK    4  A    between atoms: C_4  and  C_5
REMARK    5  A    between atoms: C_5  and  C_6
REMARK    6  A    between atoms: C_6  and  C_7
REMARK    7  A    between atoms: C_7  and  C_8
REMARK    8  A    between atoms: C_8  and  C_9
REMARK    9  A    between atoms: C_9  and  C_10
REMARK   10  A    between atoms: C_10  and  C_11
REMARK   11  A    between atoms: C_11  and  C_12
REMARK   12  A    between atoms: N_14  and  C_15
REMARK   13  A    between atoms: N_14  and  C_16
REMARK   14  A    between atoms: C_16  and  C_18
REMARK   15  A    between atoms: C_16  and  C_20
REMARK   16  A    between atoms: C_18  and  O_19
REMARK   17  A    between atoms: N_22  and  CA_23
REMARK   18  A    between atoms: CA_23  and  CB_25
REMARK   19  A    between atoms: CA_23  and  C_26
REMARK   20  A    between atoms: N_28  and  CA_29
REMARK   21  A    between atoms: CA_29  and  C_30
REMARK   22  A    between atoms: N_32  and  C_33
REMARK   23  A    between atoms: N_32  and  C_34
REMARK   24  A    between atoms: C_39  and  O_40
REMARK   25  A    between atoms: C_47  and  C_58
REMARK   26  A    between atoms: CA_52  and  CB_54
REMARK   27  A    between atoms: C_58  and  O_59
REMARK   28  A    between atoms: C_63  and  O_64
REMARK                            x       y       z     vdW  Elec       q    Type
REMARK                         _______ _______ _______ _____ _____    ______ ____
ROOT
ATOM      1  C   GLY A   2       3.921   2.873  27.395  0.00  0.00    +0.233 C 
ATOM      2  N   UNK A   3       4.065   3.353  26.080  0.00  0.00    -0.288 N 
ATOM      3  C   UNK A   3       2.853   3.419  25.198  0.00  0.00    +0.133 C 
ATOM      4  O   GLY A   2       4.854   2.871  28.198  0.00  0.00    -0.274 OA
ENDROOT
BRANCH   2   5
ATOM      5  C   UNK A   3       5.405   3.971  25.463  0.00  0.00    +0.192 C 
ATOM      6  C   UNK A   3       7.141   4.152  25.828  0.00  0.00    +0.239 C 
ATOM      7  O   UNK A   3       7.388   5.107  26.605  0.00  0.00    -0.273 OA
ATOM      8  N   ALA A   4       8.353   3.587  25.389  0.00  0.00    -0.302 N 
ATOM      9  H   ALA A   4       8.986   4.212  25.879  0.00  0.00    +0.150 HD
ATOM     10  CA  ALA A   4       9.435   2.648  24.485  0.00  0.00    +0.156 C 
ATOM     11  CB  ALA A   4       9.990   3.413  23.253  0.00  0.00    +0.038 C 
ATOM     12  C   ALA A   4       9.985   1.023  24.498  0.00  0.00    +0.234 C 
ATOM     13  O   ALA A   4      10.322   0.517  25.574  0.00  0.00    -0.274 OA
ATOM     14  N   UNK A   5      10.224   0.305  23.307  0.00  0.00    -0.301 N 
ATOM     15  H   UNK A   5      10.596   0.823  22.523  0.00  0.00    +0.150 HD
ATOM     16  C   UNK A   5      10.112  -1.213  22.993  0.00  0.00    +0.186 C 
ATOM     17  C   UNK A   5       9.818  -2.202  24.163  0.00  0.00    +0.069 C 
ATOM     18  C   UNK A   5       8.627  -1.783  24.988  0.00  0.00    -0.044 A 
ATOM     19  C   UNK A   5       8.686  -1.805  26.382  0.00  0.00    +0.007 A 
ATOM     20  C   UNK A   5       7.973  -0.848  27.089  0.00  0.00    +0.046 A 
ATOM     21  C   UNK A   5       7.291   0.146  26.374  0.00  0.00    +0.125 A 
ATOM     22  C   UNK A   5       7.142   0.079  24.948  0.00  0.00    +0.027 A 
ATOM     23  C   UNK A   5       6.620   1.127  24.023  0.00  0.00    +0.027 A 
ATOM     24  C   UNK A   5       5.626   1.836  24.559  0.00  0.00    +0.018 A 
ATOM     25  C   UNK A   5       7.060   1.625  22.760  0.00  0.00    +0.125 A 
ATOM     26  C   UNK A   5       6.626   2.854  22.203  0.00  0.00    +0.046 A 
ATOM     27  C   UNK A   5       5.895   3.702  22.988  0.00  0.00    +0.009 A 
ATOM     28  C   UNK A   5       7.648  -1.032  24.342  0.00  0.00    +0.016 A 
ATOM     29  C   UNK A   5       5.536   3.178  24.211  0.00  0.00    -0.017 A 
BRANCH  25  30
ATOM     30  O   UNK A   5       8.045   1.001  22.062  0.00  0.00    -0.506 OA
ATOM     31  H   UNK A   5       8.798   1.603  21.926  0.00  0.00    +0.292 HD
ENDBRANCH  25  30
BRANCH  21  32
ATOM     32  O   UNK A   5       6.830   1.219  27.112  0.00  0.00    -0.506 OA
ATOM     33  H   UNK A   5       6.236   0.905  27.815  0.00  0.00    +0.292 HD
ENDBRANCH  21  32
BRANCH  16  34
ATOM     34  C   UNK A   5       9.239  -1.516  21.703  0.00  0.00    +0.326 C 
ATOM     35  O   UNK A   5       8.370  -2.386  21.689  0.00  0.00    -0.249 OA
BRANCH  34  36
ATOM     36  O   UNK A   5       9.443  -0.767  20.586  0.00  0.00    -0.479 OA
ATOM     37  H   UNK A   5      10.093  -0.038  20.606  0.00  0.00    +0.295 HD
ENDBRANCH  34  36
ENDBRANCH  16  34
ENDBRANCH   2   5
BRANCH   1  38
ATOM     38  CA  GLY A   2       2.546   2.161  27.755  0.00  0.00    +0.200 C 
BRANCH  38  40
ATOM     39  C   ALA A   1       2.574   0.282  29.330  0.00  0.00    +0.233 C 
ATOM     40  N   GLY A   2       2.489   0.722  28.012  0.00  0.00    -0.305 N 
ATOM     41  H   GLY A   2       1.959   0.159  27.355  0.00  0.00    +0.149 HD
ATOM     42  O   ALA A   1       2.990   1.021  30.247  0.00  0.00    -0.274 OA
BRANCH  39  43
ATOM     43  CA  ALA A   1       2.223  -1.201  29.575  0.00  0.00    +0.156 C 
ATOM     44  CB  ALA A   1       0.928  -1.271  30.345  0.00  0.00    +0.038 C 
BRANCH  43  46
ATOM     45  C   UNK A   0       2.906  -3.043  28.038  0.00  0.00    +0.236 C 
ATOM     46  N   ALA A   1       2.127  -1.922  28.289  0.00  0.00    -0.303 N 
ATOM     47  H   ALA A   1       1.929  -1.360  27.473  0.00  0.00    +0.149 HD
ATOM     48  O   UNK A   0       3.662  -3.509  28.892  0.00  0.00    -0.274 OA
BRANCH  45  49
ATOM     49  C   UNK A   0       2.576  -3.819  26.729  0.00  0.00    +0.187 C 
BRANCH  49  51
ATOM     50  C   UNK A   0       3.564  -4.662  24.624  0.00  0.00    +0.216 C 
ATOM     51  N   UNK A   0       3.648  -3.740  25.670  0.00  0.00    -0.291 N 
ATOM     52  C   UNK A   0       4.462  -2.530  25.571  0.00  0.00    +0.133 C 
ATOM     53  O   UNK A   0       2.836  -5.663  24.692  0.00  0.00    -0.276 OA
BRANCH  50  54
ATOM     54  C   UNK A   0       4.378  -4.379  23.360  0.00  0.00    +0.096 C 
BRANCH  54  55
ATOM     55  C   UNK A   0       4.836  -5.642  22.623  0.00  0.00    +0.009 C 
BRANCH  55  56
ATOM     56  C   UNK A   0       6.363  -5.756  22.599  0.00  0.00    +0.000 C 
BRANCH  56  57
ATOM     57  C   UNK A   0       7.022  -4.766  23.557  0.00  0.00    +0.000 C 
BRANCH  57  58
ATOM     58  C   UNK A   0       8.317  -5.347  24.116  0.00  0.00    +0.000 C 
BRANCH  58  59
ATOM     59  C   UNK A   0       8.287  -5.414  25.640  0.00  0.00    +0.000 C 
BRANCH  59  60
ATOM     60  C   UNK A   0       6.861  -5.227  26.153  0.00  0.00    +0.000 C 
BRANCH  60  61
ATOM     61  C   UNK A   0       6.818  -5.192  27.680  0.00  0.00    +0.003 C 
BRANCH  61  63
ATOM     62  C   UNK A   0       5.718  -6.082  29.749  0.00  0.00    +0.007 C 
ATOM     63  C   UNK A   0       6.080  -6.392  28.296  0.00  0.00    -0.017 C 
ATOM     64  C   UNK A   0       4.817  -6.767  27.517  0.00  0.00    +0.007 C 
ENDBRANCH  61  63
ENDBRANCH  60  61
ENDBRANCH  59  60
ENDBRANCH  58  59
ENDBRANCH  57  58
ENDBRANCH  56  57
ENDBRANCH  55  56
ENDBRANCH  54  55
ENDBRANCH  50  54
ENDBRANCH  49  51
BRANCH  49  65
ATOM     65  C   UNK A   0       1.187  -3.341  26.235  0.00  0.00    +0.187 C 
BRANCH  65  66
ATOM     66  O   UNK A   0       1.193  -2.061  25.610  0.00  0.00    -0.393 OA
ATOM     67  H   UNK A   0       0.887  -2.166  24.693  0.00  0.00    +0.209 HD
ENDBRANCH  65  66
ENDBRANCH  49  65
ENDBRANCH  45  49
ENDBRANCH  43  46
ENDBRANCH  39  43
ENDBRANCH  38  40
ENDBRANCH   1  38
TORSDOF 22
ENDMDL
MODEL 2
REMARK VINA RESULT:      -5.9      1.340      2.552
REMARK  Name = 
REMARK  28 active torsions:
REMARK  status: ('A' for Active; 'I' for Inactive)
REMARK    1  A    between atoms: C_1  and  C_2
REMARK    2  A    between atoms: C_2  and  C_3
REMARK    3  A    between atoms: C_2  and  C_4
REMARK    4  A    between atoms: C_4  and  C_5
REMARK    5  A    between atoms: C_5  and  C_6
REMARK    6  A    between atoms: C_6  and  C_7
REMARK    7  A    between atoms: C_7  and  C_8
REMARK    8  A    between atoms: C_8  and  C_9
REMARK    9  A    between atoms: C_9  and  C_10
REMARK   10  A    between atoms: C_10  and  C_11
REMARK   11  A    between atoms: C_11  and  C_12
REMARK   12  A    between atoms: N_14  and  C_15
REMARK   13  A    between atoms: N_14  and  C_16
REMARK   14  A    between atoms: C_16  and  C_18
REMARK   15  A    between atoms: C_16  and  C_20
REMARK   16  A    between atoms: C_18  and  O_19
REMARK   17  A    between atoms: N_22  and  CA_23
REMARK   18  A    between atoms: CA_23  and  CB_25
REMARK   19  A    between atoms: CA_23  and  C_26
REMARK   20  A    between atoms: N_28  and  CA_29
REMARK   21  A    between atoms: CA_29  and  C_30
REMARK   22  A    between atoms: N_32  and  C_33
REMARK   23  A    between atoms: N_32  and  C_34
REMARK   24  A    between atoms: C_39  and  O_40
REMARK   25  A    between atoms: C_47  and  C_58
REMARK   26  A    between atoms: CA_52  and  CB_54
REMARK   27  A    between atoms: C_58  and  O_59
REMARK   28  A    between atoms: C_63  and  O_64
REMARK                            x       y       z     vdW  Elec       q    Type
REMARK                         _______ _______ _______ _____ _____    ______ ____
ROOT
ATOM      1  C   GLY A   2       4.209   2.300  27.975  0.00  0.00    +0.233 C 
ATOM      2  N   UNK A   3       4.191   2.924  26.714  0.00  0.00    -0.288 N 
ATOM      3  C   UNK A   3       2.886   3.038  25.982  0.00  0.00    +0.133 C 
ATOM      4  O   GLY A   2       5.226   2.247  28.665  0.00  0.00    -0.274 OA
ENDROOT
BRANCH   2   5
ATOM      5  C   UNK A   3       5.435   3.657  26.028  0.00  0.00    +0.192 C 
ATOM      6  C   UNK A   3       7.187   3.910  26.250  0.00  0.00    +0.239 C 
ATOM      7  O   UNK A   3       7.457   4.821  27.070  0.00  0.00    -0.273 OA
ATOM      8  N   ALA A   4       8.380   3.446  25.664  0.00  0.00    -0.302 N 
ATOM      9  H   ALA A   4       9.023   4.070  26.141  0.00  0.00    +0.150 HD
ATOM     10  CA  ALA A   4       9.418   2.633  24.600  0.00  0.00    +0.156 C 
ATOM     11  CB  ALA A   4       9.818   3.512  23.384  0.00  0.00    +0.038 C 
ATOM     12  C   ALA A   4      10.047   1.045  24.444  0.00  0.00    +0.234 C 
ATOM     13  O   ALA A   4      10.507   0.485  25.445  0.00  0.00    -0.274 OA
ATOM     14  N   UNK A   5      10.210   0.426  23.187  0.00  0.00    -0.301 N 
ATOM     15  H   UNK A   5      10.481   1.016  22.413  0.00  0.00    +0.150 HD
ATOM     16  C   UNK A   5      10.144  -1.071  22.772  0.00  0.00    +0.186 C 
ATOM     17  C   UNK A   5      10.009  -2.154  23.887  0.00  0.00    +0.069 C 
ATOM     18  C   UNK A   5       8.881  -1.860  24.844  0.00  0.00    -0.044 A 
ATOM     19  C   UNK A   5       9.070  -1.975  26.221  0.00  0.00    +0.007 A 
ATOM     20  C   UNK A   5       8.378  -1.111  27.057  0.00  0.00    +0.046 A 
ATOM     21  C   UNK A   5       7.585  -0.109  26.481  0.00  0.00    +0.125 A 
ATOM     22  C   UNK A   5       7.308  -0.086  25.073  0.00  0.00    +0.027 A 
ATOM     23  C   UNK A   5       6.651   0.993  24.278  0.00  0.00    +0.027 A 
ATOM     24  C   UNK A   5       5.677   1.606  24.952  0.00  0.00    +0.018 A 
ATOM     25  C   UNK A   5       6.948   1.601  23.022  0.00  0.00    +0.125 A 
ATOM     26  C   UNK A   5       6.404   2.839  22.599  0.00  0.00    +0.046 A 
ATOM     27  C   UNK A   5       5.707   3.589  23.506  0.00  0.00    +0.009 A 
ATOM     28  C   UNK A   5       7.811  -1.122  24.345  0.00  0.00    +0.016 A 
ATOM     29  C   UNK A   5       5.489   2.962  24.714  0.00  0.00    -0.017 A 
BRANCH  25  30
ATOM     30  O   UNK A   5       7.893   1.083  22.195  0.00  0.00    -0.506 OA
ATOM     31  H   UNK A   5       8.711   1.608  22.244  0.00  0.00    +0.292 HD
ENDBRANCH  25  30
BRANCH  21  32
ATOM     32  O   UNK A   5       7.141   0.882  27.335  0.00  0.00    -0.506 OA
ATOM     33  H   UNK A   5       6.401   0.549  27.871  0.00  0.00    +0.292 HD
ENDBRANCH  21  32
BRANCH  16  34
ATOM     34  C   UNK A   5       9.172  -1.332  21.546  0.00  0.00    +0.326 C 
ATOM     35  O   UNK A   5       8.344  -2.241  21.548  0.00  0.00    -0.249 OA
BRANCH  34  36
ATOM     36  O   UNK A   5       9.241  -0.503  20.470  0.00  0.00    -0.479 OA
ATOM     37  H   UNK A   5       8.685   0.300  20.442  0.00  0.00    +0.295 HD
ENDBRANCH  34  36
ENDBRANCH  16  34
ENDBRANCH   2   5
BRANCH   1  38
ATOM     38  CA  GLY A   2       2.902   1.499  28.400  0.00  0.00    +0.200 C 
BRANCH  38  40
ATOM     39  C   ALA A   1       2.372  -0.838  28.919  0.00  0.00    +0.233 C 
ATOM     40  N   GLY A   2       2.688   0.120  27.959  0.00  0.00    -0.305 N 
ATOM     41  H   GLY A   2       2.332  -0.011  27.019  0.00  0.00    +0.149 HD
ATOM     42  O   ALA A   1       2.555  -0.638  30.137  0.00  0.00    -0.274 OA
BRANCH  39  43
ATOM     43  CA  ALA A   1       1.877  -2.198  28.382  0.00  0.00    +0.156 C 
ATOM     44  CB  ALA A   1       1.171  -1.973  27.068  0.00  0.00    +0.038 C 
BRANCH  43  46
ATOM     45  C   UNK A   0       3.431  -3.924  29.293  0.00  0.00    +0.236 C 
ATOM     46  N   ALA A   1       3.012  -3.131  28.233  0.00  0.00    -0.303 N 
ATOM     47  H   ALA A   1       3.754  -2.840  27.611  0.00  0.00    +0.149 HD
ATOM     48  O   UNK A   0       2.841  -3.920  30.374  0.00  0.00    -0.274 OA
BRANCH  45  49
ATOM     49  C   UNK A   0       4.509  -4.995  28.954  0.00  0.00    +0.187 C 
BRANCH  49  51
ATOM     50  C   UNK A   0       6.731  -5.348  27.928  0.00  0.00    +0.216 C 
ATOM     51  N   UNK A   0       5.640  -4.491  28.094  0.00  0.00    -0.291 N 
ATOM     52  C   UNK A   0       5.405  -3.358  27.200  0.00  0.00    +0.133 C 
ATOM     53  O   UNK A   0       6.904  -6.336  28.658  0.00  0.00    -0.276 OA
BRANCH  50  54
ATOM     54  C   UNK A   0       7.701  -5.052  26.783  0.00  0.00    +0.096 C 
BRANCH  54  55
ATOM     55  C   UNK A   0       7.251  -5.609  25.428  0.00  0.00    +0.009 C 
BRANCH  55  56
ATOM     56  C   UNK A   0       8.351  -5.475  24.371  0.00  0.00    +0.000 C 
BRANCH  56  57
ATOM     57  C   UNK A   0       7.815  -4.885  23.067  0.00  0.00    +0.000 C 
BRANCH  57  58
ATOM     58  C   UNK A   0       7.185  -5.978  22.209  0.00  0.00    +0.000 C 
BRANCH  58  59
ATOM     59  C   UNK A   0       5.761  -5.613  21.799  0.00  0.00    +0.000 C 
BRANCH  59  60
ATOM     60  C   UNK A   0       5.294  -4.367  22.549  0.00  0.00    +0.000 C 
BRANCH  60  61
ATOM     61  C   UNK A   0       4.088  -4.672  23.437  0.00  0.00    +0.003 C 
BRANCH  61  63
ATOM     62  C   UNK A   0       3.833  -6.837  24.674  0.00  0.00    +0.007 C 
ATOM     63  C   UNK A   0       3.612  -6.130  23.335  0.00  0.00    -0.017 C 
ATOM     64  C   UNK A   0       2.141  -6.241  22.928  0.00  0.00    +0.007 C 
ENDBRANCH  61  63
ENDBRANCH  60  61
ENDBRANCH  59  60
ENDBRANCH  58  59
ENDBRANCH  57  58
ENDBRANCH  56  57
ENDBRANCH  55  56
ENDBRANCH  54  55
ENDBRANCH  50  54
ENDBRANCH  49  51
BRANCH  49  65
ATOM     65  C   UNK A   0       3.780  -6.224  28.355  0.00  0.00    +0.187 C 
BRANCH  65  66
ATOM     66  O   UNK A   0       4.164  -7.472  28.926  0.00  0.00    -0.393 OA
ATOM     67  H   UNK A   0       3.764  -7.540  29.810  0.00  0.00    +0.209 HD
ENDBRANCH  65  66
ENDBRANCH  49  65
ENDBRANCH  45  49
ENDBRANCH  43  46
ENDBRANCH  39  43
ENDBRANCH  38  40
ENDBRANCH   1  38
TORSDOF 22
ENDMDL
MODEL 3
REMARK VINA RESULT:      -5.6      2.351      6.781
REMARK  Name = 
REMARK  28 active torsions:
REMARK  status: ('A' for Active; 'I' for Inactive)
REMARK    1  A    between atoms: C_1  and  C_2
REMARK    2  A    between atoms: C_2  and  C_3
REMARK    3  A    between atoms: C_2  and  C_4
REMARK    4  A    between atoms: C_4  and  C_5
REMARK    5  A    between atoms: C_5  and  C_6
REMARK    6  A    between atoms: C_6  and  C_7
REMARK    7  A    between atoms: C_7  and  C_8
REMARK    8  A    between atoms: C_8  and  C_9
REMARK    9  A    between atoms: C_9  and  C_10
REMARK   10  A    between atoms: C_10  and  C_11
REMARK   11  A    between atoms: C_11  and  C_12
REMARK   12  A    between atoms: N_14  and  C_15
REMARK   13  A    between atoms: N_14  and  C_16
REMARK   14  A    between atoms: C_16  and  C_18
REMARK   15  A    between atoms: C_16  and  C_20
REMARK   16  A    between atoms: C_18  and  O_19
REMARK   17  A    between atoms: N_22  and  CA_23
REMARK   18  A    between atoms: CA_23  and  CB_25
REMARK   19  A    between atoms: CA_23  and  C_26
REMARK   20  A    between atoms: N_28  and  CA_29
REMARK   21  A    between atoms: CA_29  and  C_30
REMARK   22  A    between atoms: N_32  and  C_33
REMARK   23  A    between atoms: N_32  and  C_34
REMARK   24  A    between atoms: C_39  and  O_40
REMARK   25  A    between atoms: C_47  and  C_58
REMARK   26  A    between atoms: CA_52  and  CB_54
REMARK   27  A    between atoms: C_58  and  O_59
REMARK   28  A    between atoms: C_63  and  O_64
REMARK                            x       y       z     vdW  Elec       q    Type
REMARK                         _______ _______ _______ _____ _____    ______ ____
ROOT
ATOM      1  C   GLY A   2       4.085  -1.983  27.534  0.00  0.00    +0.233 C 
ATOM      2  N   UNK A   3       3.431  -0.845  28.040  0.00  0.00    -0.288 N 
ATOM      3  C   UNK A   3       1.937  -0.867  28.170  0.00  0.00    +0.133 C 
ATOM      4  O   GLY A   2       5.312  -2.064  27.480  0.00  0.00    -0.274 OA
ENDROOT
BRANCH   2   5
ATOM      5  C   UNK A   3       4.157   0.455  28.624  0.00  0.00    +0.192 C 
ATOM      6  C   UNK A   3       5.770   1.208  28.733  0.00  0.00    +0.239 C 
ATOM      7  O   UNK A   3       6.475   0.738  29.659  0.00  0.00    -0.273 OA
ATOM      8  N   ALA A   4       6.449   2.287  28.137  0.00  0.00    -0.302 N 
ATOM      9  H   ALA A   4       7.275   2.277  28.726  0.00  0.00    +0.150 HD
ATOM     10  CA  ALA A   4       6.728   3.658  27.182  0.00  0.00    +0.156 C 
ATOM     11  CB  ALA A   4       6.465   4.977  27.957  0.00  0.00    +0.038 C 
ATOM     12  C   ALA A   4       7.103   3.976  25.538  0.00  0.00    +0.234 C 
ATOM     13  O   ALA A   4       7.997   3.318  24.993  0.00  0.00    -0.274 OA
ATOM     14  N   UNK A   5       6.548   5.069  24.842  0.00  0.00    -0.301 N 
ATOM     15  H   UNK A   5       6.396   5.920  25.365  0.00  0.00    +0.150 HD
ATOM     16  C   UNK A   5       6.203   5.251  23.337  0.00  0.00    +0.186 C 
ATOM     17  C   UNK A   5       6.628   4.137  22.331  0.00  0.00    +0.069 C 
ATOM     18  C   UNK A   5       6.192   2.762  22.772  0.00  0.00    -0.044 A 
ATOM     19  C   UNK A   5       7.075   1.685  22.713  0.00  0.00    +0.007 A 
ATOM     20  C   UNK A   5       6.973   0.692  23.677  0.00  0.00    +0.046 A 
ATOM     21  C   UNK A   5       6.042   0.855  24.713  0.00  0.00    +0.125 A 
ATOM     22  C   UNK A   5       5.064   1.905  24.686  0.00  0.00    +0.027 A 
ATOM     23  C   UNK A   5       4.137   2.332  25.775  0.00  0.00    +0.027 A 
ATOM     24  C   UNK A   5       3.697   1.307  26.506  0.00  0.00    +0.018 A 
ATOM     25  C   UNK A   5       3.752   3.606  26.288  0.00  0.00    +0.125 A 
ATOM     26  C   UNK A   5       3.124   3.792  27.545  0.00  0.00    +0.046 A 
ATOM     27  C   UNK A   5       3.050   2.727  28.399  0.00  0.00    +0.009 A 
ATOM     28  C   UNK A   5       5.056   2.691  23.573  0.00  0.00    +0.016 A 
ATOM     29  C   UNK A   5       3.474   1.533  27.858  0.00  0.00    -0.017 A 
BRANCH  25  30
ATOM     30  O   UNK A   5       4.091   4.755  25.646  0.00  0.00    -0.506 OA
ATOM     31  H   UNK A   5       5.002   4.698  25.308  0.00  0.00    +0.292 HD
ENDBRANCH  25  30
BRANCH  21  32
ATOM     32  O   UNK A   5       6.164  -0.010  25.783  0.00  0.00    -0.506 OA
ATOM     33  H   UNK A   5       6.000  -0.922  25.490  0.00  0.00    +0.292 HD
ENDBRANCH  21  32
BRANCH  16  34
ATOM     34  C   UNK A   5       4.718   5.755  23.098  0.00  0.00    +0.326 C 
ATOM     35  O   UNK A   5       4.210   6.644  23.779  0.00  0.00    -0.249 OA
BRANCH  34  36
ATOM     36  O   UNK A   5       3.995   5.201  22.088  0.00  0.00    -0.479 OA
ATOM     37  H   UNK A   5       3.167   5.630  21.795  0.00  0.00    +0.295 HD
ENDBRANCH  34  36
ENDBRANCH  16  34
ENDBRANCH   2   5
BRANCH   1  38
ATOM     38  CA  GLY A   2       3.173  -3.099  26.863  0.00  0.00    +0.200 C 
BRANCH  38  40
ATOM     39  C   ALA A   1       2.970  -5.305  25.813  0.00  0.00    +0.233 C 
ATOM     40  N   GLY A   2       3.668  -4.462  26.673  0.00  0.00    -0.305 N 
ATOM     41  H   GLY A   2       4.667  -4.606  26.776  0.00  0.00    +0.149 HD
ATOM     42  O   ALA A   1       1.805  -5.053  25.442  0.00  0.00    -0.274 OA
BRANCH  39  43
ATOM     43  CA  ALA A   1       3.681  -6.619  25.425  0.00  0.00    +0.156 C 
ATOM     44  CB  ALA A   1       2.798  -7.383  24.469  0.00  0.00    +0.038 C 
BRANCH  43  46
ATOM     45  C   UNK A   0       5.103  -5.757  23.566  0.00  0.00    +0.236 C 
ATOM     46  N   ALA A   1       5.000  -6.329  24.826  0.00  0.00    -0.303 N 
ATOM     47  H   ALA A   1       5.749  -6.967  25.057  0.00  0.00    +0.149 HD
ATOM     48  O   UNK A   0       4.105  -5.420  22.926  0.00  0.00    -0.274 OA
BRANCH  45  49
ATOM     49  C   UNK A   0       6.535  -5.329  23.130  0.00  0.00    +0.187 C 
BRANCH  49  51
ATOM     50  C   UNK A   0       8.351  -3.961  24.104  0.00  0.00    +0.216 C 
ATOM     51  N   UNK A   0       7.007  -4.027  23.728  0.00  0.00    -0.291 N 
ATOM     52  C   UNK A   0       6.195  -2.825  23.548  0.00  0.00    +0.133 C 
ATOM     53  O   UNK A   0       9.051  -4.979  24.211  0.00  0.00    -0.276 OA
BRANCH  50  54
ATOM     54  C   UNK A   0       8.954  -2.577  24.348  0.00  0.00    +0.096 C 
BRANCH  54  55
ATOM     55  C   UNK A   0      10.138  -2.246  23.433  0.00  0.00    +0.009 C 
BRANCH  55  56
ATOM     56  C   UNK A   0      10.300  -0.734  23.247  0.00  0.00    +0.000 C 
BRANCH  56  57
ATOM     57  C   UNK A   0      10.481  -0.014  24.582  0.00  0.00    +0.000 C 
BRANCH  57  58
ATOM     58  C   UNK A   0      10.793   1.462  24.351  0.00  0.00    +0.000 C 
BRANCH  58  59
ATOM     59  C   UNK A   0      10.587   1.854  22.891  0.00  0.00    +0.000 C 
BRANCH  59  60
ATOM     60  C   UNK A   0      10.438   3.368  22.763  0.00  0.00    +0.000 C 
BRANCH  60  61
ATOM     61  C   UNK A   0      11.634   4.099  23.372  0.00  0.00    +0.003 C 
BRANCH  61  63
ATOM     62  C   UNK A   0       9.969   5.941  23.720  0.00  0.00    +0.007 C 
ATOM     63  C   UNK A   0      11.440   5.623  23.448  0.00  0.00    -0.017 C 
ATOM     64  C   UNK A   0      12.317   6.273  24.521  0.00  0.00    +0.007 C 
ENDBRANCH  61  63
ENDBRANCH  60  61
ENDBRANCH  59  60
ENDBRANCH  58  59
ENDBRANCH  57  58
ENDBRANCH  56  57
ENDBRANCH  55  56
ENDBRANCH  54  55
ENDBRANCH  50  54
ENDBRANCH  49  51
BRANCH  49  65
ATOM     65  C   UNK A   0       6.581  -5.346  21.580  0.00  0.00    +0.187 C 
BRANCH  65  66
ATOM     66  O   UNK A   0       5.764  -6.346  20.979  0.00  0.00    -0.393 OA
ATOM     67  H   UNK A   0       6.278  -6.780  20.277  0.00  0.00    +0.209 HD
ENDBRANCH  65  66
ENDBRANCH  49  65
ENDBRANCH  45  49
ENDBRANCH  43  46
ENDBRANCH  39  43
ENDBRANCH  38  40
ENDBRANCH   1  38
TORSDOF 22
ENDMDL
MODEL 4
REMARK VINA RESULT:      -5.5      2.431      5.391
REMARK  Name = 
REMARK  28 active torsions:
REMARK  status: ('A' for Active; 'I' for Inactive)
REMARK    1  A    between atoms: C_1  and  C_2
REMARK    2  A    between atoms: C_2  and  C_3
REMARK    3  A    between atoms: C_2  and  C_4
REMARK    4  A    between atoms: C_4  and  C_5
REMARK    5  A    between atoms: C_5  and  C_6
REMARK    6  A    between atoms: C_6  and  C_7
REMARK    7  A    between atoms: C_7  and  C_8
REMARK    8  A    between atoms: C_8  and  C_9
REMARK    9  A    between atoms: C_9  and  C_10
REMARK   10  A    between atoms: C_10  and  C_11
REMARK   11  A    between atoms: C_11  and  C_12
REMARK   12  A    between atoms: N_14  and  C_15
REMARK   13  A    between atoms: N_14  and  C_16
REMARK   14  A    between atoms: C_16  and  C_18
REMARK   15  A    between atoms: C_16  and  C_20
REMARK   16  A    between atoms: C_18  and  O_19
REMARK   17  A    between atoms: N_22  and  CA_23
REMARK   18  A    between atoms: CA_23  and  CB_25
REMARK   19  A    between atoms: CA_23  and  C_26
REMARK   20  A    between atoms: N_28  and  CA_29
REMARK   21  A    between atoms: CA_29  and  C_30
REMARK   22  A    between atoms: N_32  and  C_33
REMARK   23  A    between atoms: N_32  and  C_34
REMARK   24  A    between atoms: C_39  and  O_40
REMARK   25  A    between atoms: C_47  and  C_58
REMARK   26  A    between atoms: CA_52  and  CB_54
REMARK   27  A    between atoms: C_58  and  O_59
REMARK   28  A    between atoms: C_63  and  O_64
REMARK                            x       y       z     vdW  Elec       q    Type
REMARK                         _______ _______ _______ _____ _____    ______ ____
ROOT
ATOM      1  C   GLY A   2       5.006  -1.954  27.532  0.00  0.00    +0.233 C 
ATOM      2  N   UNK A   3       4.385  -0.862  28.164  0.00  0.00    -0.288 N 
ATOM      3  C   UNK A   3       2.948  -0.988  28.578  0.00  0.00    +0.133 C 
ATOM      4  O   GLY A   2       6.202  -1.950  27.242  0.00  0.00    -0.274 OA
ENDROOT
BRANCH   2   5
ATOM      5  C   UNK A   3       5.118   0.487  28.611  0.00  0.00    +0.192 C 
ATOM      6  C   UNK A   3       6.683   1.327  28.458  0.00  0.00    +0.239 C 
ATOM      7  O   UNK A   3       7.549   0.915  29.267  0.00  0.00    -0.273 OA
ATOM      8  N   ALA A   4       7.200   2.427  27.749  0.00  0.00    -0.302 N 
ATOM      9  H   ALA A   4       8.107   2.474  28.201  0.00  0.00    +0.150 HD
ATOM     10  CA  ALA A   4       7.250   3.791  26.744  0.00  0.00    +0.156 C 
ATOM     11  CB  ALA A   4       7.036   5.111  27.534  0.00  0.00    +0.038 C 
ATOM     12  C   ALA A   4       7.347   4.093  25.058  0.00  0.00    +0.234 C 
ATOM     13  O   ALA A   4       8.180   3.473  24.389  0.00  0.00    -0.274 OA
ATOM     14  N   UNK A   5       6.629   5.141  24.444  0.00  0.00    -0.301 N 
ATOM     15  H   UNK A   5       6.513   5.993  24.974  0.00  0.00    +0.150 HD
ATOM     16  C   UNK A   5       6.045   5.271  23.010  0.00  0.00    +0.186 C 
ATOM     17  C   UNK A   5       6.370   4.161  21.963  0.00  0.00    +0.069 C 
ATOM     18  C   UNK A   5       6.086   2.775  22.484  0.00  0.00    -0.044 A 
ATOM     19  C   UNK A   5       7.008   1.745  22.302  0.00  0.00    +0.007 A 
ATOM     20  C   UNK A   5       7.113   0.769  23.282  0.00  0.00    +0.046 A 
ATOM     21  C   UNK A   5       6.347   0.904  24.449  0.00  0.00    +0.125 A 
ATOM     22  C   UNK A   5       5.319   1.899  24.562  0.00  0.00    +0.027 A 
ATOM     23  C   UNK A   5       4.550   2.299  25.778  0.00  0.00    +0.027 A 
ATOM     24  C   UNK A   5       4.287   1.268  26.581  0.00  0.00    +0.018 A 
ATOM     25  C   UNK A   5       4.178   3.561  26.328  0.00  0.00    +0.125 A 
ATOM     26  C   UNK A   5       3.745   3.741  27.665  0.00  0.00    +0.046 A 
ATOM     27  C   UNK A   5       3.863   2.691  28.534  0.00  0.00    +0.009 A 
ATOM     28  C   UNK A   5       5.094   2.660  23.455  0.00  0.00    +0.016 A 
ATOM     29  C   UNK A   5       4.265   1.510  27.948  0.00  0.00    -0.017 A 
BRANCH  25  30
ATOM     30  O   UNK A   5       4.349   4.713  25.627  0.00  0.00    -0.506 OA
ATOM     31  H   UNK A   5       4.943   4.564  24.870  0.00  0.00    +0.292 HD
ENDBRANCH  25  30
BRANCH  21  32
ATOM     32  O   UNK A   5       6.682   0.070  25.497  0.00  0.00    -0.506 OA
ATOM     33  H   UNK A   5       6.804  -0.838  25.171  0.00  0.00    +0.292 HD
ENDBRANCH  21  32
BRANCH  16  34
ATOM     34  C   UNK A   5       4.515   5.691  22.999  0.00  0.00    +0.326 C 
ATOM     35  O   UNK A   5       4.060   6.530  23.774  0.00  0.00    -0.249 OA
BRANCH  34  36
ATOM     36  O   UNK A   5       3.687   5.119  22.084  0.00  0.00    -0.479 OA
ATOM     37  H   UNK A   5       3.993   5.003  21.163  0.00  0.00    +0.295 HD
ENDBRANCH  34  36
ENDBRANCH  16  34
ENDBRANCH   2   5
BRANCH   1  38
ATOM     38  CA  GLY A   2       4.060  -3.133  27.036  0.00  0.00    +0.200 C 
BRANCH  38  40
ATOM     39  C   ALA A   1       3.804  -5.049  28.544  0.00  0.00    +0.233 C 
ATOM     40  N   GLY A   2       4.352  -4.525  27.376  0.00  0.00    -0.305 N 
ATOM     41  H   GLY A   2       4.525  -5.160  26.604  0.00  0.00    +0.149 HD
ATOM     42  O   ALA A   1       3.337  -4.317  29.440  0.00  0.00    -0.274 OA
BRANCH  39  43
ATOM     43  CA  ALA A   1       3.898  -6.581  28.711  0.00  0.00    +0.156 C 
ATOM     44  CB  ALA A   1       2.731  -7.050  29.543  0.00  0.00    +0.038 C 
BRANCH  43  46
ATOM     45  C   UNK A   0       2.827  -7.154  26.532  0.00  0.00    +0.236 C 
ATOM     46  N   ALA A   1       3.917  -7.239  27.387  0.00  0.00    -0.303 N 
ATOM     47  H   ALA A   1       4.431  -8.106  27.324  0.00  0.00    +0.149 HD
ATOM     48  O   UNK A   0       1.832  -6.487  26.818  0.00  0.00    -0.274 OA
BRANCH  45  49
ATOM     49  C   UNK A   0       3.043  -7.727  25.100  0.00  0.00    +0.187 C 
BRANCH  49  51
ATOM     50  C   UNK A   0       4.460  -6.063  23.940  0.00  0.00    +0.216 C 
ATOM     51  N   UNK A   0       3.208  -6.679  24.028  0.00  0.00    -0.291 N 
ATOM     52  C   UNK A   0       2.242  -6.623  22.933  0.00  0.00    +0.133 C 
ATOM     53  O   UNK A   0       5.296  -6.152  24.851  0.00  0.00    -0.276 OA
BRANCH  50  54
ATOM     54  C   UNK A   0       4.787  -5.297  22.658  0.00  0.00    +0.096 C 
BRANCH  54  55
ATOM     55  C   UNK A   0       6.044  -5.800  21.939  0.00  0.00    +0.009 C 
BRANCH  55  56
ATOM     56  C   UNK A   0       7.230  -4.854  22.151  0.00  0.00    +0.000 C 
BRANCH  56  57
ATOM     57  C   UNK A   0       6.772  -3.423  22.427  0.00  0.00    +0.000 C 
BRANCH  57  58
ATOM     58  C   UNK A   0       7.232  -2.976  23.812  0.00  0.00    +0.000 C 
BRANCH  58  59
ATOM     59  C   UNK A   0       8.373  -3.847  24.329  0.00  0.00    +0.000 C 
BRANCH  59  60
ATOM     60  C   UNK A   0       9.711  -3.133  24.152  0.00  0.00    +0.000 C 
BRANCH  60  61
ATOM     61  C   UNK A   0       9.568  -1.624  24.348  0.00  0.00    +0.003 C 
BRANCH  61  63
ATOM     62  C   UNK A   0       9.969  -0.834  22.003  0.00  0.00    +0.007 C 
ATOM     63  C   UNK A   0      10.496  -0.802  23.439  0.00  0.00    -0.017 C 
ATOM     64  C   UNK A   0      10.642   0.648  23.905  0.00  0.00    +0.007 C 
ENDBRANCH  61  63
ENDBRANCH  60  61
ENDBRANCH  59  60
ENDBRANCH  58  59
ENDBRANCH  57  58
ENDBRANCH  56  57
ENDBRANCH  55  56
ENDBRANCH  54  55
ENDBRANCH  50  54
ENDBRANCH  49  51
BRANCH  49  65
ATOM     65  C   UNK A   0       1.893  -8.725  24.813  0.00  0.00    +0.187 C 
BRANCH  65  66
ATOM     66  O   UNK A   0       2.145 -10.056  25.255  0.00  0.00    -0.393 OA
ATOM     67  H   UNK A   0       1.966 -10.101  26.209  0.00  0.00    +0.209 HD
ENDBRANCH  65  66
ENDBRANCH  49  65
ENDBRANCH  45  49
ENDBRANCH  43  46
ENDBRANCH  39  43
ENDBRANCH  38  40
ENDBRANCH   1  38
TORSDOF 22
ENDMDL
MODEL 5
REMARK VINA RESULT:      -5.3      2.371      8.663
REMARK  Name = 
REMARK  28 active torsions:
REMARK  status: ('A' for Active; 'I' for Inactive)
REMARK    1  A    between atoms: C_1  and  C_2
REMARK    2  A    between atoms: C_2  and  C_3
REMARK    3  A    between atoms: C_2  and  C_4
REMARK    4  A    between atoms: C_4  and  C_5
REMARK    5  A    between atoms: C_5  and  C_6
REMARK    6  A    between atoms: C_6  and  C_7
REMARK    7  A    between atoms: C_7  and  C_8
REMARK    8  A    between atoms: C_8  and  C_9
REMARK    9  A    between atoms: C_9  and  C_10
REMARK   10  A    between atoms: C_10  and  C_11
REMARK   11  A    between atoms: C_11  and  C_12
REMARK   12  A    between atoms: N_14  and  C_15
REMARK   13  A    between atoms: N_14  and  C_16
REMARK   14  A    between atoms: C_16  and  C_18
REMARK   15  A    between atoms: C_16  and  C_20
REMARK   16  A    between atoms: C_18  and  O_19
REMARK   17  A    between atoms: N_22  and  CA_23
REMARK   18  A    between atoms: CA_23  and  CB_25
REMARK   19  A    between atoms: CA_23  and  C_26
REMARK   20  A    between atoms: N_28  and  CA_29
REMARK   21  A    between atoms: CA_29  and  C_30
REMARK   22  A    between atoms: N_32  and  C_33
REMARK   23  A    between atoms: N_32  and  C_34
REMARK   24  A    between atoms: C_39  and  O_40
REMARK   25  A    between atoms: C_47  and  C_58
REMARK   26  A    between atoms: CA_52  and  CB_54
REMARK   27  A    between atoms: C_58  and  O_59
REMARK   28  A    between atoms: C_63  and  O_64
REMARK                            x       y       z     vdW  Elec       q    Type
REMARK                         _______ _______ _______ _____ _____    ______ ____
ROOT
ATOM      1  C   GLY A   2       9.409  -1.633  24.854  0.00  0.00    +0.233 C 
ATOM      2  N   UNK A   3       8.905  -2.422  23.804  0.00  0.00    -0.288 N 
ATOM      3  C   UNK A   3       9.015  -1.911  22.398  0.00  0.00    +0.133 C 
ATOM      4  O   GLY A   2       9.428  -2.027  26.019  0.00  0.00    -0.274 OA
ENDROOT
BRANCH   2   5
ATOM      5  C   UNK A   3       8.330  -3.906  23.958  0.00  0.00    +0.192 C 
ATOM      6  C   UNK A   3       7.905  -5.103  25.210  0.00  0.00    +0.239 C 
ATOM      7  O   UNK A   3       8.896  -5.740  25.644  0.00  0.00    -0.273 OA
ATOM      8  N   ALA A   4       6.731  -5.630  25.779  0.00  0.00    -0.302 N 
ATOM      9  H   ALA A   4       7.159  -6.367  26.331  0.00  0.00    +0.150 HD
ATOM     10  CA  ALA A   4       5.083  -5.925  26.039  0.00  0.00    +0.156 C 
ATOM     11  CB  ALA A   4       4.568  -7.142  25.223  0.00  0.00    +0.038 C 
ATOM     12  C   ALA A   4       3.795  -5.154  26.870  0.00  0.00    +0.234 C 
ATOM     13  O   ALA A   4       3.986  -4.755  28.024  0.00  0.00    -0.274 OA
ATOM     14  N   UNK A   5       2.486  -5.113  26.346  0.00  0.00    -0.301 N 
ATOM     15  H   UNK A   5       2.170  -5.921  25.829  0.00  0.00    +0.150 HD
ATOM     16  C   UNK A   5       1.357  -4.056  26.507  0.00  0.00    +0.186 C 
ATOM     17  C   UNK A   5       1.573  -2.872  27.501  0.00  0.00    +0.069 C 
ATOM     18  C   UNK A   5       2.884  -2.161  27.276  0.00  0.00    -0.044 A 
ATOM     19  C   UNK A   5       3.708  -1.834  28.352  0.00  0.00    +0.007 A 
ATOM     20  C   UNK A   5       5.082  -1.847  28.161  0.00  0.00    +0.046 A 
ATOM     21  C   UNK A   5       5.584  -2.266  26.921  0.00  0.00    +0.125 A 
ATOM     22  C   UNK A   5       4.721  -2.478  25.794  0.00  0.00    +0.027 A 
ATOM     23  C   UNK A   5       5.057  -3.095  24.477  0.00  0.00    +0.027 A 
ATOM     24  C   UNK A   5       6.288  -2.790  24.066  0.00  0.00    +0.018 A 
ATOM     25  C   UNK A   5       4.401  -4.056  23.651  0.00  0.00    +0.125 A 
ATOM     26  C   UNK A   5       5.043  -4.765  22.605  0.00  0.00    +0.046 A 
ATOM     27  C   UNK A   5       6.403  -4.670  22.494  0.00  0.00    +0.009 A 
ATOM     28  C   UNK A   5       3.402  -2.193  25.984  0.00  0.00    +0.016 A 
ATOM     29  C   UNK A   5       6.981  -3.755  23.347  0.00  0.00    -0.017 A 
BRANCH  25  30
ATOM     30  O   UNK A   5       3.128  -4.455  23.910  0.00  0.00    -0.506 OA
ATOM     31  H   UNK A   5       2.804  -5.038  23.202  0.00  0.00    +0.292 HD
ENDBRANCH  25  30
BRANCH  21  32
ATOM     32  O   UNK A   5       6.940  -2.521  26.868  0.00  0.00    -0.506 OA
ATOM     33  H   UNK A   5       7.337  -2.378  27.744  0.00  0.00    +0.292 HD
ENDBRANCH  21  32
BRANCH  16  34
ATOM     34  C   UNK A   5       0.748  -3.585  25.120  0.00  0.00    +0.326 C 
ATOM     35  O   UNK A   5       0.550  -2.399  24.860  0.00  0.00    -0.249 OA
BRANCH  34  36
ATOM     36  O   UNK A   5       0.461  -4.525  24.180  0.00  0.00    -0.479 OA
ATOM     37  H   UNK A   5       0.856  -4.454  23.289  0.00  0.00    +0.295 HD
ENDBRANCH  34  36
ENDBRANCH  16  34
ENDBRANCH   2   5
BRANCH   1  38
ATOM     38  CA  GLY A   2       9.791  -0.129  24.504  0.00  0.00    +0.200 C 
BRANCH  38  40
ATOM     39  C   ALA A   1       9.246   2.044  23.509  0.00  0.00    +0.233 C 
ATOM     40  N   GLY A   2       8.853   0.739  23.792  0.00  0.00    -0.305 N 
ATOM     41  H   GLY A   2       8.202   0.289  23.158  0.00  0.00    +0.149 HD
ATOM     42  O   ALA A   1      10.214   2.582  24.085  0.00  0.00    -0.274 OA
BRANCH  39  43
ATOM     43  CA  ALA A   1       8.354   2.822  22.517  0.00  0.00    +0.156 C 
ATOM     44  CB  ALA A   1       7.823   1.859  21.485  0.00  0.00    +0.038 C 
BRANCH  43  46
ATOM     45  C   UNK A   0       6.811   4.754  22.850  0.00  0.00    +0.236 C 
ATOM     46  N   ALA A   1       7.257   3.498  23.240  0.00  0.00    -0.303 N 
ATOM     47  H   ALA A   1       7.200   3.326  24.234  0.00  0.00    +0.149 HD
ATOM     48  O   UNK A   0       7.272   5.324  21.860  0.00  0.00    -0.274 OA
BRANCH  45  49
ATOM     49  C   UNK A   0       5.532   5.273  23.570  0.00  0.00    +0.187 C 
BRANCH  49  51
ATOM     50  C   UNK A   0       3.479   4.356  24.601  0.00  0.00    +0.216 C 
ATOM     51  N   UNK A   0       4.358   4.327  23.515  0.00  0.00    -0.291 N 
ATOM     52  C   UNK A   0       3.985   3.729  22.235  0.00  0.00    +0.133 C 
ATOM     53  O   UNK A   0       3.780   4.906  25.671  0.00  0.00    -0.276 OA
BRANCH  50  54
ATOM     54  C   UNK A   0       2.103   3.714  24.419  0.00  0.00    +0.096 C 
BRANCH  54  55
ATOM     55  C   UNK A   0       1.174   3.887  25.626  0.00  0.00    +0.009 C 
BRANCH  55  56
ATOM     56  C   UNK A   0       0.515   2.562  26.022  0.00  0.00    +0.000 C 
BRANCH  56  57
ATOM     57  C   UNK A   0       0.711   2.252  27.505  0.00  0.00    +0.000 C 
BRANCH  57  58
ATOM     58  C   UNK A   0       1.888   1.300  27.698  0.00  0.00    +0.000 C 
BRANCH  58  59
ATOM     59  C   UNK A   0       2.912   1.871  28.674  0.00  0.00    +0.000 C 
BRANCH  59  60
ATOM     60  C   UNK A   0       4.308   1.846  28.055  0.00  0.00    +0.000 C 
BRANCH  60  61
ATOM     61  C   UNK A   0       4.260   1.422  26.587  0.00  0.00    +0.003 C 
BRANCH  61  63
ATOM     62  C   UNK A   0       6.751   1.234  26.800  0.00  0.00    +0.007 C 
ATOM     63  C   UNK A   0       5.602   1.601  25.858  0.00  0.00    -0.017 C 
ATOM     64  C   UNK A   0       5.692   0.763  24.581  0.00  0.00    +0.007 C 
ENDBRANCH  61  63
ENDBRANCH  60  61
ENDBRANCH  59  60
ENDBRANCH  58  59
ENDBRANCH  57  58
ENDBRANCH  56  57
ENDBRANCH  55  56
ENDBRANCH  54  55
ENDBRANCH  50  54
ENDBRANCH  49  51
BRANCH  49  65
ATOM     65  C   UNK A   0       5.213   6.682  23.007  0.00  0.00    +0.187 C 
BRANCH  65  66
ATOM     66  O   UNK A   0       4.967   6.713  21.604  0.00  0.00    -0.393 OA
ATOM     67  H   UNK A   0       5.695   6.250  21.155  0.00  0.00    +0.209 HD
ENDBRANCH  65  66
ENDBRANCH  49  65
ENDBRANCH  45  49
ENDBRANCH  43  46
ENDBRANCH  39  43
ENDBRANCH  38  40
ENDBRANCH   1  38
TORSDOF 22
ENDMDL
MODEL 6
REMARK VINA RESULT:      -5.2      2.063      9.140
REMARK  Name = 
REMARK  28 active torsions:
REMARK  status: ('A' for Active; 'I' for Inactive)
REMARK    1  A    between atoms: C_1  and  C_2
REMARK    2  A    between atoms: C_2  and  C_3
REMARK    3  A    between atoms: C_2  and  C_4
REMARK    4  A    between atoms: C_4  and  C_5
REMARK    5  A    between atoms: C_5  and  C_6
REMARK    6  A    between atoms: C_6  and  C_7
REMARK    7  A    between atoms: C_7  and  C_8
REMARK    8  A    between atoms: C_8  and  C_9
REMARK    9  A    between atoms: C_9  and  C_10
REMARK   10  A    between atoms: C_10  and  C_11
REMARK   11  A    between atoms: C_11  and  C_12
REMARK   12  A    between atoms: N_14  and  C_15
REMARK   13  A    between atoms: N_14  and  C_16
REMARK   14  A    between atoms: C_16  and  C_18
REMARK   15  A    between atoms: C_16  and  C_20
REMARK   16  A    between atoms: C_18  and  O_19
REMARK   17  A    between atoms: N_22  and  CA_23
REMARK   18  A    between atoms: CA_23  and  CB_25
REMARK   19  A    between atoms: CA_23  and  C_26
REMARK   20  A    between atoms: N_28  and  CA_29
REMARK   21  A    between atoms: CA_29  and  C_30
REMARK   22  A    between atoms: N_32  and  C_33
REMARK   23  A    between atoms: N_32  and  C_34
REMARK   24  A    between atoms: C_39  and  O_40
REMARK   25  A    between atoms: C_47  and  C_58
REMARK   26  A    between atoms: CA_52  and  CB_54
REMARK   27  A    between atoms: C_58  and  O_59
REMARK   28  A    between atoms: C_63  and  O_64
REMARK                            x       y       z     vdW  Elec       q    Type
REMARK                         _______ _______ _______ _____ _____    ______ ____
ROOT
ATOM      1  C   GLY A   2       9.554  -1.552  24.019  0.00  0.00    +0.233 C 
ATOM      2  N   UNK A   3       8.789  -2.454  23.257  0.00  0.00    -0.288 N 
ATOM      3  C   UNK A   3       8.594  -2.181  21.794  0.00  0.00    +0.133 C 
ATOM      4  O   GLY A   2       9.823  -1.758  25.202  0.00  0.00    -0.274 OA
ENDROOT
BRANCH   2   5
ATOM      5  C   UNK A   3       8.200  -3.843  23.785  0.00  0.00    +0.192 C 
ATOM      6  C   UNK A   3       7.953  -4.755  25.298  0.00  0.00    +0.239 C 
ATOM      7  O   UNK A   3       8.982  -5.361  25.685  0.00  0.00    -0.273 OA
ATOM      8  N   ALA A   4       6.875  -5.091  26.137  0.00  0.00    -0.302 N 
ATOM      9  H   ALA A   4       7.366  -5.738  26.747  0.00  0.00    +0.150 HD
ATOM     10  CA  ALA A   4       5.285  -5.228  26.707  0.00  0.00    +0.156 C 
ATOM     11  CB  ALA A   4       4.602  -6.541  26.235  0.00  0.00    +0.038 C 
ATOM     12  C   ALA A   4       4.180  -4.235  27.565  0.00  0.00    +0.234 C 
ATOM     13  O   ALA A   4       4.573  -3.640  28.574  0.00  0.00    -0.274 OA
ATOM     14  N   UNK A   5       2.803  -4.209  27.257  0.00  0.00    -0.301 N 
ATOM     15  H   UNK A   5       2.380  -5.078  26.963  0.00  0.00    +0.150 HD
ATOM     16  C   UNK A   5       1.752  -3.072  27.385  0.00  0.00    +0.186 C 
ATOM     17  C   UNK A   5       2.169  -1.739  28.083  0.00  0.00    +0.069 C 
ATOM     18  C   UNK A   5       3.445  -1.167  27.519  0.00  0.00    -0.044 A 
ATOM     19  C   UNK A   5       4.448  -0.698  28.367  0.00  0.00    +0.007 A 
ATOM     20  C   UNK A   5       5.769  -0.833  27.967  0.00  0.00    +0.046 A 
ATOM     21  C   UNK A   5       6.042  -1.507  26.769  0.00  0.00    +0.125 A 
ATOM     22  C   UNK A   5       4.997  -1.872  25.856  0.00  0.00    +0.027 A 
ATOM     23  C   UNK A   5       5.088  -2.743  24.648  0.00  0.00    +0.027 A 
ATOM     24  C   UNK A   5       6.242  -2.599  23.996  0.00  0.00    +0.018 A 
ATOM     25  C   UNK A   5       4.273  -3.798  24.139  0.00  0.00    +0.125 A 
ATOM     26  C   UNK A   5       4.708  -4.729  23.163  0.00  0.00    +0.046 A 
ATOM     27  C   UNK A   5       6.032  -4.744  22.822  0.00  0.00    +0.009 A 
ATOM     28  C   UNK A   5       3.738  -1.473  26.193  0.00  0.00    +0.016 A 
ATOM     29  C   UNK A   5       6.774  -3.724  23.378  0.00  0.00    -0.017 A 
BRANCH  25  30
ATOM     30  O   UNK A   5       3.049  -4.060  24.669  0.00  0.00    -0.506 OA
ATOM     31  H   UNK A   5       3.096  -4.073  25.641  0.00  0.00    +0.292 HD
ENDBRANCH  25  30
BRANCH  21  32
ATOM     32  O   UNK A   5       7.362  -1.853  26.553  0.00  0.00    -0.506 OA
ATOM     33  H   UNK A   5       7.687  -2.393  27.293  0.00  0.00    +0.292 HD
ENDBRANCH  21  32
BRANCH  16  34
ATOM     34  C   UNK A   5       0.934  -2.830  26.047  0.00  0.00    +0.326 C 
ATOM     35  O   UNK A   5       0.705  -1.703  25.613  0.00  0.00    -0.249 OA
BRANCH  34  36
ATOM     36  O   UNK A   5       0.495  -3.911  25.347  0.00  0.00    -0.479 OA
ATOM     37  H   UNK A   5       1.138  -4.579  25.038  0.00  0.00    +0.295 HD
ENDBRANCH  34  36
ENDBRANCH  16  34
ENDBRANCH   2   5
BRANCH   1  38
ATOM     38  CA  GLY A   2       9.910  -0.158  23.341  0.00  0.00    +0.200 C 
BRANCH  38  40
ATOM     39  C   ALA A   1       9.242   2.119  22.724  0.00  0.00    +0.233 C 
ATOM     40  N   GLY A   2       9.075   1.022  23.565  0.00  0.00    -0.305 N 
ATOM     41  H   GLY A   2       8.158   0.866  23.968  0.00  0.00    +0.149 HD
ATOM     42  O   ALA A   1      10.251   2.249  22.000  0.00  0.00    -0.274 OA
BRANCH  39  43
ATOM     43  CA  ALA A   1       8.157   3.214  22.811  0.00  0.00    +0.156 C 
ATOM     44  CB  ALA A   1       6.819   2.597  22.489  0.00  0.00    +0.038 C 
BRANCH  43  46
ATOM     45  C   UNK A   0       8.899   4.972  24.419  0.00  0.00    +0.236 C 
ATOM     46  N   ALA A   1       8.159   3.827  24.156  0.00  0.00    -0.303 N 
ATOM     47  H   ALA A   1       8.079   3.193  24.939  0.00  0.00    +0.149 HD
ATOM     48  O   UNK A   0       9.534   5.548  23.533  0.00  0.00    -0.274 OA
BRANCH  45  49
ATOM     49  C   UNK A   0       8.669   5.623  25.813  0.00  0.00    +0.187 C 
BRANCH  49  51
ATOM     50  C   UNK A   0       6.797   4.725  27.158  0.00  0.00    +0.216 C 
ATOM     51  N   UNK A   0       7.224   5.689  26.241  0.00  0.00    -0.291 N 
ATOM     52  C   UNK A   0       6.465   6.915  25.999  0.00  0.00    +0.133 C 
ATOM     53  O   UNK A   0       7.465   3.709  27.397  0.00  0.00    -0.276 OA
BRANCH  50  54
ATOM     54  C   UNK A   0       5.482   4.980  27.897  0.00  0.00    +0.096 C 
BRANCH  54  55
ATOM     55  C   UNK A   0       5.378   4.258  29.245  0.00  0.00    +0.009 C 
BRANCH  55  56
ATOM     56  C   UNK A   0       4.539   2.981  29.136  0.00  0.00    +0.000 C 
BRANCH  56  57
ATOM     57  C   UNK A   0       3.082   3.226  29.525  0.00  0.00    +0.000 C 
BRANCH  57  58
ATOM     58  C   UNK A   0       2.207   2.063  29.065  0.00  0.00    +0.000 C 
BRANCH  58  59
ATOM     59  C   UNK A   0       1.324   2.462  27.886  0.00  0.00    +0.000 C 
BRANCH  59  60
ATOM     60  C   UNK A   0       1.941   1.983  26.573  0.00  0.00    +0.000 C 
BRANCH  60  61
ATOM     61  C   UNK A   0       2.310   3.160  25.670  0.00  0.00    +0.003 C 
BRANCH  61  63
ATOM     62  C   UNK A   0       4.230   4.273  24.504  0.00  0.00    +0.007 C 
ATOM     63  C   UNK A   0       3.601   2.927  24.867  0.00  0.00    -0.017 C 
ATOM     64  C   UNK A   0       4.617   2.069  25.625  0.00  0.00    +0.007 C 
ENDBRANCH  61  63
ENDBRANCH  60  61
ENDBRANCH  59  60
ENDBRANCH  58  59
ENDBRANCH  57  58
ENDBRANCH  56  57
ENDBRANCH  55  56
ENDBRANCH  54  55
ENDBRANCH  50  54
ENDBRANCH  49  51
BRANCH  49  65
ATOM     65  C   UNK A   0       9.373   7.004  25.811  0.00  0.00    +0.187 C 
BRANCH  65  66
ATOM     66  O   UNK A   0      10.796   6.938  25.791  0.00  0.00    -0.393 OA
ATOM     67  H   UNK A   0      11.146   7.843  25.861  0.00  0.00    +0.209 HD
ENDBRANCH  65  66
ENDBRANCH  49  65
ENDBRANCH  45  49
ENDBRANCH  43  46
ENDBRANCH  39  43
ENDBRANCH  38  40
ENDBRANCH   1  38
TORSDOF 22
ENDMDL
MODEL 7
REMARK VINA RESULT:      -5.0      2.327      6.475
REMARK  Name = 
REMARK  28 active torsions:
REMARK  status: ('A' for Active; 'I' for Inactive)
REMARK    1  A    between atoms: C_1  and  C_2
REMARK    2  A    between atoms: C_2  and  C_3
REMARK    3  A    between atoms: C_2  and  C_4
REMARK    4  A    between atoms: C_4  and  C_5
REMARK    5  A    between atoms: C_5  and  C_6
REMARK    6  A    between atoms: C_6  and  C_7
REMARK    7  A    between atoms: C_7  and  C_8
REMARK    8  A    between atoms: C_8  and  C_9
REMARK    9  A    between atoms: C_9  and  C_10
REMARK   10  A    between atoms: C_10  and  C_11
REMARK   11  A    between atoms: C_11  and  C_12
REMARK   12  A    between atoms: N_14  and  C_15
REMARK   13  A    between atoms: N_14  and  C_16
REMARK   14  A    between atoms: C_16  and  C_18
REMARK   15  A    between atoms: C_16  and  C_20
REMARK   16  A    between atoms: C_18  and  O_19
REMARK   17  A    between atoms: N_22  and  CA_23
REMARK   18  A    between atoms: CA_23  and  CB_25
REMARK   19  A    between atoms: CA_23  and  C_26
REMARK   20  A    between atoms: N_28  and  CA_29
REMARK   21  A    between atoms: CA_29  and  C_30
REMARK   22  A    between atoms: N_32  and  C_33
REMARK   23  A    between atoms: N_32  and  C_34
REMARK   24  A    between atoms: C_39  and  O_40
REMARK   25  A    between atoms: C_47  and  C_58
REMARK   26  A    between atoms: CA_52  and  CB_54
REMARK   27  A    between atoms: C_58  and  O_59
REMARK   28  A    between atoms: C_63  and  O_64
REMARK                            x       y       z     vdW  Elec       q    Type
REMARK                         _______ _______ _______ _____ _____    ______ ____
ROOT
ATOM      1  C   GLY A   2       9.248  -1.528  23.151  0.00  0.00    +0.233 C 
ATOM      2  N   UNK A   3       9.877  -0.294  23.399  0.00  0.00    -0.288 N 
ATOM      3  C   UNK A   3      10.927  -0.219  24.468  0.00  0.00    +0.133 C 
ATOM      4  O   GLY A   2       8.440  -1.679  22.235  0.00  0.00    -0.274 OA
ENDROOT
BRANCH   2   5
ATOM      5  C   UNK A   3       9.666   1.039  22.542  0.00  0.00    +0.192 C 
ATOM      6  C   UNK A   3       8.428   1.881  21.573  0.00  0.00    +0.239 C 
ATOM      7  O   UNK A   3       8.332   1.443  20.401  0.00  0.00    -0.273 OA
ATOM      8  N   ALA A   4       7.588   3.001  21.718  0.00  0.00    -0.302 N 
ATOM      9  H   ALA A   4       7.229   3.033  20.769  0.00  0.00    +0.150 HD
ATOM     10  CA  ALA A   4       6.897   4.394  22.390  0.00  0.00    +0.156 C 
ATOM     11  CB  ALA A   4       7.614   5.690  21.923  0.00  0.00    +0.038 C 
ATOM     12  C   ALA A   4       5.688   4.747  23.555  0.00  0.00    +0.234 C 
ATOM     13  O   ALA A   4       4.610   4.146  23.496  0.00  0.00    -0.274 OA
ATOM     14  N   UNK A   5       5.819   5.814  24.469  0.00  0.00    -0.301 N 
ATOM     15  H   UNK A   5       6.280   6.650  24.138  0.00  0.00    +0.150 HD
ATOM     16  C   UNK A   5       5.278   5.989  25.915  0.00  0.00    +0.186 C 
ATOM     17  C   UNK A   5       4.308   4.909  26.489  0.00  0.00    +0.069 C 
ATOM     18  C   UNK A   5       4.845   3.509  26.332  0.00  0.00    -0.044 A 
ATOM     19  C   UNK A   5       4.023   2.483  25.864  0.00  0.00    +0.007 A 
ATOM     20  C   UNK A   5       4.593   1.478  25.096  0.00  0.00    +0.046 A 
ATOM     21  C   UNK A   5       5.949   1.579  24.756  0.00  0.00    +0.125 A 
ATOM     22  C   UNK A   5       6.800   2.573  25.347  0.00  0.00    +0.027 A 
ATOM     23  C   UNK A   5       8.197   2.937  24.966  0.00  0.00    +0.027 A 
ATOM     24  C   UNK A   5       8.915   1.883  24.578  0.00  0.00    +0.018 A 
ATOM     25  C   UNK A   5       8.867   4.183  24.784  0.00  0.00    +0.125 A 
ATOM     26  C   UNK A   5      10.096   4.323  24.091  0.00  0.00    +0.046 A 
ATOM     27  C   UNK A   5      10.578   3.248  23.398  0.00  0.00    +0.009 A 
ATOM     28  C   UNK A   5       6.229   3.367  26.295  0.00  0.00    +0.016 A 
ATOM     29  C   UNK A   5       9.863   2.084  23.583  0.00  0.00    -0.017 A 
BRANCH  25  30
ATOM     30  O   UNK A   5       8.288   5.355  25.156  0.00  0.00    -0.506 OA
ATOM     31  H   UNK A   5       8.849   6.108  24.899  0.00  0.00    +0.292 HD
ENDBRANCH  25  30
BRANCH  21  32
ATOM     32  O   UNK A   5       6.398   0.713  23.778  0.00  0.00    -0.506 OA
ATOM     33  H   UNK A   5       6.238  -0.206  24.053  0.00  0.00    +0.292 HD
ENDBRANCH  21  32
BRANCH  16  34
ATOM     34  C   UNK A   5       6.404   6.411  26.951  0.00  0.00    +0.326 C 
ATOM     35  O   UNK A   5       6.346   6.109  28.141  0.00  0.00    -0.249 OA
BRANCH  34  36
ATOM     36  O   UNK A   5       7.480   7.108  26.497  0.00  0.00    -0.479 OA
ATOM     37  H   UNK A   5       8.371   6.898  26.839  0.00  0.00    +0.295 HD
ENDBRANCH  34  36
ENDBRANCH  16  34
ENDBRANCH   2   5
BRANCH   1  38
ATOM     38  CA  GLY A   2       9.483  -2.683  24.219  0.00  0.00    +0.200 C 
BRANCH  38  40
ATOM     39  C   ALA A   1       8.130  -4.694  24.584  0.00  0.00    +0.233 C 
ATOM     40  N   GLY A   2       8.354  -3.350  24.867  0.00  0.00    -0.305 N 
ATOM     41  H   GLY A   2       8.077  -3.002  25.778  0.00  0.00    +0.149 HD
ATOM     42  O   ALA A   1       8.651  -5.258  23.599  0.00  0.00    -0.274 OA
BRANCH  39  43
ATOM     43  CA  ALA A   1       7.120  -5.421  25.497  0.00  0.00    +0.156 C 
ATOM     44  CB  ALA A   1       7.442  -5.092  26.934  0.00  0.00    +0.038 C 
BRANCH  43  46
ATOM     45  C   UNK A   0       4.999  -5.750  24.225  0.00  0.00    +0.236 C 
ATOM     46  N   ALA A   1       5.739  -5.025  25.149  0.00  0.00    -0.303 N 
ATOM     47  H   ALA A   1       5.541  -4.035  25.158  0.00  0.00    +0.149 HD
ATOM     48  O   UNK A   0       5.442  -6.776  23.705  0.00  0.00    -0.274 OA
BRANCH  45  49
ATOM     49  C   UNK A   0       3.503  -5.345  24.087  0.00  0.00    +0.187 C 
BRANCH  49  51
ATOM     50  C   UNK A   0       3.108  -5.540  26.521  0.00  0.00    +0.216 C 
ATOM     51  N   UNK A   0       2.883  -4.808  25.353  0.00  0.00    -0.291 N 
ATOM     52  C   UNK A   0       2.423  -3.420  25.387  0.00  0.00    +0.133 C 
ATOM     53  O   UNK A   0       3.543  -6.701  26.491  0.00  0.00    -0.276 OA
BRANCH  50  54
ATOM     54  C   UNK A   0       2.835  -4.848  27.858  0.00  0.00    +0.096 C 
BRANCH  54  55
ATOM     55  C   UNK A   0       4.092  -4.617  28.704  0.00  0.00    +0.009 C 
BRANCH  55  56
ATOM     56  C   UNK A   0       3.870  -3.523  29.753  0.00  0.00    +0.000 C 
BRANCH  56  57
ATOM     57  C   UNK A   0       3.020  -2.377  29.207  0.00  0.00    +0.000 C 
BRANCH  57  58
ATOM     58  C   UNK A   0       2.931  -1.248  30.229  0.00  0.00    +0.000 C 
BRANCH  58  59
ATOM     59  C   UNK A   0       3.552   0.039  29.694  0.00  0.00    +0.000 C 
BRANCH  59  60
ATOM     60  C   UNK A   0       4.104  -0.181  28.287  0.00  0.00    +0.000 C 
BRANCH  60  61
ATOM     61  C   UNK A   0       5.610   0.074  28.233  0.00  0.00    +0.003 C 
BRANCH  61  63
ATOM     62  C   UNK A   0       5.554  -1.669  26.432  0.00  0.00    +0.007 C 
ATOM     63  C   UNK A   0       6.395  -1.063  27.557  0.00  0.00    -0.017 C 
ATOM     64  C   UNK A   0       7.743  -0.597  27.003  0.00  0.00    +0.007 C 
ENDBRANCH  61  63
ENDBRANCH  60  61
ENDBRANCH  59  60
ENDBRANCH  58  59
ENDBRANCH  57  58
ENDBRANCH  56  57
ENDBRANCH  55  56
ENDBRANCH  54  55
ENDBRANCH  50  54
ENDBRANCH  49  51
BRANCH  49  65
ATOM     65  C   UNK A   0       2.739  -6.556  23.493  0.00  0.00    +0.187 C 
BRANCH  65  66
ATOM     66  O   UNK A   0       3.139  -7.818  24.019  0.00  0.00    -0.393 OA
ATOM     67  H   UNK A   0       4.060  -7.982  23.757  0.00  0.00    +0.209 HD
ENDBRANCH  65  66
ENDBRANCH  49  65
ENDBRANCH  45  49
ENDBRANCH  43  46
ENDBRANCH  39  43
ENDBRANCH  38  40
ENDBRANCH   1  38
TORSDOF 22
ENDMDL
MODEL 8
REMARK VINA RESULT:      -4.9      2.509      6.478
REMARK  Name = 
REMARK  28 active torsions:
REMARK  status: ('A' for Active; 'I' for Inactive)
REMARK    1  A    between atoms: C_1  and  C_2
REMARK    2  A    between atoms: C_2  and  C_3
REMARK    3  A    between atoms: C_2  and  C_4
REMARK    4  A    between atoms: C_4  and  C_5
REMARK    5  A    between atoms: C_5  and  C_6
REMARK    6  A    between atoms: C_6  and  C_7
REMARK    7  A    between atoms: C_7  and  C_8
REMARK    8  A    between atoms: C_8  and  C_9
REMARK    9  A    between atoms: C_9  and  C_10
REMARK   10  A    between atoms: C_10  and  C_11
REMARK   11  A    between atoms: C_11  and  C_12
REMARK   12  A    between atoms: N_14  and  C_15
REMARK   13  A    between atoms: N_14  and  C_16
REMARK   14  A    between atoms: C_16  and  C_18
REMARK   15  A    between atoms: C_16  and  C_20
REMARK   16  A    between atoms: C_18  and  O_19
REMARK   17  A    between atoms: N_22  and  CA_23
REMARK   18  A    between atoms: CA_23  and  CB_25
REMARK   19  A    between atoms: CA_23  and  C_26
REMARK   20  A    between atoms: N_28  and  CA_29
REMARK   21  A    between atoms: CA_29  and  C_30
REMARK   22  A    between atoms: N_32  and  C_33
REMARK   23  A    between atoms: N_32  and  C_34
REMARK   24  A    between atoms: C_39  and  O_40
REMARK   25  A    between atoms: C_47  and  C_58
REMARK   26  A    between atoms: CA_52  and  CB_54
REMARK   27  A    between atoms: C_58  and  O_59
REMARK   28  A    between atoms: C_63  and  O_64
REMARK                            x       y       z     vdW  Elec       q    Type
REMARK                         _______ _______ _______ _____ _____    ______ ____
ROOT
ATOM      1  C   GLY A   2       2.759  -1.328  27.391  0.00  0.00    +0.233 C 
ATOM      2  N   UNK A   3       3.251  -0.282  28.194  0.00  0.00    -0.288 N 
ATOM      3  C   UNK A   3       4.593  -0.441  28.846  0.00  0.00    +0.133 C 
ATOM      4  O   GLY A   2       1.707  -1.230  26.761  0.00  0.00    -0.274 OA
ENDROOT
BRANCH   2   5
ATOM      5  C   UNK A   3       2.558   1.146  28.379  0.00  0.00    +0.192 C 
ATOM      6  C   UNK A   3       2.884   2.767  29.048  0.00  0.00    +0.239 C 
ATOM      7  O   UNK A   3       2.716   2.834  30.290  0.00  0.00    -0.273 OA
ATOM      8  N   ALA A   4       3.170   4.052  28.550  0.00  0.00    -0.302 N 
ATOM      9  H   ALA A   4       3.108   4.560  29.427  0.00  0.00    +0.150 HD
ATOM     10  CA  ALA A   4       3.413   5.311  27.443  0.00  0.00    +0.156 C 
ATOM     11  CB  ALA A   4       2.106   6.098  27.152  0.00  0.00    +0.038 C 
ATOM     12  C   ALA A   4       4.699   5.870  26.455  0.00  0.00    +0.234 C 
ATOM     13  O   ALA A   4       5.825   5.985  26.951  0.00  0.00    -0.274 OA
ATOM     14  N   UNK A   5       4.481   6.361  25.151  0.00  0.00    -0.301 N 
ATOM     15  H   UNK A   5       3.629   6.879  24.989  0.00  0.00    +0.150 HD
ATOM     16  C   UNK A   5       5.388   6.339  23.889  0.00  0.00    +0.186 C 
ATOM     17  C   UNK A   5       6.854   5.824  24.028  0.00  0.00    +0.069 C 
ATOM     18  C   UNK A   5       6.933   4.482  24.712  0.00  0.00    -0.044 A 
ATOM     19  C   UNK A   5       7.872   4.252  25.717  0.00  0.00    +0.007 A 
ATOM     20  C   UNK A   5       7.534   3.394  26.753  0.00  0.00    +0.046 A 
ATOM     21  C   UNK A   5       6.239   2.860  26.789  0.00  0.00    +0.125 A 
ATOM     22  C   UNK A   5       5.333   3.010  25.685  0.00  0.00    +0.027 A 
ATOM     23  C   UNK A   5       3.880   2.675  25.631  0.00  0.00    +0.027 A 
ATOM     24  C   UNK A   5       3.578   1.582  26.331  0.00  0.00    +0.018 A 
ATOM     25  C   UNK A   5       2.737   3.360  25.120  0.00  0.00    +0.125 A 
ATOM     26  C   UNK A   5       1.402   3.032  25.467  0.00  0.00    +0.046 A 
ATOM     27  C   UNK A   5       1.194   2.142  26.484  0.00  0.00    +0.009 A 
ATOM     28  C   UNK A   5       5.826   3.647  24.586  0.00  0.00    +0.016 A 
ATOM     29  C   UNK A   5       2.341   1.545  26.962  0.00  0.00    -0.017 A 
BRANCH  25  30
ATOM     30  O   UNK A   5       2.868   4.477  24.357  0.00  0.00    -0.506 OA
ATOM     31  H   UNK A   5       2.356   4.388  23.534  0.00  0.00    +0.292 HD
ENDBRANCH  25  30
BRANCH  21  32
ATOM     32  O   UNK A   5       5.867   2.240  27.966  0.00  0.00    -0.506 OA
ATOM     33  H   UNK A   5       6.049   1.287  27.909  0.00  0.00    +0.292 HD
ENDBRANCH  21  32
BRANCH  16  34
ATOM     34  C   UNK A   5       4.654   5.756  22.608  0.00  0.00    +0.326 C 
ATOM     35  O   UNK A   5       3.663   6.294  22.119  0.00  0.00    -0.249 OA
BRANCH  34  36
ATOM     36  O   UNK A   5       5.158   4.638  22.020  0.00  0.00    -0.479 OA
ATOM     37  H   UNK A   5       6.118   4.460  22.063  0.00  0.00    +0.295 HD
ENDBRANCH  34  36
ENDBRANCH  16  34
ENDBRANCH   2   5
BRANCH   1  38
ATOM     38  CA  GLY A   2       3.526  -2.719  27.471  0.00  0.00    +0.200 C 
BRANCH  38  40
ATOM     39  C   ALA A   1       3.008  -4.612  26.002  0.00  0.00    +0.233 C 
ATOM     40  N   GLY A   2       3.800  -3.497  26.263  0.00  0.00    -0.305 N 
ATOM     41  H   GLY A   2       4.193  -2.996  25.473  0.00  0.00    +0.149 HD
ATOM     42  O   ALA A   1       2.294  -5.136  26.881  0.00  0.00    -0.274 OA
BRANCH  39  43
ATOM     43  CA  ALA A   1       3.142  -5.224  24.590  0.00  0.00    +0.156 C 
ATOM     44  CB  ALA A   1       2.075  -4.632  23.703  0.00  0.00    +0.038 C 
BRANCH  43  46
ATOM     45  C   UNK A   0       5.361  -6.021  23.778  0.00  0.00    +0.236 C 
ATOM     46  N   ALA A   1       4.494  -4.972  24.051  0.00  0.00    -0.303 N 
ATOM     47  H   ALA A   1       4.949  -4.123  24.357  0.00  0.00    +0.149 HD
ATOM     48  O   UNK A   0       5.019  -7.196  23.921  0.00  0.00    -0.274 OA
BRANCH  45  49
ATOM     49  C   UNK A   0       6.677  -5.638  23.040  0.00  0.00    +0.187 C 
BRANCH  49  51
ATOM     50  C   UNK A   0       8.055  -4.315  24.610  0.00  0.00    +0.216 C 
ATOM     51  N   UNK A   0       7.265  -4.314  23.458  0.00  0.00    -0.291 N 
ATOM     52  C   UNK A   0       7.309  -3.217  22.492  0.00  0.00    +0.133 C 
ATOM     53  O   UNK A   0       8.052  -5.267  25.405  0.00  0.00    -0.276 OA
BRANCH  50  54
ATOM     54  C   UNK A   0       8.965  -3.108  24.850  0.00  0.00    +0.096 C 
BRANCH  54  55
ATOM     55  C   UNK A   0       8.697  -2.382  26.172  0.00  0.00    +0.009 C 
BRANCH  55  56
ATOM     56  C   UNK A   0       7.202  -2.115  26.375  0.00  0.00    +0.000 C 
BRANCH  56  57
ATOM     57  C   UNK A   0       6.831  -0.675  26.026  0.00  0.00    +0.000 C 
BRANCH  57  58
ATOM     58  C   UNK A   0       6.025  -0.632  24.731  0.00  0.00    +0.000 C 
BRANCH  58  59
ATOM     59  C   UNK A   0       6.722   0.214  23.669  0.00  0.00    +0.000 C 
BRANCH  59  60
ATOM     60  C   UNK A   0       8.135   0.576  24.120  0.00  0.00    +0.000 C 
BRANCH  60  61
ATOM     61  C   UNK A   0       8.740   1.667  23.236  0.00  0.00    +0.003 C 
BRANCH  61  63
ATOM     62  C   UNK A   0      10.741   3.171  23.361  0.00  0.00    +0.007 C 
ATOM     63  C   UNK A   0      10.276   1.715  23.295  0.00  0.00    -0.017 C 
ATOM     64  C   UNK A   0      10.842   0.937  24.485  0.00  0.00    +0.007 C 
ENDBRANCH  61  63
ENDBRANCH  60  61
ENDBRANCH  59  60
ENDBRANCH  58  59
ENDBRANCH  57  58
ENDBRANCH  56  57
ENDBRANCH  55  56
ENDBRANCH  54  55
ENDBRANCH  50  54
ENDBRANCH  49  51
BRANCH  49  65
ATOM     65  C   UNK A   0       6.410  -5.739  21.516  0.00  0.00    +0.187 C 
BRANCH  65  66
ATOM     66  O   UNK A   0       5.191  -6.392  21.175  0.00  0.00    -0.393 OA
ATOM     67  H   UNK A   0       5.036  -7.107  21.815  0.00  0.00    +0.209 HD
ENDBRANCH  65  66
ENDBRANCH  49  65
ENDBRANCH  45  49
ENDBRANCH  43  46
ENDBRANCH  39  43
ENDBRANCH  38  40
ENDBRANCH   1  38
TORSDOF 22
ENDMDL
MODEL 9
REMARK VINA RESULT:      -4.8      2.221      6.859
REMARK  Name = 
REMARK  28 active torsions:
REMARK  status: ('A' for Active; 'I' for Inactive)
REMARK    1  A    between atoms: C_1  and  C_2
REMARK    2  A    between atoms: C_2  and  C_3
REMARK    3  A    between atoms: C_2  and  C_4
REMARK    4  A    between atoms: C_4  and  C_5
REMARK    5  A    between atoms: C_5  and  C_6
REMARK    6  A    between atoms: C_6  and  C_7
REMARK    7  A    between atoms: C_7  and  C_8
REMARK    8  A    between atoms: C_8  and  C_9
REMARK    9  A    between atoms: C_9  and  C_10
REMARK   10  A    between atoms: C_10  and  C_11
REMARK   11  A    between atoms: C_11  and  C_12
REMARK   12  A    between atoms: N_14  and  C_15
REMARK   13  A    between atoms: N_14  and  C_16
REMARK   14  A    between atoms: C_16  and  C_18
REMARK   15  A    between atoms: C_16  and  C_20
REMARK   16  A    between atoms: C_18  and  O_19
REMARK   17  A    between atoms: N_22  and  CA_23
REMARK   18  A    between atoms: CA_23  and  CB_25
REMARK   19  A    between atoms: CA_23  and  C_26
REMARK   20  A    between atoms: N_28  and  CA_29
REMARK   21  A    between atoms: CA_29  and  C_30
REMARK   22  A    between atoms: N_32  and  C_33
REMARK   23  A    between atoms: N_32  and  C_34
REMARK   24  A    between atoms: C_39  and  O_40
REMARK   25  A    between atoms: C_47  and  C_58
REMARK   26  A    between atoms: CA_52  and  CB_54
REMARK   27  A    between atoms: C_58  and  O_59
REMARK   28  A    between atoms: C_63  and  O_64
REMARK                            x       y       z     vdW  Elec       q    Type
REMARK                         _______ _______ _______ _____ _____    ______ ____
ROOT
ATOM      1  C   GLY A   2       9.323   1.170  23.307  0.00  0.00    +0.233 C 
ATOM      2  N   UNK A   3       8.627   2.287  22.810  0.00  0.00    -0.288 N 
ATOM      3  C   UNK A   3       7.864   2.151  21.524  0.00  0.00    +0.133 C 
ATOM      4  O   GLY A   2       9.897   1.187  24.395  0.00  0.00    -0.274 OA
ENDROOT
BRANCH   2   5
ATOM      5  C   UNK A   3       8.460   3.685  23.568  0.00  0.00    +0.192 C 
ATOM      6  C   UNK A   3       7.737   5.300  23.349  0.00  0.00    +0.239 C 
ATOM      7  O   UNK A   3       8.449   6.074  22.663  0.00  0.00    -0.273 OA
ATOM      8  N   ALA A   4       6.624   6.009  23.837  0.00  0.00    -0.302 N 
ATOM      9  H   ALA A   4       6.849   6.916  23.442  0.00  0.00    +0.150 HD
ATOM     10  CA  ALA A   4       5.244   6.369  24.752  0.00  0.00    +0.156 C 
ATOM     11  CB  ALA A   4       5.591   7.107  26.073  0.00  0.00    +0.038 C 
ATOM     12  C   ALA A   4       3.567   6.018  24.667  0.00  0.00    +0.234 C 
ATOM     13  O   ALA A   4       2.983   6.160  23.587  0.00  0.00    -0.274 OA
ATOM     14  N   UNK A   5       2.801   5.740  25.819  0.00  0.00    -0.301 N 
ATOM     15  H   UNK A   5       3.039   6.241  26.663  0.00  0.00    +0.150 HD
ATOM     16  C   UNK A   5       1.546   4.844  26.016  0.00  0.00    +0.186 C 
ATOM     17  C   UNK A   5       0.872   4.209  24.760  0.00  0.00    +0.069 C 
ATOM     18  C   UNK A   5       1.859   3.485  23.879  0.00  0.00    -0.044 A 
ATOM     19  C   UNK A   5       1.841   3.665  22.496  0.00  0.00    +0.007 A 
ATOM     20  C   UNK A   5       3.043   3.610  21.806  0.00  0.00    +0.046 A 
ATOM     21  C   UNK A   5       4.230   3.457  22.536  0.00  0.00    +0.125 A 
ATOM     22  C   UNK A   5       4.216   3.151  23.938  0.00  0.00    +0.027 A 
ATOM     23  C   UNK A   5       5.364   3.141  24.893  0.00  0.00    +0.027 A 
ATOM     24  C   UNK A   5       6.492   2.703  24.334  0.00  0.00    +0.018 A 
ATOM     25  C   UNK A   5       5.539   3.643  26.217  0.00  0.00    +0.125 A 
ATOM     26  C   UNK A   5       6.804   3.837  26.824  0.00  0.00    +0.046 A 
ATOM     27  C   UNK A   5       7.924   3.719  26.048  0.00  0.00    +0.009 A 
ATOM     28  C   UNK A   5       2.990   2.962  24.500  0.00  0.00    +0.016 A 
ATOM     29  C   UNK A   5       7.684   3.269  24.768  0.00  0.00    -0.017 A 
BRANCH  25  30
ATOM     30  O   UNK A   5       4.484   4.100  26.941  0.00  0.00    -0.506 OA
ATOM     31  H   UNK A   5       4.605   5.041  27.160  0.00  0.00    +0.292 HD
ENDBRANCH  25  30
BRANCH  21  32
ATOM     32  O   UNK A   5       5.404   3.679  21.843  0.00  0.00    -0.506 OA
ATOM     33  H   UNK A   5       5.968   2.889  21.889  0.00  0.00    +0.292 HD
ENDBRANCH  21  32
BRANCH  16  34
ATOM     34  C   UNK A   5       1.704   3.813  27.211  0.00  0.00    +0.326 C 
ATOM     35  O   UNK A   5       1.399   2.627  27.098  0.00  0.00    -0.249 OA
BRANCH  34  36
ATOM     36  O   UNK A   5       2.218   4.254  28.391  0.00  0.00    -0.479 OA
ATOM     37  H   UNK A   5       1.708   4.133  29.216  0.00  0.00    +0.295 HD
ENDBRANCH  34  36
ENDBRANCH  16  34
ENDBRANCH   2   5
BRANCH   1  38
ATOM     38  CA  GLY A   2       9.494  -0.068  22.322  0.00  0.00    +0.200 C 
BRANCH  38  40
ATOM     39  C   ALA A   1       7.844  -1.825  22.768  0.00  0.00    +0.233 C 
ATOM     40  N   GLY A   2       9.178  -1.427  22.761  0.00  0.00    -0.305 N 
ATOM     41  H   GLY A   2       9.886  -2.136  22.606  0.00  0.00    +0.149 HD
ATOM     42  O   ALA A   1       6.908  -1.001  22.708  0.00  0.00    -0.274 OA
BRANCH  39  43
ATOM     43  CA  ALA A   1       7.587  -3.335  22.958  0.00  0.00    +0.156 C 
ATOM     44  CB  ALA A   1       8.623  -3.888  23.905  0.00  0.00    +0.038 C 
BRANCH  43  46
ATOM     45  C   UNK A   0       5.438  -4.602  22.981  0.00  0.00    +0.236 C 
ATOM     46  N   ALA A   1       6.217  -3.560  23.465  0.00  0.00    -0.303 N 
ATOM     47  H   ALA A   1       5.695  -2.736  23.729  0.00  0.00    +0.149 HD
ATOM     48  O   UNK A   0       5.875  -5.406  22.156  0.00  0.00    -0.274 OA
BRANCH  45  49
ATOM     49  C   UNK A   0       4.093  -4.846  23.726  0.00  0.00    +0.187 C 
BRANCH  49  51
ATOM     50  C   UNK A   0       3.453  -4.192  26.024  0.00  0.00    +0.216 C 
ATOM     51  N   UNK A   0       4.230  -5.027  25.217  0.00  0.00    -0.291 N 
ATOM     52  C   UNK A   0       4.836  -6.254  25.732  0.00  0.00    +0.133 C 
ATOM     53  O   UNK A   0       2.901  -3.177  25.574  0.00  0.00    -0.276 OA
BRANCH  50  54
ATOM     54  C   UNK A   0       3.270  -4.589  27.490  0.00  0.00    +0.096 C 
BRANCH  54  55
ATOM     55  C   UNK A   0       4.006  -3.676  28.476  0.00  0.00    +0.009 C 
BRANCH  55  56
ATOM     56  C   UNK A   0       3.058  -2.651  29.108  0.00  0.00    +0.000 C 
BRANCH  56  57
ATOM     57  C   UNK A   0       3.657  -1.246  29.103  0.00  0.00    +0.000 C 
BRANCH  57  58
ATOM     58  C   UNK A   0       3.035  -0.407  27.990  0.00  0.00    +0.000 C 
BRANCH  58  59
ATOM     59  C   UNK A   0       4.054   0.546  27.374  0.00  0.00    +0.000 C 
BRANCH  59  60
ATOM     60  C   UNK A   0       4.953  -0.199  26.390  0.00  0.00    +0.000 C 
BRANCH  60  61
ATOM     61  C   UNK A   0       6.432   0.013  26.714  0.00  0.00    +0.003 C 
BRANCH  61  63
ATOM     62  C   UNK A   0       8.749  -0.940  26.791  0.00  0.00    +0.007 C 
ATOM     63  C   UNK A   0       7.323  -1.164  26.285  0.00  0.00    -0.017 C 
ATOM     64  C   UNK A   0       6.801  -2.511  26.789  0.00  0.00    +0.007 C 
ENDBRANCH  61  63
ENDBRANCH  60  61
ENDBRANCH  59  60
ENDBRANCH  58  59
ENDBRANCH  57  58
ENDBRANCH  56  57
ENDBRANCH  55  56
ENDBRANCH  54  55
ENDBRANCH  50  54
ENDBRANCH  49  51
BRANCH  49  65
ATOM     65  C   UNK A   0       3.374  -6.027  23.026  0.00  0.00    +0.187 C 
BRANCH  65  66
ATOM     66  O   UNK A   0       2.017  -5.766  22.679  0.00  0.00    -0.393 OA
ATOM     67  H   UNK A   0       1.900  -5.958  21.733  0.00  0.00    +0.209 HD
ENDBRANCH  65  66
ENDBRANCH  49  65
ENDBRANCH  45  49
ENDBRANCH  43  46
ENDBRANCH  39  43
ENDBRANCH  38  40
ENDBRANCH   1  38
TORSDOF 22
ENDMDL
