MODEL 1
REMARK VINA RESULT:      -7.7      0.000      0.000
REMARK  Name = 
REMARK  1 active torsions:
REMARK  status: ('A' for Active; 'I' for Inactive)
REMARK    1  A    between atoms: O_1  and  N_2
REMARK                            x       y       z     vdW  Elec       q    Type
REMARK                         _______ _______ _______ _____ _____    ______ ____
ROOT
ATOM      1  N   UNL     1       6.034  -1.221  25.043  0.00  0.00    -0.085 NA
ATOM      2  C   UNL     1       7.156  -1.491  24.458  0.00  0.00    +0.133 C 
ATOM      3  C   UNL     1       7.877  -0.723  23.400  0.00  0.00    +0.026 A 
ATOM      4  C   UNL     1       7.589   0.461  22.743  0.00  0.00    +0.012 A 
ATOM      5  C   UNL     1       8.490   0.915  21.775  0.00  0.00    +0.001 A 
ATOM      6  C   UNL     1       9.655   0.187  21.483  0.00  0.00    +0.002 A 
ATOM      7  C   UNL     1       9.934  -1.007  22.154  0.00  0.00    +0.024 A 
ATOM      8  C   UNL     1       9.040  -1.447  23.111  0.00  0.00    +0.041 A 
ATOM      9  N   UNL     1       9.122  -2.597  23.872  0.00  0.00    -0.312 N 
ATOM     10  H   UNL     1       9.877  -3.273  23.875  0.00  0.00    +0.152 HD
ATOM     11  C   UNL     1       8.039  -2.716  24.730  0.00  0.00    +0.074 C 
ATOM     12  C   UNL     1       7.839  -3.716  25.610  0.00  0.00    +0.069 C 
ATOM     13  C   UNL     1       6.809  -4.080  26.600  0.00  0.00    +0.010 A 
ATOM     14  C   UNL     1       5.618  -3.528  27.036  0.00  0.00    +0.011 A 
ATOM     15  C   UNL     1       4.880  -4.189  28.031  0.00  0.00    +0.016 A 
ATOM     16  C   UNL     1       5.338  -5.393  28.583  0.00  0.00    +0.020 A 
ATOM     17  C   UNL     1       6.534  -5.963  28.159  0.00  0.00    +0.039 A 
ATOM     18 BR   UNL     1       4.315  -6.255  29.920  0.00  0.00    -0.050 Br
ATOM     19  C   UNL     1       7.238  -5.288  27.177  0.00  0.00    +0.043 A 
ATOM     20  N   UNL     1       8.446  -5.698  26.629  0.00  0.00    -0.281 N 
ATOM     21  H   UNL     1       8.958  -6.531  26.878  0.00  0.00    +0.155 HD
ATOM     22  C   UNL     1       8.889  -4.808  25.672  0.00  0.00    +0.251 C 
ATOM     23  O   UNL     1       9.918  -4.898  25.025  0.00  0.00    -0.270 OA
ENDROOT
BRANCH   1  24
ATOM     24  O   UNL     1       5.441  -0.041  24.600  0.00  0.00    -0.409 OA
ATOM     25  H   UNL     1       5.462  -0.143  23.630  0.00  0.00    +0.328 HD
ENDBRANCH   1  24
TORSDOF 1
ENDMDL
MODEL 2
REMARK VINA RESULT:      -7.6      2.293      2.470
REMARK  Name = 
REMARK  1 active torsions:
REMARK  status: ('A' for Active; 'I' for Inactive)
REMARK    1  A    between atoms: O_1  and  N_2
REMARK                            x       y       z     vdW  Elec       q    Type
REMARK                         _______ _______ _______ _____ _____    ______ ____
ROOT
ATOM      1  N   UNL     1       8.466  -1.092  26.142  0.00  0.00    -0.085 NA
ATOM      2  C   UNL     1       8.500  -1.010  24.851  0.00  0.00    +0.133 C 
ATOM      3  C   UNL     1       9.124   0.035  23.988  0.00  0.00    +0.026 A 
ATOM      4  C   UNL     1       9.831   1.191  24.279  0.00  0.00    +0.012 A 
ATOM      5  C   UNL     1      10.284   1.974  23.213  0.00  0.00    +0.001 A 
ATOM      6  C   UNL     1      10.028   1.594  21.886  0.00  0.00    +0.002 A 
ATOM      7  C   UNL     1       9.315   0.426  21.605  0.00  0.00    +0.024 A 
ATOM      8  C   UNL     1       8.873  -0.344  22.664  0.00  0.00    +0.041 A 
ATOM      9  N   UNL     1       8.146  -1.518  22.604  0.00  0.00    -0.312 N 
ATOM     10  H   UNL     1       7.864  -2.017  21.768  0.00  0.00    +0.152 HD
ATOM     11  C   UNL     1       7.876  -2.012  23.871  0.00  0.00    +0.074 C 
ATOM     12  C   UNL     1       7.204  -3.146  24.145  0.00  0.00    +0.069 C 
ATOM     13  C   UNL     1       6.784  -3.876  25.356  0.00  0.00    +0.010 A 
ATOM     14  C   UNL     1       6.921  -3.689  26.720  0.00  0.00    +0.011 A 
ATOM     15  C   UNL     1       6.362  -4.629  27.600  0.00  0.00    +0.016 A 
ATOM     16  C   UNL     1       5.674  -5.748  27.112  0.00  0.00    +0.020 A 
ATOM     17  C   UNL     1       5.527  -5.954  25.744  0.00  0.00    +0.039 A 
ATOM     18 BR   UNL     1       4.934  -6.991  28.329  0.00  0.00    -0.050 Br
ATOM     19  C   UNL     1       6.088  -5.010  24.903  0.00  0.00    +0.043 A 
ATOM     20  N   UNL     1       6.046  -5.044  23.516  0.00  0.00    -0.281 N 
ATOM     21  H   UNL     1       5.607  -5.756  22.953  0.00  0.00    +0.155 HD
ATOM     22  C   UNL     1       6.697  -3.957  22.968  0.00  0.00    +0.251 C 
ATOM     23  O   UNL     1       6.829  -3.718  21.780  0.00  0.00    -0.270 OA
ENDROOT
BRANCH   1  24
ATOM     24  O   UNL     1       9.114  -0.040  26.786  0.00  0.00    -0.409 OA
ATOM     25  H   UNL     1       9.910  -0.470  27.150  0.00  0.00    +0.328 HD
ENDBRANCH   1  24
TORSDOF 1
ENDMDL
MODEL 3
REMARK VINA RESULT:      -7.4      3.798      5.345
REMARK  Name = 
REMARK  1 active torsions:
REMARK  status: ('A' for Active; 'I' for Inactive)
REMARK    1  A    between atoms: O_1  and  N_2
REMARK                            x       y       z     vdW  Elec       q    Type
REMARK                         _______ _______ _______ _____ _____    ______ ____
ROOT
ATOM      1  N   UNL     1       6.614   2.122  22.428  0.00  0.00    -0.085 NA
ATOM      2  C   UNL     1       7.693   2.610  22.949  0.00  0.00    +0.133 C 
ATOM      3  C   UNL     1       8.132   4.034  23.048  0.00  0.00    +0.026 A 
ATOM      4  C   UNL     1       7.554   5.223  22.635  0.00  0.00    +0.012 A 
ATOM      5  C   UNL     1       8.247   6.413  22.879  0.00  0.00    +0.001 A 
ATOM      6  C   UNL     1       9.492   6.397  23.526  0.00  0.00    +0.002 A 
ATOM      7  C   UNL     1      10.065   5.191  23.938  0.00  0.00    +0.024 A 
ATOM      8  C   UNL     1       9.373   4.020  23.697  0.00  0.00    +0.041 A 
ATOM      9  N   UNL     1       9.765   2.732  24.009  0.00  0.00    -0.312 N 
ATOM     10  H   UNL     1      10.604   2.454  24.506  0.00  0.00    +0.152 HD
ATOM     11  C   UNL     1       8.816   1.802  23.612  0.00  0.00    +0.074 C 
ATOM     12  C   UNL     1       8.898   0.470  23.791  0.00  0.00    +0.069 C 
ATOM     13  C   UNL     1       8.067  -0.706  23.473  0.00  0.00    +0.010 A 
ATOM     14  C   UNL     1       6.846  -0.916  22.857  0.00  0.00    +0.011 A 
ATOM     15  C   UNL     1       6.361  -2.227  22.726  0.00  0.00    +0.016 A 
ATOM     16  C   UNL     1       7.098  -3.316  23.211  0.00  0.00    +0.020 A 
ATOM     17  C   UNL     1       8.327  -3.125  23.835  0.00  0.00    +0.039 A 
ATOM     18 BR   UNL     1       6.413  -5.067  23.014  0.00  0.00    -0.050 Br
ATOM     19  C   UNL     1       8.778  -1.821  23.948  0.00  0.00    +0.043 A 
ATOM     20  N   UNL     1       9.974  -1.434  24.536  0.00  0.00    -0.281 N 
ATOM     21  H   UNL     1      10.656  -2.048  24.953  0.00  0.00    +0.155 HD
ATOM     22  C   UNL     1      10.134  -0.063  24.490  0.00  0.00    +0.251 C 
ATOM     23  O   UNL     1      11.079   0.568  24.930  0.00  0.00    -0.270 OA
ENDROOT
BRANCH   1  24
ATOM     24  O   UNL     1       5.765   3.087  21.892  0.00  0.00    -0.409 OA
ATOM     25  H   UNL     1       5.950   3.028  20.937  0.00  0.00    +0.328 HD
ENDBRANCH   1  24
TORSDOF 1
ENDMDL
MODEL 4
REMARK VINA RESULT:      -7.4      3.789      4.087
REMARK  Name = 
REMARK  1 active torsions:
REMARK  status: ('A' for Active; 'I' for Inactive)
REMARK    1  A    between atoms: O_1  and  N_2
REMARK                            x       y       z     vdW  Elec       q    Type
REMARK                         _______ _______ _______ _____ _____    ______ ____
ROOT
ATOM      1  N   UNL     1       5.470  -4.172  22.079  0.00  0.00    -0.085 NA
ATOM      2  C   UNL     1       6.400  -4.033  22.967  0.00  0.00    +0.133 C 
ATOM      3  C   UNL     1       7.613  -3.163  22.935  0.00  0.00    +0.026 A 
ATOM      4  C   UNL     1       8.103  -2.274  21.993  0.00  0.00    +0.012 A 
ATOM      5  C   UNL     1       9.300  -1.607  22.274  0.00  0.00    +0.001 A 
ATOM      6  C   UNL     1       9.981  -1.837  23.480  0.00  0.00    +0.002 A 
ATOM      7  C   UNL     1       9.477  -2.737  24.422  0.00  0.00    +0.024 A 
ATOM      8  C   UNL     1       8.292  -3.389  24.139  0.00  0.00    +0.041 A 
ATOM      9  N   UNL     1       7.636  -4.318  24.923  0.00  0.00    -0.312 N 
ATOM     10  H   UNL     1       7.903  -4.631  25.849  0.00  0.00    +0.152 HD
ATOM     11  C   UNL     1       6.473  -4.764  24.314  0.00  0.00    +0.074 C 
ATOM     12  C   UNL     1       5.607  -5.657  24.832  0.00  0.00    +0.069 C 
ATOM     13  C   UNL     1       4.343  -6.290  24.411  0.00  0.00    +0.010 A 
ATOM     14  C   UNL     1       3.522  -6.216  23.300  0.00  0.00    +0.011 A 
ATOM     15  C   UNL     1       2.360  -7.002  23.254  0.00  0.00    +0.016 A 
ATOM     16  C   UNL     1       2.027  -7.854  24.316  0.00  0.00    +0.020 A 
ATOM     17  C   UNL     1       2.839  -7.941  25.442  0.00  0.00    +0.039 A 
ATOM     18 BR   UNL     1       0.454  -8.899  24.216  0.00  0.00    -0.050 Br
ATOM     19  C   UNL     1       3.977  -7.154  25.458  0.00  0.00    +0.043 A 
ATOM     20  N   UNL     1       4.905  -7.105  26.489  0.00  0.00    -0.281 N 
ATOM     21  H   UNL     1       4.864  -7.630  27.349  0.00  0.00    +0.155 HD
ATOM     22  C   UNL     1       5.928  -6.224  26.201  0.00  0.00    +0.251 C 
ATOM     23  O   UNL     1       6.881  -5.966  26.916  0.00  0.00    -0.270 OA
ENDROOT
BRANCH   1  24
ATOM     24  O   UNL     1       5.657  -3.384  20.945  0.00  0.00    -0.409 OA
ATOM     25  H   UNL     1       4.902  -2.768  20.986  0.00  0.00    +0.328 HD
ENDBRANCH   1  24
TORSDOF 1
ENDMDL
MODEL 5
REMARK VINA RESULT:      -7.2      4.095      6.395
REMARK  Name = 
REMARK  1 active torsions:
REMARK  status: ('A' for Active; 'I' for Inactive)
REMARK    1  A    between atoms: O_1  and  N_2
REMARK                            x       y       z     vdW  Elec       q    Type
REMARK                         _______ _______ _______ _____ _____    ______ ____
ROOT
ATOM      1  N   UNL     1       5.664  -1.348  24.575  0.00  0.00    -0.085 NA
ATOM      2  C   UNL     1       6.358  -2.148  23.832  0.00  0.00    +0.133 C 
ATOM      3  C   UNL     1       6.076  -3.564  23.449  0.00  0.00    +0.026 A 
ATOM      4  C   UNL     1       5.035  -4.426  23.753  0.00  0.00    +0.012 A 
ATOM      5  C   UNL     1       5.078  -5.722  23.228  0.00  0.00    +0.001 A 
ATOM      6  C   UNL     1       6.147  -6.131  22.415  0.00  0.00    +0.002 A 
ATOM      7  C   UNL     1       7.190  -5.251  22.116  0.00  0.00    +0.024 A 
ATOM      8  C   UNL     1       7.140  -3.972  22.636  0.00  0.00    +0.041 A 
ATOM      9  N   UNL     1       8.068  -2.961  22.473  0.00  0.00    -0.312 N 
ATOM     10  H   UNL     1       8.909  -2.992  21.907  0.00  0.00    +0.152 HD
ATOM     11  C   UNL     1       7.687  -1.810  23.144  0.00  0.00    +0.074 C 
ATOM     12  C   UNL     1       8.370  -0.649  23.165  0.00  0.00    +0.069 C 
ATOM     13  C   UNL     1       8.204   0.680  23.781  0.00  0.00    +0.010 A 
ATOM     14  C   UNL     1       7.260   1.281  24.594  0.00  0.00    +0.011 A 
ATOM     15  C   UNL     1       7.451   2.613  24.997  0.00  0.00    +0.016 A 
ATOM     16  C   UNL     1       8.580   3.332  24.583  0.00  0.00    +0.020 A 
ATOM     17  C   UNL     1       9.540   2.745  23.764  0.00  0.00    +0.039 A 
ATOM     18 BR   UNL     1       8.804   5.123  25.149  0.00  0.00    -0.050 Br
ATOM     19  C   UNL     1       9.323   1.432  23.385  0.00  0.00    +0.043 A 
ATOM     20  N   UNL     1      10.164   0.681  22.575  0.00  0.00    -0.281 N 
ATOM     21  H   UNL     1      11.029   0.998  22.163  0.00  0.00    +0.155 HD
ATOM     22  C   UNL     1       9.669  -0.593  22.383  0.00  0.00    +0.251 C 
ATOM     23  O   UNL     1      10.183  -1.474  21.717  0.00  0.00    -0.270 OA
ENDROOT
BRANCH   1  24
ATOM     24  O   UNL     1       4.495  -1.920  25.073  0.00  0.00    -0.409 OA
ATOM     25  H   UNL     1       3.805  -1.513  24.517  0.00  0.00    +0.328 HD
ENDBRANCH   1  24
TORSDOF 1
ENDMDL
MODEL 6
REMARK VINA RESULT:      -7.1      4.349      7.039
REMARK  Name = 
REMARK  1 active torsions:
REMARK  status: ('A' for Active; 'I' for Inactive)
REMARK    1  A    between atoms: O_1  and  N_2
REMARK                            x       y       z     vdW  Elec       q    Type
REMARK                         _______ _______ _______ _____ _____    ______ ____
ROOT
ATOM      1  N   UNL     1       6.543  -1.053  22.855  0.00  0.00    -0.085 NA
ATOM      2  C   UNL     1       7.580  -1.533  23.461  0.00  0.00    +0.133 C 
ATOM      3  C   UNL     1       7.887  -2.947  23.828  0.00  0.00    +0.026 A 
ATOM      4  C   UNL     1       7.195  -4.134  23.646  0.00  0.00    +0.012 A 
ATOM      5  C   UNL     1       7.771  -5.314  24.126  0.00  0.00    +0.001 A 
ATOM      6  C   UNL     1       9.017  -5.292  24.773  0.00  0.00    +0.002 A 
ATOM      7  C   UNL     1       9.705  -4.088  24.950  0.00  0.00    +0.024 A 
ATOM      8  C   UNL     1       9.131  -2.927  24.470  0.00  0.00    +0.041 A 
ATOM      9  N   UNL     1       9.636  -1.643  24.553  0.00  0.00    -0.312 N 
ATOM     10  H   UNL     1      10.530  -1.364  24.942  0.00  0.00    +0.152 HD
ATOM     11  C   UNL     1       8.783  -0.724  23.963  0.00  0.00    +0.074 C 
ATOM     12  C   UNL     1       9.000   0.602  23.866  0.00  0.00    +0.069 C 
ATOM     13  C   UNL     1       8.284   1.767  23.316  0.00  0.00    +0.010 A 
ATOM     14  C   UNL     1       7.082   1.970  22.662  0.00  0.00    +0.011 A 
ATOM     15  C   UNL     1       6.720   3.272  22.280  0.00  0.00    +0.016 A 
ATOM     16  C   UNL     1       7.561   4.360  22.555  0.00  0.00    +0.020 A 
ATOM     17  C   UNL     1       8.774   4.176  23.212  0.00  0.00    +0.039 A 
ATOM     18 BR   UNL     1       7.038   6.099  22.029  0.00  0.00    -0.050 Br
ATOM     19  C   UNL     1       9.101   2.881  23.575  0.00  0.00    +0.043 A 
ATOM     20  N   UNL     1      10.263   2.501  24.234  0.00  0.00    -0.281 N 
ATOM     21  H   UNL     1      11.007   3.117  24.525  0.00  0.00    +0.155 HD
ATOM     22  C   UNL     1      10.292   1.139  24.452  0.00  0.00    +0.251 C 
ATOM     23  O   UNL     1      11.183   0.515  25.002  0.00  0.00    -0.270 OA
ENDROOT
BRANCH   1  24
ATOM     24  O   UNL     1       5.599  -2.018  22.510  0.00  0.00    -0.409 OA
ATOM     25  H   UNL     1       4.759  -1.598  22.773  0.00  0.00    +0.328 HD
ENDBRANCH   1  24
TORSDOF 1
ENDMDL
MODEL 7
REMARK VINA RESULT:      -7.1      2.520      2.709
REMARK  Name = 
REMARK  1 active torsions:
REMARK  status: ('A' for Active; 'I' for Inactive)
REMARK    1  A    between atoms: O_1  and  N_2
REMARK                            x       y       z     vdW  Elec       q    Type
REMARK                         _______ _______ _______ _____ _____    ______ ____
ROOT
ATOM      1  N   UNL     1       6.079  -0.174  24.064  0.00  0.00    -0.085 NA
ATOM      2  C   UNL     1       7.368  -0.284  24.089  0.00  0.00    +0.133 C 
ATOM      3  C   UNL     1       8.408   0.785  24.026  0.00  0.00    +0.026 A 
ATOM      4  C   UNL     1       8.328   2.165  23.925  0.00  0.00    +0.012 A 
ATOM      5  C   UNL     1       9.520   2.894  23.880  0.00  0.00    +0.001 A 
ATOM      6  C   UNL     1      10.762   2.241  23.937  0.00  0.00    +0.002 A 
ATOM      7  C   UNL     1      10.829   0.849  24.040  0.00  0.00    +0.024 A 
ATOM      8  C   UNL     1       9.647   0.136  24.087  0.00  0.00    +0.041 A 
ATOM      9  N   UNL     1       9.494  -1.235  24.174  0.00  0.00    -0.312 N 
ATOM     10  H   UNL     1      10.232  -1.926  24.262  0.00  0.00    +0.152 HD
ATOM     11  C   UNL     1       8.156  -1.597  24.195  0.00  0.00    +0.074 C 
ATOM     12  C   UNL     1       7.683  -2.854  24.291  0.00  0.00    +0.069 C 
ATOM     13  C   UNL     1       6.357  -3.498  24.327  0.00  0.00    +0.010 A 
ATOM     14  C   UNL     1       5.045  -3.063  24.282  0.00  0.00    +0.011 A 
ATOM     15  C   UNL     1       4.007  -4.008  24.339  0.00  0.00    +0.016 A 
ATOM     16  C   UNL     1       4.288  -5.377  24.441  0.00  0.00    +0.020 A 
ATOM     17  C   UNL     1       5.602  -5.834  24.489  0.00  0.00    +0.039 A 
ATOM     18 BR   UNL     1       2.864  -6.618  24.512  0.00  0.00    -0.050 Br
ATOM     19  C   UNL     1       6.601  -4.879  24.431  0.00  0.00    +0.043 A 
ATOM     20  N   UNL     1       7.964  -5.140  24.465  0.00  0.00    -0.281 N 
ATOM     21  H   UNL     1       8.392  -6.050  24.539  0.00  0.00    +0.155 HD
ATOM     22  C   UNL     1       8.700  -3.975  24.388  0.00  0.00    +0.251 C 
ATOM     23  O   UNL     1       9.915  -3.886  24.400  0.00  0.00    -0.270 OA
ENDROOT
BRANCH   1  24
ATOM     24  O   UNL     1       5.632   1.142  23.961  0.00  0.00    -0.409 OA
ATOM     25  H   UNL     1       5.656   1.301  23.000  0.00  0.00    +0.328 HD
ENDBRANCH   1  24
TORSDOF 1
ENDMDL
MODEL 8
REMARK VINA RESULT:      -7.1      4.608      7.620
REMARK  Name = 
REMARK  1 active torsions:
REMARK  status: ('A' for Active; 'I' for Inactive)
REMARK    1  A    between atoms: O_1  and  N_2
REMARK                            x       y       z     vdW  Elec       q    Type
REMARK                         _______ _______ _______ _____ _____    ______ ____
ROOT
ATOM      1  N   UNL     1       9.728  -1.096  22.939  0.00  0.00    -0.085 NA
ATOM      2  C   UNL     1       8.456  -1.251  23.122  0.00  0.00    +0.133 C 
ATOM      3  C   UNL     1       7.639  -2.499  23.055  0.00  0.00    +0.026 A 
ATOM      4  C   UNL     1       7.965  -3.819  22.791  0.00  0.00    +0.012 A 
ATOM      5  C   UNL     1       6.937  -4.767  22.799  0.00  0.00    +0.001 A 
ATOM      6  C   UNL     1       5.613  -4.386  23.068  0.00  0.00    +0.002 A 
ATOM      7  C   UNL     1       5.297  -3.051  23.334  0.00  0.00    +0.024 A 
ATOM      8  C   UNL     1       6.319  -2.121  23.328  0.00  0.00    +0.041 A 
ATOM      9  N   UNL     1       6.219  -0.761  23.551  0.00  0.00    -0.312 N 
ATOM     10  H   UNL     1       5.382  -0.244  23.798  0.00  0.00    +0.152 HD
ATOM     11  C   UNL     1       7.455  -0.140  23.462  0.00  0.00    +0.074 C 
ATOM     12  C   UNL     1       7.690   1.174  23.645  0.00  0.00    +0.069 C 
ATOM     13  C   UNL     1       8.862   2.067  23.605  0.00  0.00    +0.010 A 
ATOM     14  C   UNL     1      10.216   1.912  23.364  0.00  0.00    +0.011 A 
ATOM     15  C   UNL     1      11.054   3.037  23.410  0.00  0.00    +0.016 A 
ATOM     16  C   UNL     1      10.534   4.307  23.696  0.00  0.00    +0.020 A 
ATOM     17  C   UNL     1       9.176   4.484  23.942  0.00  0.00    +0.039 A 
ATOM     18 BR   UNL     1      11.694   5.800  23.746  0.00  0.00    -0.050 Br
ATOM     19  C   UNL     1       8.377   3.355  23.889  0.00  0.00    +0.043 A 
ATOM     20  N   UNL     1       7.006   3.331  24.106  0.00  0.00    -0.281 N 
ATOM     21  H   UNL     1       6.427   4.127  24.329  0.00  0.00    +0.155 HD
ATOM     22  C   UNL     1       6.501   2.053  23.981  0.00  0.00    +0.251 C 
ATOM     23  O   UNL     1       5.336   1.720  24.119  0.00  0.00    -0.270 OA
ENDROOT
BRANCH   1  24
ATOM     24  O   UNL     1      10.399  -2.280  22.640  0.00  0.00    -0.409 OA
ATOM     25  H   UNL     1      11.159  -1.968  22.115  0.00  0.00    +0.328 HD
ENDBRANCH   1  24
TORSDOF 1
ENDMDL
MODEL 9
REMARK VINA RESULT:      -7.0      4.054      6.111
REMARK  Name = 
REMARK  1 active torsions:
REMARK  status: ('A' for Active; 'I' for Inactive)
REMARK    1  A    between atoms: O_1  and  N_2
REMARK                            x       y       z     vdW  Elec       q    Type
REMARK                         _______ _______ _______ _____ _____    ______ ____
ROOT
ATOM      1  N   UNL     1       5.291   1.965  23.372  0.00  0.00    -0.085 NA
ATOM      2  C   UNL     1       6.190   2.800  22.962  0.00  0.00    +0.133 C 
ATOM      3  C   UNL     1       6.078   4.271  22.734  0.00  0.00    +0.026 A 
ATOM      4  C   UNL     1       5.029   5.165  22.882  0.00  0.00    +0.012 A 
ATOM      5  C   UNL     1       5.258   6.508  22.569  0.00  0.00    +0.001 A 
ATOM      6  C   UNL     1       6.517   6.935  22.119  0.00  0.00    +0.002 A 
ATOM      7  C   UNL     1       7.567   6.024  21.974  0.00  0.00    +0.024 A 
ATOM      8  C   UNL     1       7.335   4.699  22.289  0.00  0.00    +0.041 A 
ATOM      9  N   UNL     1       8.225   3.646  22.205  0.00  0.00    -0.312 N 
ATOM     10  H   UNL     1       9.203   3.695  21.940  0.00  0.00    +0.152 HD
ATOM     11  C   UNL     1       7.640   2.453  22.600  0.00  0.00    +0.074 C 
ATOM     12  C   UNL     1       8.252   1.254  22.646  0.00  0.00    +0.069 C 
ATOM     13  C   UNL     1       7.878  -0.126  23.008  0.00  0.00    +0.010 A 
ATOM     14  C   UNL     1       6.730  -0.753  23.458  0.00  0.00    +0.011 A 
ATOM     15  C   UNL     1       6.754  -2.136  23.699  0.00  0.00    +0.016 A 
ATOM     16  C   UNL     1       7.922  -2.880  23.488  0.00  0.00    +0.020 A 
ATOM     17  C   UNL     1       9.087  -2.268  23.036  0.00  0.00    +0.039 A 
ATOM     18 BR   UNL     1       7.914  -4.742  23.821  0.00  0.00    -0.050 Br
ATOM     19  C   UNL     1       9.031  -0.904  22.809  0.00  0.00    +0.043 A 
ATOM     20  N   UNL     1      10.086  -0.121  22.359  0.00  0.00    -0.281 N 
ATOM     21  H   UNL     1      11.017  -0.446  22.146  0.00  0.00    +0.155 HD
ATOM     22  C   UNL     1       9.710   1.201  22.232  0.00  0.00    +0.251 C 
ATOM     23  O   UNL     1      10.420   2.121  21.864  0.00  0.00    -0.270 OA
ENDROOT
BRANCH   1  24
ATOM     24  O   UNL     1       4.055   2.555  23.628  0.00  0.00    -0.409 OA
ATOM     25  H   UNL     1       3.635   2.561  22.748  0.00  0.00    +0.328 HD
ENDBRANCH   1  24
TORSDOF 1
ENDMDL
