MODEL 1
REMARK VINA RESULT:      -6.1      0.000      0.000
REMARK  Name = 
REMARK  9 active torsions:
REMARK  status: ('A' for Active; 'I' for Inactive)
REMARK    1  A    between atoms: N_6  and  C_7
REMARK    2  A    between atoms: C_7  and  C_8
REMARK    3  A    between atoms: C_8  and  C_10
REMARK    4  A    between atoms: C_8  and  O_12
REMARK    5  A    between atoms: C_10  and  O_11
REMARK    6  A    between atoms: O_12  and  C_13
REMARK    7  A    between atoms: C_13  and  P_14
REMARK    8  A    between atoms: P_14  and  O_15
REMARK    9  A    between atoms: P_14  and  O_16
REMARK                            x       y       z     vdW  Elec       q    Type
REMARK                         _______ _______ _______ _____ _____    ______ ____
ROOT
ATOM      1  C   UNL     1       8.586  -3.757  23.936  0.00  0.00    +0.164 C 
ENDROOT
BRANCH   1   2
ATOM      2  C   UNL     1       9.188  -2.516  24.614  0.00  0.00    +0.160 C 
BRANCH   2   9
ATOM      3  N   UNL     1       9.837   1.923  21.483  0.00  0.00    -0.343 N 
ATOM      4  H   UNL     1      10.186   1.877  20.535  0.00  0.00    +0.144 HD
ATOM      5  H   UNL     1      10.168   2.726  22.010  0.00  0.00    +0.144 HD
ATOM      6  C   UNL     1       9.816   0.779  22.226  0.00  0.00    +0.123 A 
ATOM      7  C   UNL     1       9.619  -0.527  21.559  0.00  0.00    +0.061 A 
ATOM      8  C   UNL     1       9.489  -1.573  22.378  0.00  0.00    +0.094 A 
ATOM      9  N   UNL     1       9.574  -1.422  23.742  0.00  0.00    -0.296 N 
ATOM     10  C   UNL     1       9.873  -0.181  24.324  0.00  0.00    +0.350 A 
ATOM     11  O   UNL     1      10.020  -0.086  25.543  0.00  0.00    -0.244 OA
ATOM     12  N   UNL     1       9.961   0.915  23.503  0.00  0.00    -0.178 NA
ENDBRANCH   2   9
ENDBRANCH   1   2
BRANCH   1  13
ATOM     13  O   UNL     1       7.150  -3.578  23.805  0.00  0.00    -0.360 OA
BRANCH  13  14
ATOM     14  C   UNL     1       6.428  -4.824  23.767  0.00  0.00    +0.286 C 
BRANCH  14  15
ATOM     15  P   UNL     1       6.099  -5.211  22.028  0.00  0.00    +0.353 P 
ATOM     16  O   UNL     1       7.239  -5.826  21.291  0.00  0.00    -0.256 OA
BRANCH  15  17
ATOM     17  O   UNL     1       5.573  -3.812  21.441  0.00  0.00    -0.323 OA
ATOM     18  H   UNL     1       5.701  -3.047  22.032  0.00  0.00    +0.220 HD
ENDBRANCH  15  17
BRANCH  15  19
ATOM     19  O   UNL     1       4.747  -6.076  22.087  0.00  0.00    -0.323 OA
ATOM     20  H   UNL     1       3.952  -5.504  22.097  0.00  0.00    +0.220 HD
ENDBRANCH  15  19
ENDBRANCH  14  15
ENDBRANCH  13  14
ENDBRANCH   1  13
BRANCH   1  21
ATOM     21  C   UNL     1       8.815  -5.021  24.783  0.00  0.00    +0.189 C 
BRANCH  21  22
ATOM     22  O   UNL     1      10.214  -5.279  24.921  0.00  0.00    -0.392 OA
ATOM     23  H   UNL     1      10.306  -6.238  25.061  0.00  0.00    +0.210 HD
ENDBRANCH  21  22
ENDBRANCH   1  21
TORSDOF 9
ENDMDL
MODEL 2
REMARK VINA RESULT:      -6.1      2.348      3.701
REMARK  Name = 
REMARK  9 active torsions:
REMARK  status: ('A' for Active; 'I' for Inactive)
REMARK    1  A    between atoms: N_6  and  C_7
REMARK    2  A    between atoms: C_7  and  C_8
REMARK    3  A    between atoms: C_8  and  C_10
REMARK    4  A    between atoms: C_8  and  O_12
REMARK    5  A    between atoms: C_10  and  O_11
REMARK    6  A    between atoms: O_12  and  C_13
REMARK    7  A    between atoms: C_13  and  P_14
REMARK    8  A    between atoms: P_14  and  O_15
REMARK    9  A    between atoms: P_14  and  O_16
REMARK                            x       y       z     vdW  Elec       q    Type
REMARK                         _______ _______ _______ _____ _____    ______ ____
ROOT
ATOM      1  C   UNL     1       8.982  -2.693  24.041  0.00  0.00    +0.164 C 
ENDROOT
BRANCH   1   2
ATOM      2  C   UNL     1      10.049  -1.973  23.201  0.00  0.00    +0.160 C 
BRANCH   2   9
ATOM      3  N   UNL     1      10.741   3.445  22.900  0.00  0.00    -0.343 N 
ATOM      4  H   UNL     1      10.621   4.057  23.696  0.00  0.00    +0.144 HD
ATOM      5  H   UNL     1      10.405   3.833  22.023  0.00  0.00    +0.144 HD
ATOM      6  C   UNL     1      10.437   2.123  23.042  0.00  0.00    +0.123 A 
ATOM      7  C   UNL     1      10.610   1.466  24.356  0.00  0.00    +0.061 A 
ATOM      8  C   UNL     1      10.406   0.147  24.367  0.00  0.00    +0.094 A 
ATOM      9  N   UNL     1      10.025  -0.521  23.228  0.00  0.00    -0.296 N 
ATOM     10  C   UNL     1       9.765   0.161  22.029  0.00  0.00    +0.350 A 
ATOM     11  O   UNL     1       9.351  -0.449  21.044  0.00  0.00    -0.244 OA
ATOM     12  N   UNL     1      10.017   1.510  21.984  0.00  0.00    -0.178 NA
ENDBRANCH   2   9
ENDBRANCH   1   2
BRANCH   1  13
ATOM     13  O   UNL     1       9.329  -4.100  24.144  0.00  0.00    -0.360 OA
BRANCH  13  14
ATOM     14  C   UNL     1       8.258  -4.907  24.671  0.00  0.00    +0.286 C 
BRANCH  14  15
ATOM     15  P   UNL     1       8.253  -4.700  26.470  0.00  0.00    +0.353 P 
ATOM     16  O   UNL     1       7.544  -3.487  26.966  0.00  0.00    -0.256 OA
BRANCH  15  17
ATOM     17  O   UNL     1       9.813  -4.789  26.847  0.00  0.00    -0.323 OA
ATOM     18  H   UNL     1      10.422  -4.652  26.098  0.00  0.00    +0.220 HD
ENDBRANCH  15  17
BRANCH  15  19
ATOM     19  O   UNL     1       7.701  -6.109  27.008  0.00  0.00    -0.323 OA
ATOM     20  H   UNL     1       7.407  -6.687  26.273  0.00  0.00    +0.220 HD
ENDBRANCH  15  19
ENDBRANCH  14  15
ENDBRANCH  13  14
ENDBRANCH   1  13
BRANCH   1  21
ATOM     21  C   UNL     1       7.598  -2.609  23.374  0.00  0.00    +0.189 C 
BRANCH  21  22
ATOM     22  O   UNL     1       7.720  -2.749  21.957  0.00  0.00    -0.392 OA
ATOM     23  H   UNL     1       8.210  -3.576  21.801  0.00  0.00    +0.210 HD
ENDBRANCH  21  22
ENDBRANCH   1  21
TORSDOF 9
ENDMDL
MODEL 3
REMARK VINA RESULT:      -6.0      2.313      3.020
REMARK  Name = 
REMARK  9 active torsions:
REMARK  status: ('A' for Active; 'I' for Inactive)
REMARK    1  A    between atoms: N_6  and  C_7
REMARK    2  A    between atoms: C_7  and  C_8
REMARK    3  A    between atoms: C_8  and  C_10
REMARK    4  A    between atoms: C_8  and  O_12
REMARK    5  A    between atoms: C_10  and  O_11
REMARK    6  A    between atoms: O_12  and  C_13
REMARK    7  A    between atoms: C_13  and  P_14
REMARK    8  A    between atoms: P_14  and  O_15
REMARK    9  A    between atoms: P_14  and  O_16
REMARK                            x       y       z     vdW  Elec       q    Type
REMARK                         _______ _______ _______ _____ _____    ______ ____
ROOT
ATOM      1  C   UNL     1       8.185  -3.100  24.489  0.00  0.00    +0.164 C 
ENDROOT
BRANCH   1   2
ATOM      2  C   UNL     1       9.625  -2.622  24.247  0.00  0.00    +0.160 C 
BRANCH   2   9
ATOM      3  N   UNL     1       9.401   2.071  21.444  0.00  0.00    -0.343 N 
ATOM      4  H   UNL     1       9.673   2.140  20.472  0.00  0.00    +0.144 HD
ATOM      5  H   UNL     1       9.663   2.874  22.007  0.00  0.00    +0.144 HD
ATOM      6  C   UNL     1       9.598   0.887  22.092  0.00  0.00    +0.123 A 
ATOM      7  C   UNL     1       9.526  -0.385  21.338  0.00  0.00    +0.061 A 
ATOM      8  C   UNL     1       9.608  -1.493  22.078  0.00  0.00    +0.094 A 
ATOM      9  N   UNL     1       9.785  -1.426  23.439  0.00  0.00    -0.296 N 
ATOM     10  C   UNL     1       9.959  -0.198  24.096  0.00  0.00    +0.350 A 
ATOM     11  O   UNL     1      10.194  -0.168  25.305  0.00  0.00    -0.244 OA
ATOM     12  N   UNL     1       9.829   0.954  23.362  0.00  0.00    -0.178 NA
ENDBRANCH   2   9
ENDBRANCH   1   2
BRANCH   1  13
ATOM     13  O   UNL     1       8.017  -3.407  25.899  0.00  0.00    -0.360 OA
BRANCH  13  14
ATOM     14  C   UNL     1       6.671  -3.800  26.233  0.00  0.00    +0.286 C 
BRANCH  14  15
ATOM     15  P   UNL     1       6.775  -5.312  27.225  0.00  0.00    +0.353 P 
ATOM     16  O   UNL     1       6.391  -5.157  28.656  0.00  0.00    -0.256 OA
BRANCH  15  17
ATOM     17  O   UNL     1       8.280  -5.811  26.965  0.00  0.00    -0.323 OA
ATOM     18  H   UNL     1       8.943  -5.446  27.578  0.00  0.00    +0.220 HD
ENDBRANCH  15  17
BRANCH  15  19
ATOM     19  O   UNL     1       5.921  -6.376  26.377  0.00  0.00    -0.323 OA
ATOM     20  H   UNL     1       6.279  -6.488  25.472  0.00  0.00    +0.220 HD
ENDBRANCH  15  19
ENDBRANCH  14  15
ENDBRANCH  13  14
ENDBRANCH   1  13
BRANCH   1  21
ATOM     21  C   UNL     1       7.886  -4.387  23.700  0.00  0.00    +0.189 C 
BRANCH  21  22
ATOM     22  O   UNL     1       8.826  -5.408  24.041  0.00  0.00    -0.392 OA
ATOM     23  H   UNL     1       8.368  -6.259  23.919  0.00  0.00    +0.210 HD
ENDBRANCH  21  22
ENDBRANCH   1  21
TORSDOF 9
ENDMDL
MODEL 4
REMARK VINA RESULT:      -5.9      1.599      1.998
REMARK  Name = 
REMARK  9 active torsions:
REMARK  status: ('A' for Active; 'I' for Inactive)
REMARK    1  A    between atoms: N_6  and  C_7
REMARK    2  A    between atoms: C_7  and  C_8
REMARK    3  A    between atoms: C_8  and  C_10
REMARK    4  A    between atoms: C_8  and  O_12
REMARK    5  A    between atoms: C_10  and  O_11
REMARK    6  A    between atoms: O_12  and  C_13
REMARK    7  A    between atoms: C_13  and  P_14
REMARK    8  A    between atoms: P_14  and  O_15
REMARK    9  A    between atoms: P_14  and  O_16
REMARK                            x       y       z     vdW  Elec       q    Type
REMARK                         _______ _______ _______ _____ _____    ______ ____
ROOT
ATOM      1  C   UNL     1       8.757  -3.539  23.945  0.00  0.00    +0.164 C 
ENDROOT
BRANCH   1   2
ATOM      2  C   UNL     1       8.279  -2.250  24.632  0.00  0.00    +0.160 C 
BRANCH   2   9
ATOM      3  N   UNL     1      10.042   1.986  21.653  0.00  0.00    -0.343 N 
ATOM      4  H   UNL     1      10.742   2.635  21.987  0.00  0.00    +0.144 HD
ATOM      5  H   UNL     1       9.298   2.419  21.113  0.00  0.00    +0.144 HD
ATOM      6  C   UNL     1       9.581   1.028  22.509  0.00  0.00    +0.123 A 
ATOM      7  C   UNL     1      10.477   0.486  23.555  0.00  0.00    +0.061 A 
ATOM      8  C   UNL     1       9.979  -0.532  24.261  0.00  0.00    +0.094 A 
ATOM      9  N   UNL     1       8.706  -0.998  24.034  0.00  0.00    -0.296 N 
ATOM     10  C   UNL     1       7.854  -0.380  23.106  0.00  0.00    +0.350 A 
ATOM     11  O   UNL     1       6.692  -0.767  22.976  0.00  0.00    -0.244 OA
ATOM     12  N   UNL     1       8.362   0.636  22.336  0.00  0.00    -0.178 NA
ENDBRANCH   2   9
ENDBRANCH   1   2
BRANCH   1  13
ATOM     13  O   UNL     1       7.802  -3.912  22.916  0.00  0.00    -0.360 OA
BRANCH  13  14
ATOM     14  C   UNL     1       6.768  -4.791  23.400  0.00  0.00    +0.286 C 
BRANCH  14  15
ATOM     15  P   UNL     1       5.174  -4.078  22.917  0.00  0.00    +0.353 P 
ATOM     16  O   UNL     1       4.077  -5.064  22.710  0.00  0.00    -0.256 OA
BRANCH  15  17
ATOM     17  O   UNL     1       5.552  -3.187  21.635  0.00  0.00    -0.323 OA
ATOM     18  H   UNL     1       4.814  -3.024  21.019  0.00  0.00    +0.220 HD
ENDBRANCH  15  17
BRANCH  15  19
ATOM     19  O   UNL     1       4.913  -2.955  24.036  0.00  0.00    -0.323 OA
ATOM     20  H   UNL     1       3.996  -2.613  23.998  0.00  0.00    +0.220 HD
ENDBRANCH  15  19
ENDBRANCH  14  15
ENDBRANCH  13  14
ENDBRANCH   1  13
BRANCH   1  21
ATOM     21  C   UNL     1       8.834  -4.706  24.945  0.00  0.00    +0.189 C 
BRANCH  21  22
ATOM     22  O   UNL     1      10.126  -5.314  24.901  0.00  0.00    -0.392 OA
ATOM     23  H   UNL     1      10.044  -6.100  24.333  0.00  0.00    +0.210 HD
ENDBRANCH  21  22
ENDBRANCH   1  21
TORSDOF 9
ENDMDL
MODEL 5
REMARK VINA RESULT:      -5.8      1.806      3.274
REMARK  Name = 
REMARK  9 active torsions:
REMARK  status: ('A' for Active; 'I' for Inactive)
REMARK    1  A    between atoms: N_6  and  C_7
REMARK    2  A    between atoms: C_7  and  C_8
REMARK    3  A    between atoms: C_8  and  C_10
REMARK    4  A    between atoms: C_8  and  O_12
REMARK    5  A    between atoms: C_10  and  O_11
REMARK    6  A    between atoms: O_12  and  C_13
REMARK    7  A    between atoms: C_13  and  P_14
REMARK    8  A    between atoms: P_14  and  O_15
REMARK    9  A    between atoms: P_14  and  O_16
REMARK                            x       y       z     vdW  Elec       q    Type
REMARK                         _______ _______ _______ _____ _____    ______ ____
ROOT
ATOM      1  C   UNL     1       7.221  -2.964  23.495  0.00  0.00    +0.164 C 
ENDROOT
BRANCH   1   2
ATOM      2  C   UNL     1       8.747  -2.802  23.421  0.00  0.00    +0.160 C 
BRANCH   2   9
ATOM      3  N   UNL     1       9.827   2.336  21.884  0.00  0.00    -0.343 N 
ATOM      4  H   UNL     1      10.206   2.566  20.975  0.00  0.00    +0.144 HD
ATOM      5  H   UNL     1      10.195   2.900  22.644  0.00  0.00    +0.144 HD
ATOM      6  C   UNL     1       9.697   1.020  22.221  0.00  0.00    +0.123 A 
ATOM      7  C   UNL     1       9.431   0.014  21.169  0.00  0.00    +0.061 A 
ATOM      8  C   UNL     1       9.197  -1.224  21.608  0.00  0.00    +0.094 A 
ATOM      9  N   UNL     1       9.243  -1.522  22.949  0.00  0.00    -0.296 N 
ATOM     10  C   UNL     1       9.608  -0.558  23.902  0.00  0.00    +0.350 A 
ATOM     11  O   UNL     1       9.717  -0.868  25.088  0.00  0.00    -0.244 OA
ATOM     12  N   UNL     1       9.804   0.731  23.476  0.00  0.00    -0.178 NA
ENDBRANCH   2   9
ENDBRANCH   1   2
BRANCH   1  13
ATOM     13  O   UNL     1       6.864  -3.521  24.788  0.00  0.00    -0.360 OA
BRANCH  13  14
ATOM     14  C   UNL     1       7.220  -4.911  24.920  0.00  0.00    +0.286 C 
BRANCH  14  15
ATOM     15  P   UNL     1       8.416  -5.042  26.274  0.00  0.00    +0.353 P 
ATOM     16  O   UNL     1       8.834  -3.744  26.876  0.00  0.00    -0.256 OA
BRANCH  15  17
ATOM     17  O   UNL     1       9.599  -5.914  25.626  0.00  0.00    -0.323 OA
ATOM     18  H   UNL     1      10.127  -5.449  24.952  0.00  0.00    +0.220 HD
ENDBRANCH  15  17
BRANCH  15  19
ATOM     19  O   UNL     1       7.734  -6.097  27.275  0.00  0.00    -0.323 OA
ATOM     20  H   UNL     1       7.199  -5.650  27.963  0.00  0.00    +0.220 HD
ENDBRANCH  15  19
ENDBRANCH  14  15
ENDBRANCH  13  14
ENDBRANCH   1  13
BRANCH   1  21
ATOM     21  C   UNL     1       6.711  -3.938  22.419  0.00  0.00    +0.189 C 
BRANCH  21  22
ATOM     22  O   UNL     1       5.503  -3.448  21.835  0.00  0.00    -0.392 OA
ATOM     23  H   UNL     1       5.463  -3.811  20.933  0.00  0.00    +0.210 HD
ENDBRANCH  21  22
ENDBRANCH   1  21
TORSDOF 9
ENDMDL
MODEL 6
REMARK VINA RESULT:      -5.7      2.132      3.534
REMARK  Name = 
REMARK  9 active torsions:
REMARK  status: ('A' for Active; 'I' for Inactive)
REMARK    1  A    between atoms: N_6  and  C_7
REMARK    2  A    between atoms: C_7  and  C_8
REMARK    3  A    between atoms: C_8  and  C_10
REMARK    4  A    between atoms: C_8  and  O_12
REMARK    5  A    between atoms: C_10  and  O_11
REMARK    6  A    between atoms: O_12  and  C_13
REMARK    7  A    between atoms: C_13  and  P_14
REMARK    8  A    between atoms: P_14  and  O_15
REMARK    9  A    between atoms: P_14  and  O_16
REMARK                            x       y       z     vdW  Elec       q    Type
REMARK                         _______ _______ _______ _____ _____    ______ ____
ROOT
ATOM      1  C   UNL     1       7.471  -1.869  24.209  0.00  0.00    +0.164 C 
ENDROOT
BRANCH   1   2
ATOM      2  C   UNL     1       8.918  -1.528  23.818  0.00  0.00    +0.160 C 
BRANCH   2   9
ATOM      3  N   UNL     1      10.849   3.487  22.797  0.00  0.00    -0.343 N 
ATOM      4  H   UNL     1      10.575   4.298  23.336  0.00  0.00    +0.144 HD
ATOM      5  H   UNL     1      10.961   3.667  21.803  0.00  0.00    +0.144 HD
ATOM      6  C   UNL     1      10.230   2.298  23.050  0.00  0.00    +0.123 A 
ATOM      7  C   UNL     1       9.746   1.998  24.416  0.00  0.00    +0.061 A 
ATOM      8  C   UNL     1       9.268   0.764  24.594  0.00  0.00    +0.094 A 
ATOM      9  N   UNL     1       9.206  -0.130  23.552  0.00  0.00    -0.296 N 
ATOM     10  C   UNL     1       9.573   0.236  22.248  0.00  0.00    +0.350 A 
ATOM     11  O   UNL     1       9.436  -0.558  21.318  0.00  0.00    -0.244 OA
ATOM     12  N   UNL     1      10.114   1.483  22.054  0.00  0.00    -0.178 NA
ENDBRANCH   2   9
ENDBRANCH   1   2
BRANCH   1  13
ATOM     13  O   UNL     1       7.482  -2.965  25.163  0.00  0.00    -0.360 OA
BRANCH  13  14
ATOM     14  C   UNL     1       8.812  -3.368  25.542  0.00  0.00    +0.286 C 
BRANCH  14  15
ATOM     15  P   UNL     1       8.981  -5.129  25.153  0.00  0.00    +0.353 P 
ATOM     16  O   UNL     1       8.466  -5.533  23.815  0.00  0.00    -0.256 OA
BRANCH  15  17
ATOM     17  O   UNL     1       8.276  -5.844  26.408  0.00  0.00    -0.323 OA
ATOM     18  H   UNL     1       8.676  -5.639  27.273  0.00  0.00    +0.220 HD
ENDBRANCH  15  17
BRANCH  15  19
ATOM     19  O   UNL     1      10.534  -5.427  25.432  0.00  0.00    -0.323 OA
ATOM     20  H   UNL     1      10.675  -5.817  26.319  0.00  0.00    +0.220 HD
ENDBRANCH  15  19
ENDBRANCH  14  15
ENDBRANCH  13  14
ENDBRANCH   1  13
BRANCH   1  21
ATOM     21  C   UNL     1       6.658  -2.332  22.987  0.00  0.00    +0.189 C 
BRANCH  21  22
ATOM     22  O   UNL     1       6.161  -3.656  23.193  0.00  0.00    -0.392 OA
ATOM     23  H   UNL     1       5.266  -3.561  23.565  0.00  0.00    +0.210 HD
ENDBRANCH  21  22
ENDBRANCH   1  21
TORSDOF 9
ENDMDL
MODEL 7
REMARK VINA RESULT:      -5.7      2.769      3.925
REMARK  Name = 
REMARK  9 active torsions:
REMARK  status: ('A' for Active; 'I' for Inactive)
REMARK    1  A    between atoms: N_6  and  C_7
REMARK    2  A    between atoms: C_7  and  C_8
REMARK    3  A    between atoms: C_8  and  C_10
REMARK    4  A    between atoms: C_8  and  O_12
REMARK    5  A    between atoms: C_10  and  O_11
REMARK    6  A    between atoms: O_12  and  C_13
REMARK    7  A    between atoms: C_13  and  P_14
REMARK    8  A    between atoms: P_14  and  O_15
REMARK    9  A    between atoms: P_14  and  O_16
REMARK                            x       y       z     vdW  Elec       q    Type
REMARK                         _______ _______ _______ _____ _____    ______ ____
ROOT
ATOM      1  C   UNL     1       8.681  -1.690  23.683  0.00  0.00    +0.164 C 
ENDROOT
BRANCH   1   2
ATOM      2  C   UNL     1       9.071  -0.213  23.857  0.00  0.00    +0.160 C 
BRANCH   2   9
ATOM      3  N   UNL     1       6.255   4.067  21.938  0.00  0.00    -0.343 N 
ATOM      4  H   UNL     1       5.245   4.084  21.901  0.00  0.00    +0.144 HD
ATOM      5  H   UNL     1       6.708   4.505  21.141  0.00  0.00    +0.144 HD
ATOM      6  C   UNL     1       6.873   2.914  22.325  0.00  0.00    +0.123 A 
ATOM      7  C   UNL     1       6.205   2.009  23.288  0.00  0.00    +0.061 A 
ATOM      8  C   UNL     1       6.938   0.973  23.700  0.00  0.00    +0.094 A 
ATOM      9  N   UNL     1       8.209   0.765  23.219  0.00  0.00    -0.296 N 
ATOM     10  C   UNL     1       8.759   1.588  22.224  0.00  0.00    +0.350 A 
ATOM     11  O   UNL     1       9.868   1.336  21.753  0.00  0.00    -0.244 OA
ATOM     12  N   UNL     1       8.042   2.687  21.822  0.00  0.00    -0.178 NA
ENDBRANCH   2   9
ENDBRANCH   1   2
BRANCH   1  13
ATOM     13  O   UNL     1       9.495  -2.503  24.569  0.00  0.00    -0.360 OA
BRANCH  13  14
ATOM     14  C   UNL     1       8.715  -3.258  25.517  0.00  0.00    +0.286 C 
BRANCH  14  15
ATOM     15  P   UNL     1       8.858  -5.008  25.071  0.00  0.00    +0.353 P 
ATOM     16  O   UNL     1       8.145  -5.403  23.823  0.00  0.00    -0.256 OA
BRANCH  15  17
ATOM     17  O   UNL     1       8.378  -5.760  26.407  0.00  0.00    -0.323 OA
ATOM     18  H   UNL     1       9.072  -5.879  27.080  0.00  0.00    +0.220 HD
ENDBRANCH  15  17
BRANCH  15  19
ATOM     19  O   UNL     1      10.442  -5.272  25.092  0.00  0.00    -0.323 OA
ATOM     20  H   UNL     1      10.949  -4.434  25.086  0.00  0.00    +0.220 HD
ENDBRANCH  15  19
ENDBRANCH  14  15
ENDBRANCH  13  14
ENDBRANCH   1  13
BRANCH   1  21
ATOM     21  C   UNL     1       8.947  -2.170  22.246  0.00  0.00    +0.189 C 
BRANCH  21  22
ATOM     22  O   UNL     1      10.181  -1.634  21.763  0.00  0.00    -0.392 OA
ATOM     23  H   UNL     1      10.225  -1.850  20.814  0.00  0.00    +0.210 HD
ENDBRANCH  21  22
ENDBRANCH   1  21
TORSDOF 9
ENDMDL
MODEL 8
REMARK VINA RESULT:      -5.7      2.102      3.666
REMARK  Name = 
REMARK  9 active torsions:
REMARK  status: ('A' for Active; 'I' for Inactive)
REMARK    1  A    between atoms: N_6  and  C_7
REMARK    2  A    between atoms: C_7  and  C_8
REMARK    3  A    between atoms: C_8  and  C_10
REMARK    4  A    between atoms: C_8  and  O_12
REMARK    5  A    between atoms: C_10  and  O_11
REMARK    6  A    between atoms: O_12  and  C_13
REMARK    7  A    between atoms: C_13  and  P_14
REMARK    8  A    between atoms: P_14  and  O_15
REMARK    9  A    between atoms: P_14  and  O_16
REMARK                            x       y       z     vdW  Elec       q    Type
REMARK                         _______ _______ _______ _____ _____    ______ ____
ROOT
ATOM      1  C   UNL     1       6.276  -3.163  23.453  0.00  0.00    +0.164 C 
ENDROOT
BRANCH   1   2
ATOM      2  C   UNL     1       7.623  -2.968  22.739  0.00  0.00    +0.160 C 
BRANCH   2   9
ATOM      3  N   UNL     1      10.144   1.436  24.781  0.00  0.00    -0.343 N 
ATOM      4  H   UNL     1      10.040   2.360  24.382  0.00  0.00    +0.144 HD
ATOM      5  H   UNL     1      11.081   1.230  25.114  0.00  0.00    +0.144 HD
ATOM      6  C   UNL     1       9.569   0.380  24.138  0.00  0.00    +0.123 A 
ATOM      7  C   UNL     1       8.325   0.581  23.362  0.00  0.00    +0.061 A 
ATOM      8  C   UNL     1       7.771  -0.531  22.872  0.00  0.00    +0.094 A 
ATOM      9  N   UNL     1       8.359  -1.759  23.061  0.00  0.00    -0.296 N 
ATOM     10  C   UNL     1       9.597  -1.887  23.709  0.00  0.00    +0.350 A 
ATOM     11  O   UNL     1      10.141  -2.988  23.797  0.00  0.00    -0.244 OA
ATOM     12  N   UNL     1      10.158  -0.764  24.262  0.00  0.00    -0.178 NA
ENDBRANCH   2   9
ENDBRANCH   1   2
BRANCH   1  13
ATOM     13  O   UNL     1       6.498  -3.865  24.705  0.00  0.00    -0.360 OA
BRANCH  13  14
ATOM     14  C   UNL     1       7.373  -5.001  24.565  0.00  0.00    +0.286 C 
BRANCH  14  15
ATOM     15  P   UNL     1       8.278  -5.188  26.123  0.00  0.00    +0.353 P 
ATOM     16  O   UNL     1       7.529  -5.877  27.211  0.00  0.00    -0.256 OA
BRANCH  15  17
ATOM     17  O   UNL     1       8.744  -3.685  26.452  0.00  0.00    -0.323 OA
ATOM     18  H   UNL     1       9.053  -3.176  25.680  0.00  0.00    +0.220 HD
ENDBRANCH  15  17
BRANCH  15  19
ATOM     19  O   UNL     1       9.659  -5.873  25.674  0.00  0.00    -0.323 OA
ATOM     20  H   UNL     1       9.881  -5.665  24.743  0.00  0.00    +0.220 HD
ENDBRANCH  15  19
ENDBRANCH  14  15
ENDBRANCH  13  14
ENDBRANCH   1  13
BRANCH   1  21
ATOM     21  C   UNL     1       5.318  -4.022  22.609  0.00  0.00    +0.189 C 
BRANCH  21  22
ATOM     22  O   UNL     1       5.794  -4.124  21.265  0.00  0.00    -0.392 OA
ATOM     23  H   UNL     1       5.561  -3.288  20.824  0.00  0.00    +0.210 HD
ENDBRANCH  21  22
ENDBRANCH   1  21
TORSDOF 9
ENDMDL
MODEL 9
REMARK VINA RESULT:      -5.5      2.527      3.721
REMARK  Name = 
REMARK  9 active torsions:
REMARK  status: ('A' for Active; 'I' for Inactive)
REMARK    1  A    between atoms: N_6  and  C_7
REMARK    2  A    between atoms: C_7  and  C_8
REMARK    3  A    between atoms: C_8  and  C_10
REMARK    4  A    between atoms: C_8  and  O_12
REMARK    5  A    between atoms: C_10  and  O_11
REMARK    6  A    between atoms: O_12  and  C_13
REMARK    7  A    between atoms: C_13  and  P_14
REMARK    8  A    between atoms: P_14  and  O_15
REMARK    9  A    between atoms: P_14  and  O_16
REMARK                            x       y       z     vdW  Elec       q    Type
REMARK                         _______ _______ _______ _____ _____    ______ ____
ROOT
ATOM      1  C   UNL     1       8.446  -1.671  23.135  0.00  0.00    +0.164 C 
ENDROOT
BRANCH   1   2
ATOM      2  C   UNL     1       8.677  -0.613  24.226  0.00  0.00    +0.160 C 
BRANCH   2   9
ATOM      3  N   UNL     1       9.568   4.716  23.365  0.00  0.00    -0.343 N 
ATOM      4  H   UNL     1       9.076   5.245  22.658  0.00  0.00    +0.144 HD
ATOM      5  H   UNL     1      10.546   4.969  23.469  0.00  0.00    +0.144 HD
ATOM      6  C   UNL     1       9.363   3.369  23.431  0.00  0.00    +0.123 A 
ATOM      7  C   UNL     1       8.053   2.805  23.039  0.00  0.00    +0.061 A 
ATOM      8  C   UNL     1       7.906   1.495  23.254  0.00  0.00    +0.094 A 
ATOM      9  N   UNL     1       8.933   0.742  23.772  0.00  0.00    -0.296 N 
ATOM     10  C   UNL     1      10.196   1.300  24.026  0.00  0.00    +0.350 A 
ATOM     11  O   UNL     1      11.122   0.589  24.417  0.00  0.00    -0.244 OA
ATOM     12  N   UNL     1      10.352   2.653  23.858  0.00  0.00    -0.178 NA
ENDBRANCH   2   9
ENDBRANCH   1   2
BRANCH   1  13
ATOM     13  O   UNL     1       8.963  -2.948  23.595  0.00  0.00    -0.360 OA
BRANCH  13  14
ATOM     14  C   UNL     1       9.080  -3.024  25.029  0.00  0.00    +0.286 C 
BRANCH  14  15
ATOM     15  P   UNL     1       8.865  -4.759  25.503  0.00  0.00    +0.353 P 
ATOM     16  O   UNL     1       7.521  -5.332  25.212  0.00  0.00    -0.256 OA
BRANCH  15  17
ATOM     17  O   UNL     1       9.296  -4.765  27.051  0.00  0.00    -0.323 OA
ATOM     18  H   UNL     1       8.583  -5.000  27.673  0.00  0.00    +0.220 HD
ENDBRANCH  15  17
BRANCH  15  19
ATOM     19  O   UNL     1      10.112  -5.494  24.808  0.00  0.00    -0.323 OA
ATOM     20  H   UNL     1       9.821  -6.200  24.195  0.00  0.00    +0.220 HD
ENDBRANCH  15  19
ENDBRANCH  14  15
ENDBRANCH  13  14
ENDBRANCH   1  13
BRANCH   1  21
ATOM     21  C   UNL     1       9.200  -1.310  21.843  0.00  0.00    +0.189 C 
BRANCH  21  22
ATOM     22  O   UNL     1      10.563  -1.729  21.928  0.00  0.00    -0.392 OA
ATOM     23  H   UNL     1      11.105  -0.921  21.891  0.00  0.00    +0.210 HD
ENDBRANCH  21  22
ENDBRANCH   1  21
TORSDOF 9
ENDMDL
