MODEL 1
REMARK VINA RESULT:      -6.8      0.000      0.000
REMARK  Name = 
REMARK  7 active torsions:
REMARK  status: ('A' for Active; 'I' for Inactive)
REMARK    1  A    between atoms: C_1  and  O_2
REMARK    2  A    between atoms: O_2  and  C_3
REMARK    3  A    between atoms: C_10  and  C_12
REMARK    4  A    between atoms: C_19  and  C_20
REMARK    5  A    between atoms: C_21  and  C_22
REMARK    6  A    between atoms: C_22  and  C_23
REMARK    7  A    between atoms: C_23  and  O_24
REMARK                            x       y       z     vdW  Elec       q    Type
REMARK                         _______ _______ _______ _____ _____    ______ ____
ROOT
ATOM      1  C   UNL     1       7.313   1.408  26.834  0.00  0.00    +0.121 A 
ATOM      2  C   UNL     1       7.338   0.151  27.425  0.00  0.00    +0.048 A 
ATOM      3  C   UNL     1       7.971  -0.935  26.803  0.00  0.00    +0.030 A 
ATOM      4  C   UNL     1       8.559  -0.744  25.534  0.00  0.00    +0.057 A 
ATOM      5  N   UNL     1       9.158  -1.631  24.622  0.00  0.00    -0.280 N 
ATOM      6  C   UNL     1       9.790  -0.849  23.635  0.00  0.00    +0.028 A 
ATOM      7  C   UNL     1       9.410   0.478  23.805  0.00  0.00    -0.008 A 
ATOM      8  C   UNL     1      10.629  -1.389  22.517  0.00  0.00    +0.064 C 
ATOM      9  C   UNL     1       9.129  -3.060  24.687  0.00  0.00    +0.263 C 
ATOM     10  O   UNL     1      10.054  -3.668  24.150  0.00  0.00    -0.267 OA
ATOM     11  C   UNL     1       8.602   0.531  24.971  0.00  0.00    +0.008 A 
ATOM     12  C   UNL     1       7.936   1.598  25.604  0.00  0.00    +0.056 A 
ENDROOT
BRANCH   9  13
ATOM     13  C   UNL     1       8.092  -3.904  25.356  0.00  0.00    +0.040 A 
ATOM     14  C   UNL     1       6.852  -4.069  24.718  0.00  0.00    +0.015 A 
ATOM     15  C   UNL     1       5.882  -4.921  25.254  0.00  0.00    +0.021 A 
ATOM     16  C   UNL     1       6.147  -5.607  26.436  0.00  0.00    +0.041 A 
ATOM     17 CL   UNL     1       5.009  -6.749  27.035  0.00  0.00    -0.084 Cl
ATOM     18  C   UNL     1       7.337  -5.384  27.126  0.00  0.00    +0.021 A 
ATOM     19  C   UNL     1       8.296  -4.506  26.603  0.00  0.00    +0.015 A 
ENDBRANCH   9  13
BRANCH   1  21
ATOM     20  C   UNL     1       6.778   2.311  28.948  0.00  0.00    +0.277 C 
ATOM     21  O   UNL     1       6.664   2.394  27.526  0.00  0.00    -0.495 OA
ENDBRANCH   1  21
BRANCH   7  22
ATOM     22  C   UNL     1       9.726   1.655  22.916  0.00  0.00    +0.158 C 
BRANCH  22  23
ATOM     23  C   UNL     1       8.672   1.997  21.874  0.00  0.00    +0.309 C 
ATOM     24  O   UNL     1       7.841   2.881  22.039  0.00  0.00    -0.251 OA
BRANCH  23  25
ATOM     25  O   UNL     1       8.668   1.221  20.769  0.00  0.00    -0.480 OA
ATOM     26  H   UNL     1       8.394   1.696  19.959  0.00  0.00    +0.295 HD
ENDBRANCH  23  25
ENDBRANCH  22  23
ENDBRANCH   7  22
TORSDOF 5
ENDMDL
MODEL 2
REMARK VINA RESULT:      -6.8      1.630      1.914
REMARK  Name = 
REMARK  7 active torsions:
REMARK  status: ('A' for Active; 'I' for Inactive)
REMARK    1  A    between atoms: C_1  and  O_2
REMARK    2  A    between atoms: O_2  and  C_3
REMARK    3  A    between atoms: C_10  and  C_12
REMARK    4  A    between atoms: C_19  and  C_20
REMARK    5  A    between atoms: C_21  and  C_22
REMARK    6  A    between atoms: C_22  and  C_23
REMARK    7  A    between atoms: C_23  and  O_24
REMARK                            x       y       z     vdW  Elec       q    Type
REMARK                         _______ _______ _______ _____ _____    ______ ____
ROOT
ATOM      1  C   UNL     1       5.291   0.785  25.260  0.00  0.00    +0.121 A 
ATOM      2  C   UNL     1       5.518  -0.289  26.112  0.00  0.00    +0.048 A 
ATOM      3  C   UNL     1       6.548  -1.208  25.867  0.00  0.00    +0.030 A 
ATOM      4  C   UNL     1       7.339  -1.051  24.708  0.00  0.00    +0.057 A 
ATOM      5  N   UNL     1       8.350  -1.842  24.135  0.00  0.00    -0.280 N 
ATOM      6  C   UNL     1       8.957  -1.072  23.122  0.00  0.00    +0.028 A 
ATOM      7  C   UNL     1       8.202   0.079  22.924  0.00  0.00    -0.008 A 
ATOM      8  C   UNL     1      10.146  -1.497  22.315  0.00  0.00    +0.064 C 
ATOM      9  C   UNL     1       8.696  -3.179  24.511  0.00  0.00    +0.263 C 
ATOM     10  O   UNL     1       9.850  -3.546  24.292  0.00  0.00    -0.267 OA
ATOM     11  C   UNL     1       7.164   0.065  23.890  0.00  0.00    +0.008 A 
ATOM     12  C   UNL     1       6.105   0.958  24.145  0.00  0.00    +0.056 A 
ENDROOT
BRANCH   9  13
ATOM     13  C   UNL     1       7.802  -4.184  25.162  0.00  0.00    +0.040 A 
ATOM     14  C   UNL     1       8.072  -4.558  26.489  0.00  0.00    +0.015 A 
ATOM     15  C   UNL     1       7.212  -5.423  27.174  0.00  0.00    +0.021 A 
ATOM     16  C   UNL     1       6.084  -5.923  26.532  0.00  0.00    +0.041 A 
ATOM     17 CL   UNL     1       4.959  -6.888  27.405  0.00  0.00    -0.084 Cl
ATOM     18  C   UNL     1       5.853  -5.631  25.188  0.00  0.00    +0.021 A 
ATOM     19  C   UNL     1       6.731  -4.788  24.493  0.00  0.00    +0.015 A 
ENDBRANCH   9  13
BRANCH   1  21
ATOM     20  C   UNL     1       3.707   1.411  26.894  0.00  0.00    +0.277 C 
ATOM     21  O   UNL     1       4.256   1.618  25.592  0.00  0.00    -0.495 OA
ENDBRANCH   1  21
BRANCH   7  22
ATOM     22  C   UNL     1       8.384   1.136  21.862  0.00  0.00    +0.158 C 
BRANCH  22  23
ATOM     23  C   UNL     1       9.224   2.338  22.264  0.00  0.00    +0.309 C 
ATOM     24  O   UNL     1       8.824   3.193  23.045  0.00  0.00    -0.251 OA
BRANCH  23  25
ATOM     25  O   UNL     1      10.426   2.442  21.657  0.00  0.00    -0.480 OA
ATOM     26  H   UNL     1      10.635   1.686  21.073  0.00  0.00    +0.295 HD
ENDBRANCH  23  25
ENDBRANCH  22  23
ENDBRANCH   7  22
TORSDOF 5
ENDMDL
MODEL 3
REMARK VINA RESULT:      -6.7      3.301      6.181
REMARK  Name = 
REMARK  7 active torsions:
REMARK  status: ('A' for Active; 'I' for Inactive)
REMARK    1  A    between atoms: C_1  and  O_2
REMARK    2  A    between atoms: O_2  and  C_3
REMARK    3  A    between atoms: C_10  and  C_12
REMARK    4  A    between atoms: C_19  and  C_20
REMARK    5  A    between atoms: C_21  and  C_22
REMARK    6  A    between atoms: C_22  and  C_23
REMARK    7  A    between atoms: C_23  and  O_24
REMARK                            x       y       z     vdW  Elec       q    Type
REMARK                         _______ _______ _______ _____ _____    ______ ____
ROOT
ATOM      1  C   UNL     1       5.586  -0.513  27.218  0.00  0.00    +0.121 A 
ATOM      2  C   UNL     1       6.066   0.372  26.260  0.00  0.00    +0.048 A 
ATOM      3  C   UNL     1       6.741  -0.085  25.119  0.00  0.00    +0.030 A 
ATOM      4  C   UNL     1       6.965  -1.470  24.970  0.00  0.00    +0.057 A 
ATOM      5  N   UNL     1       7.686  -2.219  24.023  0.00  0.00    -0.280 N 
ATOM      6  C   UNL     1       7.357  -3.574  24.225  0.00  0.00    +0.028 A 
ATOM      7  C   UNL     1       6.626  -3.685  25.403  0.00  0.00    -0.008 A 
ATOM      8  C   UNL     1       7.831  -4.711  23.373  0.00  0.00    +0.064 C 
ATOM      9  C   UNL     1       8.585  -1.699  23.038  0.00  0.00    +0.263 C 
ATOM     10  O   UNL     1       8.747  -2.363  22.014  0.00  0.00    -0.267 OA
ATOM     11  C   UNL     1       6.422  -2.367  25.889  0.00  0.00    +0.008 A 
ATOM     12  C   UNL     1       5.771  -1.880  27.039  0.00  0.00    +0.056 A 
ENDROOT
BRANCH   9  13
ATOM     13  C   UNL     1       9.346  -0.415  23.112  0.00  0.00    +0.040 A 
ATOM     14  C   UNL     1       9.208   0.506  22.060  0.00  0.00    +0.015 A 
ATOM     15  C   UNL     1       9.824   1.759  22.125  0.00  0.00    +0.021 A 
ATOM     16  C   UNL     1      10.588   2.094  23.239  0.00  0.00    +0.041 A 
ATOM     17 CL   UNL     1      11.247   3.676  23.380  0.00  0.00    -0.084 Cl
ATOM     18  C   UNL     1      10.807   1.156  24.248  0.00  0.00    +0.021 A 
ATOM     19  C   UNL     1      10.214  -0.110  24.168  0.00  0.00    +0.015 A 
ENDBRANCH   9  13
BRANCH   1  21
ATOM     20  C   UNL     1       5.585   1.191  28.850  0.00  0.00    +0.277 C 
ATOM     21  O   UNL     1       4.946   0.042  28.293  0.00  0.00    -0.495 OA
ENDBRANCH   1  21
BRANCH   7  22
ATOM     22  C   UNL     1       6.167  -4.945  26.095  0.00  0.00    +0.158 C 
BRANCH  22  23
ATOM     23  C   UNL     1       7.013  -5.394  27.276  0.00  0.00    +0.309 C 
ATOM     24  O   UNL     1       6.646  -5.270  28.439  0.00  0.00    -0.251 OA
BRANCH  23  25
ATOM     25  O   UNL     1       8.230  -5.890  26.970  0.00  0.00    -0.480 OA
ATOM     26  H   UNL     1       8.249  -6.386  26.127  0.00  0.00    +0.295 HD
ENDBRANCH  23  25
ENDBRANCH  22  23
ENDBRANCH   7  22
TORSDOF 5
ENDMDL
MODEL 4
REMARK VINA RESULT:      -6.2      1.892      2.241
REMARK  Name = 
REMARK  7 active torsions:
REMARK  status: ('A' for Active; 'I' for Inactive)
REMARK    1  A    between atoms: C_1  and  O_2
REMARK    2  A    between atoms: O_2  and  C_3
REMARK    3  A    between atoms: C_10  and  C_12
REMARK    4  A    between atoms: C_19  and  C_20
REMARK    5  A    between atoms: C_21  and  C_22
REMARK    6  A    between atoms: C_22  and  C_23
REMARK    7  A    between atoms: C_23  and  O_24
REMARK                            x       y       z     vdW  Elec       q    Type
REMARK                         _______ _______ _______ _____ _____    ______ ____
ROOT
ATOM      1  C   UNL     1       5.538   0.638  25.428  0.00  0.00    +0.121 A 
ATOM      2  C   UNL     1       5.211  -0.622  25.916  0.00  0.00    +0.048 A 
ATOM      3  C   UNL     1       6.040  -1.730  25.687  0.00  0.00    +0.030 A 
ATOM      4  C   UNL     1       7.208  -1.557  24.914  0.00  0.00    +0.057 A 
ATOM      5  N   UNL     1       8.165  -2.464  24.425  0.00  0.00    -0.280 N 
ATOM      6  C   UNL     1       9.244  -1.704  23.930  0.00  0.00    +0.028 A 
ATOM      7  C   UNL     1       8.873  -0.363  23.909  0.00  0.00    -0.008 A 
ATOM      8  C   UNL     1      10.524  -2.272  23.397  0.00  0.00    +0.064 C 
ATOM      9  C   UNL     1       8.061  -3.891  24.431  0.00  0.00    +0.263 C 
ATOM     10  O   UNL     1       9.111  -4.534  24.439  0.00  0.00    -0.267 OA
ATOM     11  C   UNL     1       7.579  -0.283  24.486  0.00  0.00    +0.008 A 
ATOM     12  C   UNL     1       6.715   0.807  24.706  0.00  0.00    +0.056 A 
ENDROOT
BRANCH   9  13
ATOM     13  C   UNL     1       6.801  -4.696  24.443  0.00  0.00    +0.040 A 
ATOM     14  C   UNL     1       6.008  -4.711  23.284  0.00  0.00    +0.015 A 
ATOM     15  C   UNL     1       4.870  -5.520  23.211  0.00  0.00    +0.021 A 
ATOM     16  C   UNL     1       4.517  -6.312  24.299  0.00  0.00    +0.041 A 
ATOM     17 CL   UNL     1       3.190  -7.399  24.173  0.00  0.00    -0.084 Cl
ATOM     18  C   UNL     1       5.244  -6.237  25.487  0.00  0.00    +0.021 A 
ATOM     19  C   UNL     1       6.367  -5.404  25.570  0.00  0.00    +0.015 A 
ENDBRANCH   9  13
BRANCH   1  21
ATOM     20  C   UNL     1       4.726   2.771  24.829  0.00  0.00    +0.277 C 
ATOM     21  O   UNL     1       4.655   1.646  25.706  0.00  0.00    -0.495 OA
ENDBRANCH   1  21
BRANCH   7  22
ATOM     22  C   UNL     1       9.644   0.804  23.342  0.00  0.00    +0.158 C 
BRANCH  22  23
ATOM     23  C   UNL     1       9.502   1.022  21.844  0.00  0.00    +0.309 C 
ATOM     24  O   UNL     1       9.261   0.111  21.062  0.00  0.00    -0.251 OA
BRANCH  23  25
ATOM     25  O   UNL     1       9.718   2.283  21.413  0.00  0.00    -0.480 OA
ATOM     26  H   UNL     1       8.943   2.683  20.969  0.00  0.00    +0.295 HD
ENDBRANCH  23  25
ENDBRANCH  22  23
ENDBRANCH   7  22
TORSDOF 5
ENDMDL
MODEL 5
REMARK VINA RESULT:      -6.1      1.968      2.534
REMARK  Name = 
REMARK  7 active torsions:
REMARK  status: ('A' for Active; 'I' for Inactive)
REMARK    1  A    between atoms: C_1  and  O_2
REMARK    2  A    between atoms: O_2  and  C_3
REMARK    3  A    between atoms: C_10  and  C_12
REMARK    4  A    between atoms: C_19  and  C_20
REMARK    5  A    between atoms: C_21  and  C_22
REMARK    6  A    between atoms: C_22  and  C_23
REMARK    7  A    between atoms: C_23  and  O_24
REMARK                            x       y       z     vdW  Elec       q    Type
REMARK                         _______ _______ _______ _____ _____    ______ ____
ROOT
ATOM      1  C   UNL     1       7.074   1.283  27.173  0.00  0.00    +0.121 A 
ATOM      2  C   UNL     1       7.294  -0.080  27.014  0.00  0.00    +0.048 A 
ATOM      3  C   UNL     1       7.970  -0.583  25.893  0.00  0.00    +0.030 A 
ATOM      4  C   UNL     1       8.397   0.319  24.894  0.00  0.00    +0.057 A 
ATOM      5  N   UNL     1       8.987   0.129  23.632  0.00  0.00    -0.280 N 
ATOM      6  C   UNL     1       9.425   1.390  23.183  0.00  0.00    +0.028 A 
ATOM      7  C   UNL     1       8.926   2.367  24.038  0.00  0.00    -0.008 A 
ATOM      8  C   UNL     1      10.193   1.635  21.920  0.00  0.00    +0.064 C 
ATOM      9  C   UNL     1       9.117  -1.115  22.937  0.00  0.00    +0.263 C 
ATOM     10  O   UNL     1      10.040  -1.216  22.129  0.00  0.00    -0.267 OA
ATOM     11  C   UNL     1       8.245   1.692  25.084  0.00  0.00    +0.008 A 
ATOM     12  C   UNL     1       7.539   2.168  26.207  0.00  0.00    +0.056 A 
ENDROOT
BRANCH   9  13
ATOM     13  C   UNL     1       8.252  -2.324  23.097  0.00  0.00    +0.040 A 
ATOM     14  C   UNL     1       6.933  -2.269  22.619  0.00  0.00    +0.015 A 
ATOM     15  C   UNL     1       6.112  -3.401  22.660  0.00  0.00    +0.021 A 
ATOM     16  C   UNL     1       6.607  -4.590  23.186  0.00  0.00    +0.041 A 
ATOM     17 CL   UNL     1       5.646  -6.016  23.129  0.00  0.00    -0.084 Cl
ATOM     18  C   UNL     1       7.883  -4.633  23.746  0.00  0.00    +0.021 A 
ATOM     19  C   UNL     1       8.694  -3.491  23.732  0.00  0.00    +0.015 A 
ENDBRANCH   9  13
BRANCH   1  21
ATOM     20  C   UNL     1       7.191   2.342  29.279  0.00  0.00    +0.277 C 
ATOM     21  O   UNL     1       6.401   1.662  28.303  0.00  0.00    -0.495 OA
ENDBRANCH   1  21
BRANCH   7  22
ATOM     22  C   UNL     1       9.019   3.866  23.890  0.00  0.00    +0.158 C 
BRANCH  22  23
ATOM     23  C   UNL     1       8.017   4.499  22.937  0.00  0.00    +0.309 C 
ATOM     24  O   UNL     1       7.025   3.906  22.531  0.00  0.00    -0.251 OA
BRANCH  23  25
ATOM     25  O   UNL     1       8.318   5.744  22.513  0.00  0.00    -0.480 OA
ATOM     26  H   UNL     1       8.457   5.805  21.546  0.00  0.00    +0.295 HD
ENDBRANCH  23  25
ENDBRANCH  22  23
ENDBRANCH   7  22
TORSDOF 5
ENDMDL
MODEL 6
REMARK VINA RESULT:      -5.9      3.745      7.709
REMARK  Name = 
REMARK  7 active torsions:
REMARK  status: ('A' for Active; 'I' for Inactive)
REMARK    1  A    between atoms: C_1  and  O_2
REMARK    2  A    between atoms: O_2  and  C_3
REMARK    3  A    between atoms: C_10  and  C_12
REMARK    4  A    between atoms: C_19  and  C_20
REMARK    5  A    between atoms: C_21  and  C_22
REMARK    6  A    between atoms: C_22  and  C_23
REMARK    7  A    between atoms: C_23  and  O_24
REMARK                            x       y       z     vdW  Elec       q    Type
REMARK                         _______ _______ _______ _____ _____    ______ ____
ROOT
ATOM      1  C   UNL     1       6.918  -5.386  22.841  0.00  0.00    +0.121 A 
ATOM      2  C   UNL     1       7.926  -4.436  22.942  0.00  0.00    +0.048 A 
ATOM      3  C   UNL     1       7.926  -3.479  23.967  0.00  0.00    +0.030 A 
ATOM      4  C   UNL     1       6.855  -3.467  24.887  0.00  0.00    +0.057 A 
ATOM      5  N   UNL     1       6.512  -2.592  25.933  0.00  0.00    -0.280 N 
ATOM      6  C   UNL     1       5.482  -3.209  26.671  0.00  0.00    +0.028 A 
ATOM      7  C   UNL     1       5.046  -4.332  25.975  0.00  0.00    -0.008 A 
ATOM      8  C   UNL     1       4.880  -2.664  27.930  0.00  0.00    +0.064 C 
ATOM      9  C   UNL     1       7.102  -1.315  26.198  0.00  0.00    +0.263 C 
ATOM     10  O   UNL     1       7.067  -0.907  27.358  0.00  0.00    -0.267 OA
ATOM     11  C   UNL     1       5.881  -4.463  24.835  0.00  0.00    +0.008 A 
ATOM     12  C   UNL     1       5.891  -5.396  23.780  0.00  0.00    +0.056 A 
ENDROOT
BRANCH   9  13
ATOM     13  C   UNL     1       7.775  -0.419  25.209  0.00  0.00    +0.040 A 
ATOM     14  C   UNL     1       9.138  -0.132  25.387  0.00  0.00    +0.015 A 
ATOM     15  C   UNL     1       9.836   0.624  24.440  0.00  0.00    +0.021 A 
ATOM     16  C   UNL     1       9.172   1.101  23.315  0.00  0.00    +0.041 A 
ATOM     17 CL   UNL     1      10.051   1.926  22.088  0.00  0.00    -0.084 Cl
ATOM     18  C   UNL     1       7.800   0.900  23.171  0.00  0.00    +0.021 A 
ATOM     19  C   UNL     1       7.094   0.168  24.135  0.00  0.00    +0.015 A 
ENDBRANCH   9  13
BRANCH   1  21
ATOM     20  C   UNL     1       6.162  -5.990  20.689  0.00  0.00    +0.277 C 
ATOM     21  O   UNL     1       7.015  -6.269  21.800  0.00  0.00    -0.495 OA
ENDBRANCH   1  21
BRANCH   7  22
ATOM     22  C   UNL     1       3.880  -5.232  26.304  0.00  0.00    +0.158 C 
BRANCH  22  23
ATOM     23  C   UNL     1       4.236  -6.659  26.692  0.00  0.00    +0.309 C 
ATOM     24  O   UNL     1       5.270  -6.945  27.283  0.00  0.00    -0.251 OA
BRANCH  23  25
ATOM     25  O   UNL     1       3.366  -7.610  26.291  0.00  0.00    -0.480 OA
ATOM     26  H   UNL     1       3.104  -7.527  25.352  0.00  0.00    +0.295 HD
ENDBRANCH  23  25
ENDBRANCH  22  23
ENDBRANCH   7  22
TORSDOF 5
ENDMDL
MODEL 7
REMARK VINA RESULT:      -5.8      2.671      3.529
REMARK  Name = 
REMARK  7 active torsions:
REMARK  status: ('A' for Active; 'I' for Inactive)
REMARK    1  A    between atoms: C_1  and  O_2
REMARK    2  A    between atoms: O_2  and  C_3
REMARK    3  A    between atoms: C_10  and  C_12
REMARK    4  A    between atoms: C_19  and  C_20
REMARK    5  A    between atoms: C_21  and  C_22
REMARK    6  A    between atoms: C_22  and  C_23
REMARK    7  A    between atoms: C_23  and  O_24
REMARK                            x       y       z     vdW  Elec       q    Type
REMARK                         _______ _______ _______ _____ _____    ______ ____
ROOT
ATOM      1  C   UNL     1       5.581  -0.313  25.430  0.00  0.00    +0.121 A 
ATOM      2  C   UNL     1       4.986  -1.163  26.355  0.00  0.00    +0.048 A 
ATOM      3  C   UNL     1       5.554  -2.403  26.676  0.00  0.00    +0.030 A 
ATOM      4  C   UNL     1       6.734  -2.804  26.012  0.00  0.00    +0.057 A 
ATOM      5  N   UNL     1       7.472  -4.001  26.026  0.00  0.00    -0.280 N 
ATOM      6  C   UNL     1       8.691  -3.746  25.368  0.00  0.00    +0.028 A 
ATOM      7  C   UNL     1       8.622  -2.492  24.769  0.00  0.00    -0.008 A 
ATOM      8  C   UNL     1       9.818  -4.724  25.235  0.00  0.00    +0.064 C 
ATOM      9  C   UNL     1       7.059  -5.244  26.603  0.00  0.00    +0.263 C 
ATOM     10  O   UNL     1       7.943  -6.017  26.970  0.00  0.00    -0.267 OA
ATOM     11  C   UNL     1       7.375  -1.925  25.139  0.00  0.00    +0.008 A 
ATOM     12  C   UNL     1       6.769  -0.696  24.815  0.00  0.00    +0.056 A 
ENDROOT
BRANCH   9  13
ATOM     13  C   UNL     1       5.654  -5.704  26.823  0.00  0.00    +0.040 A 
ATOM     14  C   UNL     1       4.879  -6.045  25.702  0.00  0.00    +0.015 A 
ATOM     15  C   UNL     1       3.592  -6.569  25.859  0.00  0.00    +0.021 A 
ATOM     16  C   UNL     1       3.072  -6.747  27.137  0.00  0.00    +0.041 A 
ATOM     17 CL   UNL     1       1.541  -7.504  27.340  0.00  0.00    -0.084 Cl
ATOM     18  C   UNL     1       3.796  -6.330  28.253  0.00  0.00    +0.021 A 
ATOM     19  C   UNL     1       5.073  -5.777  28.095  0.00  0.00    +0.015 A 
ENDBRANCH   9  13
BRANCH   1  21
ATOM     20  C   UNL     1       5.652   1.790  24.360  0.00  0.00    +0.277 C 
ATOM     21  O   UNL     1       4.938   0.871  25.189  0.00  0.00    -0.495 OA
ENDBRANCH   1  21
BRANCH   7  22
ATOM     22  C   UNL     1       9.630  -1.846  23.850  0.00  0.00    +0.158 C 
BRANCH  22  23
ATOM     23  C   UNL     1       9.297  -1.893  22.367  0.00  0.00    +0.309 C 
ATOM     24  O   UNL     1       8.221  -2.296  21.943  0.00  0.00    -0.251 OA
BRANCH  23  25
ATOM     25  O   UNL     1      10.289  -1.517  21.532  0.00  0.00    -0.480 OA
ATOM     26  H   UNL     1      10.844  -0.794  21.886  0.00  0.00    +0.295 HD
ENDBRANCH  23  25
ENDBRANCH  22  23
ENDBRANCH   7  22
TORSDOF 5
ENDMDL
MODEL 8
REMARK VINA RESULT:      -5.8      2.561      3.553
REMARK  Name = 
REMARK  7 active torsions:
REMARK  status: ('A' for Active; 'I' for Inactive)
REMARK    1  A    between atoms: C_1  and  O_2
REMARK    2  A    between atoms: O_2  and  C_3
REMARK    3  A    between atoms: C_10  and  C_12
REMARK    4  A    between atoms: C_19  and  C_20
REMARK    5  A    between atoms: C_21  and  C_22
REMARK    6  A    between atoms: C_22  and  C_23
REMARK    7  A    between atoms: C_23  and  O_24
REMARK                            x       y       z     vdW  Elec       q    Type
REMARK                         _______ _______ _______ _____ _____    ______ ____
ROOT
ATOM      1  C   UNL     1       5.128   1.794  25.722  0.00  0.00    +0.121 A 
ATOM      2  C   UNL     1       5.613   0.499  25.864  0.00  0.00    +0.048 A 
ATOM      3  C   UNL     1       6.897   0.150  25.422  0.00  0.00    +0.030 A 
ATOM      4  C   UNL     1       7.689   1.131  24.787  0.00  0.00    +0.057 A 
ATOM      5  N   UNL     1       8.941   1.074  24.150  0.00  0.00    -0.280 N 
ATOM      6  C   UNL     1       9.353   2.402  23.923  0.00  0.00    +0.028 A 
ATOM      7  C   UNL     1       8.292   3.255  24.210  0.00  0.00    -0.008 A 
ATOM      8  C   UNL     1      10.676   2.806  23.347  0.00  0.00    +0.064 C 
ATOM      9  C   UNL     1       9.660  -0.113  23.799  0.00  0.00    +0.263 C 
ATOM     10  O   UNL     1      10.884  -0.026  23.713  0.00  0.00    -0.267 OA
ATOM     11  C   UNL     1       7.237   2.448  24.709  0.00  0.00    +0.008 A 
ATOM     12  C   UNL     1       5.933   2.766  25.137  0.00  0.00    +0.056 A 
ENDROOT
BRANCH   9  13
ATOM     13  C   UNL     1       9.079  -1.465  23.536  0.00  0.00    +0.040 A 
ATOM     14  C   UNL     1       9.403  -2.513  24.414  0.00  0.00    +0.015 A 
ATOM     15  C   UNL     1       8.814  -3.772  24.267  0.00  0.00    +0.021 A 
ATOM     16  C   UNL     1       7.904  -3.990  23.237  0.00  0.00    +0.041 A 
ATOM     17 CL   UNL     1       7.084  -5.499  23.125  0.00  0.00    -0.084 Cl
ATOM     18  C   UNL     1       7.642  -2.986  22.307  0.00  0.00    +0.021 A 
ATOM     19  C   UNL     1       8.256  -1.733  22.436  0.00  0.00    +0.015 A 
ENDBRANCH   9  13
BRANCH   1  21
ATOM     20  C   UNL     1       3.118   3.002  25.455  0.00  0.00    +0.277 C 
ATOM     21  O   UNL     1       3.860   2.023  26.184  0.00  0.00    -0.495 OA
ENDBRANCH   1  21
BRANCH   7  22
ATOM     22  C   UNL     1       8.216   4.746  23.995  0.00  0.00    +0.158 C 
BRANCH  22  23
ATOM     23  C   UNL     1       7.723   5.191  22.626  0.00  0.00    +0.309 C 
ATOM     24  O   UNL     1       6.945   4.526  21.955  0.00  0.00    -0.251 OA
BRANCH  23  25
ATOM     25  O   UNL     1       8.246   6.346  22.163  0.00  0.00    -0.480 OA
ATOM     26  H   UNL     1       7.780   7.144  22.486  0.00  0.00    +0.295 HD
ENDBRANCH  23  25
ENDBRANCH  22  23
ENDBRANCH   7  22
TORSDOF 5
ENDMDL
MODEL 9
REMARK VINA RESULT:      -5.7      3.750      5.976
REMARK  Name = 
REMARK  7 active torsions:
REMARK  status: ('A' for Active; 'I' for Inactive)
REMARK    1  A    between atoms: C_1  and  O_2
REMARK    2  A    between atoms: O_2  and  C_3
REMARK    3  A    between atoms: C_10  and  C_12
REMARK    4  A    between atoms: C_19  and  C_20
REMARK    5  A    between atoms: C_21  and  C_22
REMARK    6  A    between atoms: C_22  and  C_23
REMARK    7  A    between atoms: C_23  and  O_24
REMARK                            x       y       z     vdW  Elec       q    Type
REMARK                         _______ _______ _______ _____ _____    ______ ____
ROOT
ATOM      1  C   UNL     1       8.814  -2.322  24.691  0.00  0.00    +0.121 A 
ATOM      2  C   UNL     1       8.272  -2.176  25.962  0.00  0.00    +0.048 A 
ATOM      3  C   UNL     1       7.193  -2.963  26.389  0.00  0.00    +0.030 A 
ATOM      4  C   UNL     1       6.631  -3.893  25.488  0.00  0.00    +0.057 A 
ATOM      5  N   UNL     1       5.505  -4.731  25.569  0.00  0.00    -0.280 N 
ATOM      6  C   UNL     1       5.569  -5.621  24.478  0.00  0.00    +0.028 A 
ATOM      7  C   UNL     1       6.584  -5.206  23.623  0.00  0.00    -0.008 A 
ATOM      8  C   UNL     1       4.614  -6.748  24.230  0.00  0.00    +0.064 C 
ATOM      9  C   UNL     1       4.485  -4.687  26.573  0.00  0.00    +0.263 C 
ATOM     10  O   UNL     1       3.872  -5.729  26.800  0.00  0.00    -0.267 OA
ATOM     11  C   UNL     1       7.217  -4.096  24.239  0.00  0.00    +0.008 A 
ATOM     12  C   UNL     1       8.283  -3.273  23.826  0.00  0.00    +0.056 A 
ENDROOT
BRANCH   9  13
ATOM     13  C   UNL     1       4.091  -3.502  27.394  0.00  0.00    +0.040 A 
ATOM     14  C   UNL     1       3.499  -2.407  26.744  0.00  0.00    +0.015 A 
ATOM     15  C   UNL     1       3.027  -1.314  27.477  0.00  0.00    +0.021 A 
ATOM     16  C   UNL     1       3.152  -1.309  28.863  0.00  0.00    +0.041 A 
ATOM     17 CL   UNL     1       2.465  -0.025  29.780  0.00  0.00    -0.084 Cl
ATOM     18  C   UNL     1       3.818  -2.348  29.512  0.00  0.00    +0.021 A 
ATOM     19  C   UNL     1       4.317  -3.429  28.774  0.00  0.00    +0.015 A 
ENDBRANCH   9  13
BRANCH   1  21
ATOM     20  C   UNL     1      10.200  -1.451  22.990  0.00  0.00    +0.277 C 
ATOM     21  O   UNL     1       9.861  -1.498  24.377  0.00  0.00    -0.495 OA
ENDBRANCH   1  21
BRANCH   7  22
ATOM     22  C   UNL     1       6.941  -5.765  22.267  0.00  0.00    +0.158 C 
BRANCH  22  23
ATOM     23  C   UNL     1       6.154  -5.203  21.093  0.00  0.00    +0.309 C 
ATOM     24  O   UNL     1       6.019  -5.808  20.037  0.00  0.00    -0.251 OA
BRANCH  23  25
ATOM     25  O   UNL     1       5.658  -3.959  21.263  0.00  0.00    -0.480 OA
ATOM     26  H   UNL     1       5.198  -3.611  20.472  0.00  0.00    +0.295 HD
ENDBRANCH  23  25
ENDBRANCH  22  23
ENDBRANCH   7  22
TORSDOF 5
ENDMDL
