MODEL 1
REMARK VINA RESULT:      -5.7      0.000      0.000
REMARK  Name = 
REMARK  9 active torsions:
REMARK  status: ('A' for Active; 'I' for Inactive)
REMARK    1  A    between atoms: O_1  and  C_2
REMARK    2  A    between atoms: C_7  and  S_8
REMARK    3  A    between atoms: S_8  and  C_10
REMARK    4  A    between atoms: C_10  and  C_11
REMARK    5  A    between atoms: C_11  and  C_12
REMARK    6  A    between atoms: C_12  and  C_13
REMARK    7  A    between atoms: C_13  and  P_14
REMARK    8  A    between atoms: P_14  and  O_15
REMARK    9  A    between atoms: P_14  and  O_16
REMARK                            x       y       z     vdW  Elec       q    Type
REMARK                         _______ _______ _______ _____ _____    ______ ____
ROOT
ATOM      1  S   UNL     1       9.491  -2.247  22.786  0.00  0.00    +0.057 S 
ATOM      2  O   UNL     1      10.348  -2.950  23.800  0.00  0.00    -0.252 OA
ENDROOT
BRANCH   1   4
ATOM      3  C   UNL     1       9.752   0.138  24.333  0.00  0.00    +0.133 A 
ATOM      4  C   UNL     1       9.757  -0.469  23.069  0.00  0.00    +0.080 A 
ATOM      5  C   UNL     1       9.847   0.363  21.939  0.00  0.00    +0.021 A 
ATOM      6  C   UNL     1       9.934   1.752  22.068  0.00  0.00    +0.001 A 
ATOM      7  C   UNL     1       9.934   2.334  23.331  0.00  0.00    +0.004 A 
ATOM      8  C   UNL     1       9.855   1.528  24.465  0.00  0.00    +0.046 A 
BRANCH   3   9
ATOM      9  O   UNL     1       9.623  -0.608  25.471  0.00  0.00    -0.506 OA
ATOM     10  H   UNL     1      10.168  -0.215  26.174  0.00  0.00    +0.292 HD
ENDBRANCH   3   9
ENDBRANCH   1   4
BRANCH   1  11
ATOM     11  C   UNL     1       7.765  -2.451  23.301  0.00  0.00    +0.109 C 
BRANCH  11  12
ATOM     12  C   UNL     1       7.187  -3.759  22.757  0.00  0.00    +0.014 C 
BRANCH  12  13
ATOM     13  C   UNL     1       7.743  -4.940  23.551  0.00  0.00    +0.013 C 
BRANCH  13  14
ATOM     14  C   UNL     1       7.200  -5.007  24.971  0.00  0.00    +0.127 C 
BRANCH  14  15
ATOM     15  P   UNL     1       8.485  -4.796  26.202  0.00  0.00    +0.328 P 
ATOM     16  O   UNL     1       8.723  -3.395  26.640  0.00  0.00    -0.259 OA
BRANCH  15  17
ATOM     17  O   UNL     1       9.769  -5.534  25.589  0.00  0.00    -0.324 OA
ATOM     18  H   UNL     1      10.127  -6.274  26.111  0.00  0.00    +0.220 HD
ENDBRANCH  15  17
BRANCH  15  19
ATOM     19  O   UNL     1       8.047  -5.806  27.366  0.00  0.00    -0.324 OA
ATOM     20  H   UNL     1       8.261  -6.739  27.185  0.00  0.00    +0.220 HD
ENDBRANCH  15  19
ENDBRANCH  14  15
ENDBRANCH  13  14
ENDBRANCH  12  13
ENDBRANCH  11  12
ENDBRANCH   1  11
TORSDOF 9
ENDMDL
MODEL 2
REMARK VINA RESULT:      -5.3      2.744      2.988
REMARK  Name = 
REMARK  9 active torsions:
REMARK  status: ('A' for Active; 'I' for Inactive)
REMARK    1  A    between atoms: O_1  and  C_2
REMARK    2  A    between atoms: C_7  and  S_8
REMARK    3  A    between atoms: S_8  and  C_10
REMARK    4  A    between atoms: C_10  and  C_11
REMARK    5  A    between atoms: C_11  and  C_12
REMARK    6  A    between atoms: C_12  and  C_13
REMARK    7  A    between atoms: C_13  and  P_14
REMARK    8  A    between atoms: P_14  and  O_15
REMARK    9  A    between atoms: P_14  and  O_16
REMARK                            x       y       z     vdW  Elec       q    Type
REMARK                         _______ _______ _______ _____ _____    ______ ____
ROOT
ATOM      1  S   UNL     1       9.020  -2.112  24.435  0.00  0.00    +0.057 S 
ATOM      2  O   UNL     1       8.692  -1.688  25.839  0.00  0.00    -0.252 OA
ENDROOT
BRANCH   1   4
ATOM      3  C   UNL     1      10.124   0.509  24.190  0.00  0.00    +0.133 A 
ATOM      4  C   UNL     1       9.516  -0.591  23.568  0.00  0.00    +0.080 A 
ATOM      5  C   UNL     1       9.151  -0.465  22.216  0.00  0.00    +0.021 A 
ATOM      6  C   UNL     1       9.390   0.717  21.509  0.00  0.00    +0.001 A 
ATOM      7  C   UNL     1       9.999   1.794  22.142  0.00  0.00    +0.004 A 
ATOM      8  C   UNL     1      10.378   1.688  23.479  0.00  0.00    +0.046 A 
BRANCH   3   9
ATOM      9  O   UNL     1      10.464   0.469  25.513  0.00  0.00    -0.506 OA
ATOM     10  H   UNL     1      11.405   0.696  25.608  0.00  0.00    +0.292 HD
ENDBRANCH   3   9
ENDBRANCH   1   4
BRANCH   1  11
ATOM     11  C   UNL     1       7.456  -2.516  23.612  0.00  0.00    +0.109 C 
BRANCH  11  12
ATOM     12  C   UNL     1       7.634  -3.702  22.660  0.00  0.00    +0.014 C 
BRANCH  12  13
ATOM     13  C   UNL     1       7.669  -5.004  23.457  0.00  0.00    +0.013 C 
BRANCH  13  14
ATOM     14  C   UNL     1       6.364  -5.286  24.187  0.00  0.00    +0.127 C 
BRANCH  14  15
ATOM     15  P   UNL     1       5.117  -5.984  23.106  0.00  0.00    +0.328 P 
ATOM     16  O   UNL     1       4.054  -5.041  22.667  0.00  0.00    -0.259 OA
BRANCH  15  17
ATOM     17  O   UNL     1       4.583  -7.284  23.878  0.00  0.00    -0.324 OA
ATOM     18  H   UNL     1       4.821  -7.350  24.819  0.00  0.00    +0.220 HD
ENDBRANCH  15  17
BRANCH  15  19
ATOM     19  O   UNL     1       5.979  -6.633  21.922  0.00  0.00    -0.324 OA
ATOM     20  H   UNL     1       6.849  -6.214  21.787  0.00  0.00    +0.220 HD
ENDBRANCH  15  19
ENDBRANCH  14  15
ENDBRANCH  13  14
ENDBRANCH  12  13
ENDBRANCH  11  12
ENDBRANCH   1  11
TORSDOF 9
ENDMDL
MODEL 3
REMARK VINA RESULT:      -5.3      2.779      3.094
REMARK  Name = 
REMARK  9 active torsions:
REMARK  status: ('A' for Active; 'I' for Inactive)
REMARK    1  A    between atoms: O_1  and  C_2
REMARK    2  A    between atoms: C_7  and  S_8
REMARK    3  A    between atoms: S_8  and  C_10
REMARK    4  A    between atoms: C_10  and  C_11
REMARK    5  A    between atoms: C_11  and  C_12
REMARK    6  A    between atoms: C_12  and  C_13
REMARK    7  A    between atoms: C_13  and  P_14
REMARK    8  A    between atoms: P_14  and  O_15
REMARK    9  A    between atoms: P_14  and  O_16
REMARK                            x       y       z     vdW  Elec       q    Type
REMARK                         _______ _______ _______ _____ _____    ______ ____
ROOT
ATOM      1  S   UNL     1       9.659  -2.133  23.520  0.00  0.00    +0.057 S 
ATOM      2  O   UNL     1       9.191  -2.335  24.933  0.00  0.00    -0.252 OA
ENDROOT
BRANCH   1   4
ATOM      3  C   UNL     1      10.030   0.553  24.413  0.00  0.00    +0.133 A 
ATOM      4  C   UNL     1       9.906  -0.340  23.338  0.00  0.00    +0.080 A 
ATOM      5  C   UNL     1       9.843   0.198  22.040  0.00  0.00    +0.021 A 
ATOM      6  C   UNL     1       9.906   1.577  21.823  0.00  0.00    +0.001 A 
ATOM      7  C   UNL     1      10.035   2.445  22.902  0.00  0.00    +0.004 A 
ATOM      8  C   UNL     1      10.109   1.934  24.196  0.00  0.00    +0.046 A 
BRANCH   3   9
ATOM      9  O   UNL     1      10.054   0.102  25.702  0.00  0.00    -0.506 OA
ATOM     10  H   UNL     1      10.075   0.863  26.307  0.00  0.00    +0.292 HD
ENDBRANCH   3   9
ENDBRANCH   1   4
BRANCH   1  11
ATOM     11  C   UNL     1       8.239  -2.424  22.432  0.00  0.00    +0.109 C 
BRANCH  11  12
ATOM     12  C   UNL     1       6.974  -1.782  23.006  0.00  0.00    +0.014 C 
BRANCH  12  13
ATOM     13  C   UNL     1       5.954  -2.865  23.350  0.00  0.00    +0.013 C 
BRANCH  13  14
ATOM     14  C   UNL     1       6.536  -4.270  23.277  0.00  0.00    +0.127 C 
BRANCH  14  15
ATOM     15  P   UNL     1       5.588  -5.343  22.199  0.00  0.00    +0.328 P 
ATOM     16  O   UNL     1       4.154  -5.503  22.559  0.00  0.00    -0.259 OA
BRANCH  15  17
ATOM     17  O   UNL     1       6.421  -6.711  22.144  0.00  0.00    -0.324 OA
ATOM     18  H   UNL     1       6.228  -7.359  22.844  0.00  0.00    +0.220 HD
ENDBRANCH  15  17
BRANCH  15  19
ATOM     19  O   UNL     1       5.858  -4.732  20.743  0.00  0.00    -0.324 OA
ATOM     20  H   UNL     1       6.301  -3.864  20.751  0.00  0.00    +0.220 HD
ENDBRANCH  15  19
ENDBRANCH  14  15
ENDBRANCH  13  14
ENDBRANCH  12  13
ENDBRANCH  11  12
ENDBRANCH   1  11
TORSDOF 9
ENDMDL
MODEL 4
REMARK VINA RESULT:      -5.2      2.915      6.113
REMARK  Name = 
REMARK  9 active torsions:
REMARK  status: ('A' for Active; 'I' for Inactive)
REMARK    1  A    between atoms: O_1  and  C_2
REMARK    2  A    between atoms: C_7  and  S_8
REMARK    3  A    between atoms: S_8  and  C_10
REMARK    4  A    between atoms: C_10  and  C_11
REMARK    5  A    between atoms: C_11  and  C_12
REMARK    6  A    between atoms: C_12  and  C_13
REMARK    7  A    between atoms: C_13  and  P_14
REMARK    8  A    between atoms: P_14  and  O_15
REMARK    9  A    between atoms: P_14  and  O_16
REMARK                            x       y       z     vdW  Elec       q    Type
REMARK                         _______ _______ _______ _____ _____    ______ ____
ROOT
ATOM      1  S   UNL     1       9.342  -3.086  24.339  0.00  0.00    +0.057 S 
ATOM      2  O   UNL     1      10.233  -2.370  23.364  0.00  0.00    -0.252 OA
ENDROOT
BRANCH   1   4
ATOM      3  C   UNL     1       7.241  -3.052  22.407  0.00  0.00    +0.133 A 
ATOM      4  C   UNL     1       7.986  -3.782  23.344  0.00  0.00    +0.080 A 
ATOM      5  C   UNL     1       7.582  -5.099  23.625  0.00  0.00    +0.021 A 
ATOM      6  C   UNL     1       6.475  -5.668  22.989  0.00  0.00    +0.001 A 
ATOM      7  C   UNL     1       5.753  -4.930  22.059  0.00  0.00    +0.004 A 
ATOM      8  C   UNL     1       6.141  -3.626  21.757  0.00  0.00    +0.046 A 
BRANCH   3   9
ATOM      9  O   UNL     1       7.551  -1.753  22.119  0.00  0.00    -0.506 OA
ATOM     10  H   UNL     1       6.750  -1.292  21.816  0.00  0.00    +0.292 HD
ENDBRANCH   3   9
ENDBRANCH   1   4
BRANCH   1  11
ATOM     11  C   UNL     1       8.478  -1.824  25.311  0.00  0.00    +0.109 C 
BRANCH  11  12
ATOM     12  C   UNL     1       9.392  -0.626  25.582  0.00  0.00    +0.014 C 
BRANCH  12  13
ATOM     13  C   UNL     1       8.895   0.591  24.805  0.00  0.00    +0.013 C 
BRANCH  13  14
ATOM     14  C   UNL     1       9.939   1.148  23.848  0.00  0.00    +0.127 C 
BRANCH  14  15
ATOM     15  P   UNL     1       9.375   1.140  22.147  0.00  0.00    +0.328 P 
ATOM     16  O   UNL     1       7.907   1.298  21.961  0.00  0.00    -0.259 OA
BRANCH  15  17
ATOM     17  O   UNL     1       9.990  -0.197  21.514  0.00  0.00    -0.324 OA
ATOM     18  H   UNL     1      10.829  -0.095  21.030  0.00  0.00    +0.220 HD
ENDBRANCH  15  17
BRANCH  15  19
ATOM     19  O   UNL     1      10.271   2.275  21.458  0.00  0.00    -0.324 OA
ATOM     20  H   UNL     1       9.757   2.980  21.023  0.00  0.00    +0.220 HD
ENDBRANCH  15  19
ENDBRANCH  14  15
ENDBRANCH  13  14
ENDBRANCH  12  13
ENDBRANCH  11  12
ENDBRANCH   1  11
TORSDOF 9
ENDMDL
MODEL 5
REMARK VINA RESULT:      -5.1      3.244      6.417
REMARK  Name = 
REMARK  9 active torsions:
REMARK  status: ('A' for Active; 'I' for Inactive)
REMARK    1  A    between atoms: O_1  and  C_2
REMARK    2  A    between atoms: C_7  and  S_8
REMARK    3  A    between atoms: S_8  and  C_10
REMARK    4  A    between atoms: C_10  and  C_11
REMARK    5  A    between atoms: C_11  and  C_12
REMARK    6  A    between atoms: C_12  and  C_13
REMARK    7  A    between atoms: C_13  and  P_14
REMARK    8  A    between atoms: P_14  and  O_15
REMARK    9  A    between atoms: P_14  and  O_16
REMARK                            x       y       z     vdW  Elec       q    Type
REMARK                         _______ _______ _______ _____ _____    ______ ____
ROOT
ATOM      1  S   UNL     1       9.568  -1.877  23.236  0.00  0.00    +0.057 S 
ATOM      2  O   UNL     1       8.623  -1.442  22.152  0.00  0.00    -0.252 OA
ENDROOT
BRANCH   1   4
ATOM      3  C   UNL     1       7.809  -4.107  23.524  0.00  0.00    +0.133 A 
ATOM      4  C   UNL     1       8.711  -3.216  24.123  0.00  0.00    +0.080 A 
ATOM      5  C   UNL     1       8.871  -3.278  25.519  0.00  0.00    +0.021 A 
ATOM      6  C   UNL     1       8.157  -4.202  26.289  0.00  0.00    +0.001 A 
ATOM      7  C   UNL     1       7.272  -5.081  25.675  0.00  0.00    +0.004 A 
ATOM      8  C   UNL     1       7.105  -5.043  24.292  0.00  0.00    +0.046 A 
BRANCH   3   9
ATOM      9  O   UNL     1       7.573  -4.072  22.179  0.00  0.00    -0.506 OA
ATOM     10  H   UNL     1       6.901  -3.395  21.990  0.00  0.00    +0.292 HD
ENDBRANCH   3   9
ENDBRANCH   1   4
BRANCH   1  11
ATOM     11  C   UNL     1       9.598  -0.565  24.487  0.00  0.00    +0.109 C 
BRANCH  11  12
ATOM     12  C   UNL     1      10.757   0.402  24.231  0.00  0.00    +0.014 C 
BRANCH  12  13
ATOM     13  C   UNL     1      10.225   1.693  23.610  0.00  0.00    +0.013 C 
BRANCH  13  14
ATOM     14  C   UNL     1       8.729   1.877  23.818  0.00  0.00    +0.127 C 
BRANCH  14  15
ATOM     15  P   UNL     1       7.849   2.097  22.273  0.00  0.00    +0.328 P 
ATOM     16  O   UNL     1       7.431   3.492  21.970  0.00  0.00    -0.259 OA
BRANCH  15  17
ATOM     17  O   UNL     1       6.649   1.035  22.326  0.00  0.00    -0.324 OA
ATOM     18  H   UNL     1       6.461   0.560  21.497  0.00  0.00    +0.220 HD
ENDBRANCH  15  17
BRANCH  15  19
ATOM     19  O   UNL     1       8.830   1.434  21.194  0.00  0.00    -0.324 OA
ATOM     20  H   UNL     1       8.374   0.923  20.501  0.00  0.00    +0.220 HD
ENDBRANCH  15  19
ENDBRANCH  14  15
ENDBRANCH  13  14
ENDBRANCH  12  13
ENDBRANCH  11  12
ENDBRANCH   1  11
TORSDOF 9
ENDMDL
MODEL 6
REMARK VINA RESULT:      -5.0      2.937      6.331
REMARK  Name = 
REMARK  9 active torsions:
REMARK  status: ('A' for Active; 'I' for Inactive)
REMARK    1  A    between atoms: O_1  and  C_2
REMARK    2  A    between atoms: C_7  and  S_8
REMARK    3  A    between atoms: S_8  and  C_10
REMARK    4  A    between atoms: C_10  and  C_11
REMARK    5  A    between atoms: C_11  and  C_12
REMARK    6  A    between atoms: C_12  and  C_13
REMARK    7  A    between atoms: C_13  and  P_14
REMARK    8  A    between atoms: P_14  and  O_15
REMARK    9  A    between atoms: P_14  and  O_16
REMARK                            x       y       z     vdW  Elec       q    Type
REMARK                         _______ _______ _______ _____ _____    ______ ____
ROOT
ATOM      1  S   UNL     1       7.911  -2.618  24.734  0.00  0.00    +0.057 S 
ATOM      2  O   UNL     1       8.307  -3.412  25.947  0.00  0.00    -0.252 OA
ENDROOT
BRANCH   1   4
ATOM      3  C   UNL     1       7.809  -5.097  23.322  0.00  0.00    +0.133 A 
ATOM      4  C   UNL     1       7.250  -3.832  23.550  0.00  0.00    +0.080 A 
ATOM      5  C   UNL     1       6.187  -3.423  22.724  0.00  0.00    +0.021 A 
ATOM      6  C   UNL     1       5.697  -4.252  21.710  0.00  0.00    +0.001 A 
ATOM      7  C   UNL     1       6.262  -5.505  21.505  0.00  0.00    +0.004 A 
ATOM      8  C   UNL     1       7.310  -5.935  22.317  0.00  0.00    +0.046 A 
BRANCH   3   9
ATOM      9  O   UNL     1       8.872  -5.539  24.058  0.00  0.00    -0.506 OA
ATOM     10  H   UNL     1       8.599  -6.311  24.582  0.00  0.00    +0.292 HD
ENDBRANCH   3   9
ENDBRANCH   1   4
BRANCH   1  11
ATOM     11  C   UNL     1       9.437  -2.090  23.910  0.00  0.00    +0.109 C 
BRANCH  11  12
ATOM     12  C   UNL     1       9.189  -1.833  22.421  0.00  0.00    +0.014 C 
BRANCH  12  13
ATOM     13  C   UNL     1       9.886  -0.542  21.997  0.00  0.00    +0.013 C 
BRANCH  13  14
ATOM     14  C   UNL     1      10.354   0.294  23.179  0.00  0.00    +0.127 C 
BRANCH  14  15
ATOM     15  P   UNL     1       9.985   2.035  22.969  0.00  0.00    +0.328 P 
ATOM     16  O   UNL     1      10.981   2.973  23.552  0.00  0.00    -0.259 OA
BRANCH  15  17
ATOM     17  O   UNL     1       8.493   2.211  23.527  0.00  0.00    -0.324 OA
ATOM     18  H   UNL     1       8.380   2.107  24.489  0.00  0.00    +0.220 HD
ENDBRANCH  15  17
BRANCH  15  19
ATOM     19  O   UNL     1       9.765   2.176  21.388  0.00  0.00    -0.324 OA
ATOM     20  H   UNL     1      10.165   1.458  20.865  0.00  0.00    +0.220 HD
ENDBRANCH  15  19
ENDBRANCH  14  15
ENDBRANCH  13  14
ENDBRANCH  12  13
ENDBRANCH  11  12
ENDBRANCH   1  11
TORSDOF 9
ENDMDL
MODEL 7
REMARK VINA RESULT:      -5.0      3.099      6.418
REMARK  Name = 
REMARK  9 active torsions:
REMARK  status: ('A' for Active; 'I' for Inactive)
REMARK    1  A    between atoms: O_1  and  C_2
REMARK    2  A    between atoms: C_7  and  S_8
REMARK    3  A    between atoms: S_8  and  C_10
REMARK    4  A    between atoms: C_10  and  C_11
REMARK    5  A    between atoms: C_11  and  C_12
REMARK    6  A    between atoms: C_12  and  C_13
REMARK    7  A    between atoms: C_13  and  P_14
REMARK    8  A    between atoms: P_14  and  O_15
REMARK    9  A    between atoms: P_14  and  O_16
REMARK                            x       y       z     vdW  Elec       q    Type
REMARK                         _______ _______ _______ _____ _____    ______ ____
ROOT
ATOM      1  S   UNL     1       7.957  -2.029  24.798  0.00  0.00    +0.057 S 
ATOM      2  O   UNL     1       8.406  -2.777  26.021  0.00  0.00    -0.252 OA
ENDROOT
BRANCH   1   4
ATOM      3  C   UNL     1       7.923  -4.573  23.504  0.00  0.00    +0.133 A 
ATOM      4  C   UNL     1       7.356  -3.298  23.641  0.00  0.00    +0.080 A 
ATOM      5  C   UNL     1       6.339  -2.930  22.742  0.00  0.00    +0.021 A 
ATOM      6  C   UNL     1       5.902  -3.806  21.745  0.00  0.00    +0.001 A 
ATOM      7  C   UNL     1       6.473  -5.068  21.629  0.00  0.00    +0.004 A 
ATOM      8  C   UNL     1       7.476  -5.458  22.516  0.00  0.00    +0.046 A 
BRANCH   3   9
ATOM      9  O   UNL     1       8.945  -4.979  24.316  0.00  0.00    -0.506 OA
ATOM     10  H   UNL     1       9.794  -4.794  23.878  0.00  0.00    +0.292 HD
ENDBRANCH   3   9
ENDBRANCH   1   4
BRANCH   1  11
ATOM     11  C   UNL     1       9.444  -1.430  23.953  0.00  0.00    +0.109 C 
BRANCH  11  12
ATOM     12  C   UNL     1      10.152  -0.362  24.790  0.00  0.00    +0.014 C 
BRANCH  12  13
ATOM     13  C   UNL     1      10.416   0.875  23.933  0.00  0.00    +0.013 C 
BRANCH  13  14
ATOM     14  C   UNL     1       9.285   1.892  23.998  0.00  0.00    +0.127 C 
BRANCH  14  15
ATOM     15  P   UNL     1       8.564   2.212  22.389  0.00  0.00    +0.328 P 
ATOM     16  O   UNL     1       7.363   1.400  22.057  0.00  0.00    -0.259 OA
BRANCH  15  17
ATOM     17  O   UNL     1       9.780   2.064  21.356  0.00  0.00    -0.324 OA
ATOM     18  H   UNL     1       9.537   1.848  20.438  0.00  0.00    +0.220 HD
ENDBRANCH  15  17
BRANCH  15  19
ATOM     19  O   UNL     1       8.329   3.796  22.401  0.00  0.00    -0.324 OA
ATOM     20  H   UNL     1       7.499   4.073  22.829  0.00  0.00    +0.220 HD
ENDBRANCH  15  19
ENDBRANCH  14  15
ENDBRANCH  13  14
ENDBRANCH  12  13
ENDBRANCH  11  12
ENDBRANCH   1  11
TORSDOF 9
ENDMDL
MODEL 8
REMARK VINA RESULT:      -5.0      3.148      3.535
REMARK  Name = 
REMARK  9 active torsions:
REMARK  status: ('A' for Active; 'I' for Inactive)
REMARK    1  A    between atoms: O_1  and  C_2
REMARK    2  A    between atoms: C_7  and  S_8
REMARK    3  A    between atoms: S_8  and  C_10
REMARK    4  A    between atoms: C_10  and  C_11
REMARK    5  A    between atoms: C_11  and  C_12
REMARK    6  A    between atoms: C_12  and  C_13
REMARK    7  A    between atoms: C_13  and  P_14
REMARK    8  A    between atoms: P_14  and  O_15
REMARK    9  A    between atoms: P_14  and  O_16
REMARK                            x       y       z     vdW  Elec       q    Type
REMARK                         _______ _______ _______ _____ _____    ______ ____
ROOT
ATOM      1  S   UNL     1       7.905  -1.348  22.642  0.00  0.00    +0.057 S 
ATOM      2  O   UNL     1       8.718  -2.223  21.732  0.00  0.00    -0.252 OA
ENDROOT
BRANCH   1   4
ATOM      3  C   UNL     1       9.307   1.095  22.177  0.00  0.00    +0.133 A 
ATOM      4  C   UNL     1       8.983   0.057  23.062  0.00  0.00    +0.080 A 
ATOM      5  C   UNL     1       9.630   0.030  24.311  0.00  0.00    +0.021 A 
ATOM      6  C   UNL     1      10.563   1.009  24.664  0.00  0.00    +0.001 A 
ATOM      7  C   UNL     1      10.866   2.033  23.774  0.00  0.00    +0.004 A 
ATOM      8  C   UNL     1      10.229   2.085  22.535  0.00  0.00    +0.046 A 
BRANCH   3   9
ATOM      9  O   UNL     1       8.748   1.157  20.932  0.00  0.00    -0.506 OA
ATOM     10  H   UNL     1       7.785   1.260  21.018  0.00  0.00    +0.292 HD
ENDBRANCH   3   9
ENDBRANCH   1   4
BRANCH   1  11
ATOM     11  C   UNL     1       7.768  -2.200  24.236  0.00  0.00    +0.109 C 
BRANCH  11  12
ATOM     12  C   UNL     1       8.503  -3.543  24.198  0.00  0.00    +0.014 C 
BRANCH  12  13
ATOM     13  C   UNL     1       7.491  -4.685  24.149  0.00  0.00    +0.013 C 
BRANCH  13  14
ATOM     14  C   UNL     1       7.408  -5.343  22.779  0.00  0.00    +0.127 C 
BRANCH  14  15
ATOM     15  P   UNL     1       5.790  -5.154  22.031  0.00  0.00    +0.328 P 
ATOM     16  O   UNL     1       5.164  -3.815  22.196  0.00  0.00    -0.259 OA
BRANCH  15  17
ATOM     17  O   UNL     1       4.925  -6.375  22.606  0.00  0.00    -0.324 OA
ATOM     18  H   UNL     1       3.973  -6.358  22.402  0.00  0.00    +0.220 HD
ENDBRANCH  15  17
BRANCH  15  19
ATOM     19  O   UNL     1       6.033  -5.607  20.513  0.00  0.00    -0.324 OA
ATOM     20  H   UNL     1       6.944  -5.898  20.325  0.00  0.00    +0.220 HD
ENDBRANCH  15  19
ENDBRANCH  14  15
ENDBRANCH  13  14
ENDBRANCH  12  13
ENDBRANCH  11  12
ENDBRANCH   1  11
TORSDOF 9
ENDMDL
MODEL 9
REMARK VINA RESULT:      -4.9      2.606      3.247
REMARK  Name = 
REMARK  9 active torsions:
REMARK  status: ('A' for Active; 'I' for Inactive)
REMARK    1  A    between atoms: O_1  and  C_2
REMARK    2  A    between atoms: C_7  and  S_8
REMARK    3  A    between atoms: S_8  and  C_10
REMARK    4  A    between atoms: C_10  and  C_11
REMARK    5  A    between atoms: C_11  and  C_12
REMARK    6  A    between atoms: C_12  and  C_13
REMARK    7  A    between atoms: C_13  and  P_14
REMARK    8  A    between atoms: P_14  and  O_15
REMARK    9  A    between atoms: P_14  and  O_16
REMARK                            x       y       z     vdW  Elec       q    Type
REMARK                         _______ _______ _______ _____ _____    ______ ____
ROOT
ATOM      1  S   UNL     1       8.872  -0.556  22.617  0.00  0.00    +0.057 S 
ATOM      2  O   UNL     1       9.815  -0.475  21.451  0.00  0.00    -0.252 OA
ENDROOT
BRANCH   1   4
ATOM      3  C   UNL     1       8.372   2.193  22.034  0.00  0.00    +0.133 A 
ATOM      4  C   UNL     1       7.906   0.985  22.572  0.00  0.00    +0.080 A 
ATOM      5  C   UNL     1       6.664   0.994  23.233  0.00  0.00    +0.021 A 
ATOM      6  C   UNL     1       5.912   2.167  23.346  0.00  0.00    +0.001 A 
ATOM      7  C   UNL     1       6.389   3.353  22.800  0.00  0.00    +0.004 A 
ATOM      8  C   UNL     1       7.613   3.366  22.133  0.00  0.00    +0.046 A 
BRANCH   3   9
ATOM      9  O   UNL     1       9.589   2.265  21.418  0.00  0.00    -0.506 OA
ATOM     10  H   UNL     1       9.713   3.160  21.058  0.00  0.00    +0.292 HD
ENDBRANCH   3   9
ENDBRANCH   1   4
BRANCH   1  11
ATOM     11  C   UNL     1       9.855  -0.334  24.125  0.00  0.00    +0.109 C 
BRANCH  11  12
ATOM     12  C   UNL     1       9.139  -0.942  25.334  0.00  0.00    +0.014 C 
BRANCH  12  13
ATOM     13  C   UNL     1       8.644  -2.345  24.989  0.00  0.00    +0.013 C 
BRANCH  13  14
ATOM     14  C   UNL     1       8.686  -3.296  26.177  0.00  0.00    +0.127 C 
BRANCH  14  15
ATOM     15  P   UNL     1       8.754  -5.014  25.672  0.00  0.00    +0.328 P 
ATOM     16  O   UNL     1       7.760  -5.909  26.323  0.00  0.00    -0.259 OA
BRANCH  15  17
ATOM     17  O   UNL     1      10.283  -5.445  25.880  0.00  0.00    -0.324 OA
ATOM     18  H   UNL     1      10.777  -4.955  26.561  0.00  0.00    +0.220 HD
ENDBRANCH  15  17
BRANCH  15  19
ATOM     19  O   UNL     1       8.648  -4.931  24.076  0.00  0.00    -0.324 OA
ATOM     20  H   UNL     1       9.509  -4.937  23.618  0.00  0.00    +0.220 HD
ENDBRANCH  15  19
ENDBRANCH  14  15
ENDBRANCH  13  14
ENDBRANCH  12  13
ENDBRANCH  11  12
ENDBRANCH   1  11
TORSDOF 9
ENDMDL
