MODEL 1
REMARK VINA RESULT:      -6.9      0.000      0.000
REMARK  Name = 
REMARK  4 active torsions:
REMARK  status: ('A' for Active; 'I' for Inactive)
REMARK    1  A    between atoms: C_1  and  C_2
REMARK    2  A    between atoms: N_6  and  S_7
REMARK    3  A    between atoms: S_7  and  C_10
REMARK    4  A    between atoms: C_13  and  N_14
REMARK                            x       y       z     vdW  Elec       q    Type
REMARK                         _______ _______ _______ _____ _____    ______ ____
ROOT
ATOM      1  S   UNL     1       8.972  -3.139  24.089  0.00  0.00    +0.074 S 
ATOM      2  O   UNL     1       7.919  -3.722  23.284  0.00  0.00    -0.150 OA
ATOM      3  O   UNL     1      10.189  -3.881  24.343  0.00  0.00    -0.150 OA
ENDROOT
BRANCH   1   8
ATOM      4  C   UNL     1       5.162  -6.479  27.427  0.00  0.00    +0.075 C 
ATOM      5  C   UNL     1       6.256  -5.539  27.082  0.00  0.00    +0.101 A 
ATOM      6  S   UNL     1       5.963  -4.171  26.080  0.00  0.00    -0.035 S 
ATOM      7  C   UNL     1       7.637  -3.853  26.171  0.00  0.00    +0.201 A 
ATOM      8  N   UNL     1       8.244  -2.735  25.559  0.00  0.00    -0.192 N 
ATOM      9  H   UNL     1       7.612  -1.962  25.374  0.00  0.00    +0.176 HD
ATOM     10  N   UNL     1       8.317  -4.675  26.938  0.00  0.00    -0.125 NA
ATOM     11  N   UNL     1       7.506  -5.652  27.483  0.00  0.00    -0.145 NA
ENDBRANCH   1   8
BRANCH   1  12
ATOM     12  C   UNL     1       9.372  -1.571  23.382  0.00  0.00    +0.109 A 
ATOM     13  C   UNL     1       9.165  -1.370  22.017  0.00  0.00    +0.030 A 
ATOM     14  C   UNL     1       9.437  -0.119  21.461  0.00  0.00    +0.024 A 
ATOM     15  C   UNL     1       9.880   0.938  22.263  0.00  0.00    +0.025 A 
ATOM     16  C   UNL     1      10.174   0.689  23.608  0.00  0.00    +0.024 A 
ATOM     17  C   UNL     1       9.902  -0.555  24.180  0.00  0.00    +0.030 A 
BRANCH  15  18
ATOM     18  N   UNL     1      10.238   2.158  21.678  0.00  0.00    -0.358 N 
ATOM     19  H   UNL     1      11.055   2.091  21.078  0.00  0.00    +0.142 HD
ATOM     20  H   UNL     1       9.464   2.622  21.211  0.00  0.00    +0.142 HD
ENDBRANCH  15  18
ENDBRANCH   1  12
TORSDOF 3
ENDMDL
MODEL 2
REMARK VINA RESULT:      -6.4      3.094      3.233
REMARK  Name = 
REMARK  4 active torsions:
REMARK  status: ('A' for Active; 'I' for Inactive)
REMARK    1  A    between atoms: C_1  and  C_2
REMARK    2  A    between atoms: N_6  and  S_7
REMARK    3  A    between atoms: S_7  and  C_10
REMARK    4  A    between atoms: C_13  and  N_14
REMARK                            x       y       z     vdW  Elec       q    Type
REMARK                         _______ _______ _______ _____ _____    ______ ____
ROOT
ATOM      1  S   UNL     1       9.147  -2.204  23.689  0.00  0.00    +0.074 S 
ATOM      2  O   UNL     1      10.341  -3.013  23.811  0.00  0.00    -0.150 OA
ATOM      3  O   UNL     1       8.138  -2.236  24.728  0.00  0.00    -0.150 OA
ENDROOT
BRANCH   1   8
ATOM      4  C   UNL     1       4.423  -5.891  22.738  0.00  0.00    +0.075 C 
ATOM      5  C   UNL     1       5.351  -4.745  22.582  0.00  0.00    +0.101 A 
ATOM      6  S   UNL     1       7.036  -4.998  22.340  0.00  0.00    -0.035 S 
ATOM      7  C   UNL     1       7.211  -3.301  22.395  0.00  0.00    +0.201 A 
ATOM      8  N   UNL     1       8.450  -2.647  22.216  0.00  0.00    -0.192 N 
ATOM      9  H   UNL     1       9.144  -3.192  21.713  0.00  0.00    +0.176 HD
ATOM     10  N   UNL     1       6.089  -2.631  22.520  0.00  0.00    -0.125 NA
ATOM     11  N   UNL     1       4.998  -3.475  22.614  0.00  0.00    -0.145 NA
ENDBRANCH   1   8
BRANCH   1  12
ATOM     12  C   UNL     1       9.662  -0.537  23.417  0.00  0.00    +0.109 A 
ATOM     13  C   UNL     1       9.531   0.014  22.142  0.00  0.00    +0.030 A 
ATOM     14  C   UNL     1       9.894   1.345  21.932  0.00  0.00    +0.024 A 
ATOM     15  C   UNL     1      10.354   2.136  22.991  0.00  0.00    +0.025 A 
ATOM     16  C   UNL     1      10.571   1.538  24.237  0.00  0.00    +0.024 A 
ATOM     17  C   UNL     1      10.207   0.210  24.464  0.00  0.00    +0.030 A 
BRANCH  15  18
ATOM     18  N   UNL     1      10.803   3.439  22.747  0.00  0.00    -0.358 N 
ATOM     19  H   UNL     1      10.502   4.105  23.453  0.00  0.00    +0.142 HD
ATOM     20  H   UNL     1      11.804   3.495  22.580  0.00  0.00    +0.142 HD
ENDBRANCH  15  18
ENDBRANCH   1  12
TORSDOF 3
ENDMDL
MODEL 3
REMARK VINA RESULT:      -6.2      1.464      1.927
REMARK  Name = 
REMARK  4 active torsions:
REMARK  status: ('A' for Active; 'I' for Inactive)
REMARK    1  A    between atoms: C_1  and  C_2
REMARK    2  A    between atoms: N_6  and  S_7
REMARK    3  A    between atoms: S_7  and  C_10
REMARK    4  A    between atoms: C_13  and  N_14
REMARK                            x       y       z     vdW  Elec       q    Type
REMARK                         _______ _______ _______ _____ _____    ______ ____
ROOT
ATOM      1  S   UNL     1       9.074  -2.217  23.460  0.00  0.00    +0.074 S 
ATOM      2  O   UNL     1       8.322  -2.563  22.272  0.00  0.00    -0.150 OA
ATOM      3  O   UNL     1      10.208  -3.022  23.863  0.00  0.00    -0.150 OA
ENDROOT
BRANCH   1   8
ATOM      4  C   UNL     1       4.909  -6.392  24.887  0.00  0.00    +0.075 C 
ATOM      5  C   UNL     1       5.944  -5.343  25.049  0.00  0.00    +0.101 A 
ATOM      6  S   UNL     1       5.778  -3.810  24.286  0.00  0.00    -0.035 S 
ATOM      7  C   UNL     1       7.323  -3.430  24.905  0.00  0.00    +0.201 A 
ATOM      8  N   UNL     1       7.942  -2.176  24.714  0.00  0.00    -0.192 N 
ATOM      9  H   UNL     1       7.300  -1.417  24.507  0.00  0.00    +0.176 HD
ATOM     10  N   UNL     1       7.861  -4.359  25.661  0.00  0.00    -0.125 NA
ATOM     11  N   UNL     1       7.048  -5.472  25.759  0.00  0.00    -0.145 NA
ENDBRANCH   1   8
BRANCH   1  12
ATOM     12  C   UNL     1       9.573  -0.531  23.299  0.00  0.00    +0.109 A 
ATOM     13  C   UNL     1      10.035   0.151  24.425  0.00  0.00    +0.030 A 
ATOM     14  C   UNL     1      10.473   1.469  24.295  0.00  0.00    +0.024 A 
ATOM     15  C   UNL     1      10.486   2.097  23.044  0.00  0.00    +0.025 A 
ATOM     16  C   UNL     1       9.928   1.431  21.947  0.00  0.00    +0.024 A 
ATOM     17  C   UNL     1       9.491   0.110  22.061  0.00  0.00    +0.030 A 
BRANCH  15  18
ATOM     18  N   UNL     1      10.839   3.448  22.943  0.00  0.00    -0.358 N 
ATOM     19  H   UNL     1      10.335   4.044  23.593  0.00  0.00    +0.142 HD
ATOM     20  H   UNL     1      11.842   3.606  22.988  0.00  0.00    +0.142 HD
ENDBRANCH  15  18
ENDBRANCH   1  12
TORSDOF 3
ENDMDL
MODEL 4
REMARK VINA RESULT:      -6.1      1.976      2.288
REMARK  Name = 
REMARK  4 active torsions:
REMARK  status: ('A' for Active; 'I' for Inactive)
REMARK    1  A    between atoms: C_1  and  C_2
REMARK    2  A    between atoms: N_6  and  S_7
REMARK    3  A    between atoms: S_7  and  C_10
REMARK    4  A    between atoms: C_13  and  N_14
REMARK                            x       y       z     vdW  Elec       q    Type
REMARK                         _______ _______ _______ _____ _____    ______ ____
ROOT
ATOM      1  S   UNL     1       9.638  -1.517  22.850  0.00  0.00    +0.074 S 
ATOM      2  O   UNL     1       8.415  -2.100  22.341  0.00  0.00    -0.150 OA
ATOM      3  O   UNL     1      10.906  -1.825  22.221  0.00  0.00    -0.150 OA
ENDROOT
BRANCH   1   8
ATOM      4  C   UNL     1       6.266  -5.636  25.761  0.00  0.00    +0.075 C 
ATOM      5  C   UNL     1       7.442  -4.825  25.366  0.00  0.00    +0.101 A 
ATOM      6  S   UNL     1       7.382  -3.105  25.393  0.00  0.00    -0.035 S 
ATOM      7  C   UNL     1       8.960  -3.125  24.742  0.00  0.00    +0.201 A 
ATOM      8  N   UNL     1       9.701  -1.952  24.481  0.00  0.00    -0.192 N 
ATOM      9  H   UNL     1       9.404  -1.140  25.014  0.00  0.00    +0.176 HD
ATOM     10  N   UNL     1       9.482  -4.320  24.588  0.00  0.00    -0.125 NA
ATOM     11  N   UNL     1       8.600  -5.315  24.967  0.00  0.00    -0.145 NA
ENDBRANCH   1   8
BRANCH   1  12
ATOM     12  C   UNL     1       9.411   0.233  22.897  0.00  0.00    +0.109 A 
ATOM     13  C   UNL     1       8.717   0.856  21.859  0.00  0.00    +0.030 A 
ATOM     14  C   UNL     1       8.495   2.232  21.914  0.00  0.00    +0.024 A 
ATOM     15  C   UNL     1       8.932   2.983  23.011  0.00  0.00    +0.025 A 
ATOM     16  C   UNL     1       9.710   2.359  23.991  0.00  0.00    +0.024 A 
ATOM     17  C   UNL     1       9.935   0.982  23.953  0.00  0.00    +0.030 A 
BRANCH  15  18
ATOM     18  N   UNL     1       8.786   4.375  23.009  0.00  0.00    -0.358 N 
ATOM     19  H   UNL     1       7.853   4.681  23.273  0.00  0.00    +0.142 HD
ATOM     20  H   UNL     1       9.504   4.856  23.543  0.00  0.00    +0.142 HD
ENDBRANCH  15  18
ENDBRANCH   1  12
TORSDOF 3
ENDMDL
MODEL 5
REMARK VINA RESULT:      -6.1      2.729      6.267
REMARK  Name = 
REMARK  4 active torsions:
REMARK  status: ('A' for Active; 'I' for Inactive)
REMARK    1  A    between atoms: C_1  and  C_2
REMARK    2  A    between atoms: N_6  and  S_7
REMARK    3  A    between atoms: S_7  and  C_10
REMARK    4  A    between atoms: C_13  and  N_14
REMARK                            x       y       z     vdW  Elec       q    Type
REMARK                         _______ _______ _______ _____ _____    ______ ____
ROOT
ATOM      1  S   UNL     1       8.976  -3.991  25.303  0.00  0.00    +0.074 S 
ATOM      2  O   UNL     1       9.194  -4.594  26.602  0.00  0.00    -0.150 OA
ATOM      3  O   UNL     1      10.052  -3.940  24.336  0.00  0.00    -0.150 OA
ENDROOT
BRANCH   1   8
ATOM      4  C   UNL     1       9.932   1.037  22.044  0.00  0.00    +0.075 C 
ATOM      5  C   UNL     1       9.242   0.036  22.894  0.00  0.00    +0.101 A 
ATOM      6  S   UNL     1       9.926  -0.478  24.387  0.00  0.00    -0.035 S 
ATOM      7  C   UNL     1       8.618  -1.568  24.512  0.00  0.00    +0.201 A 
ATOM      8  N   UNL     1       8.431  -2.424  25.619  0.00  0.00    -0.192 N 
ATOM      9  H   UNL     1       8.892  -2.117  26.471  0.00  0.00    +0.176 HD
ATOM     10  N   UNL     1       7.735  -1.488  23.544  0.00  0.00    -0.125 NA
ATOM     11  N   UNL     1       8.091  -0.538  22.605  0.00  0.00    -0.145 NA
ENDBRANCH   1   8
BRANCH   1  12
ATOM     12  C   UNL     1       7.570  -4.780  24.583  0.00  0.00    +0.109 A 
ATOM     13  C   UNL     1       6.454  -5.037  25.380  0.00  0.00    +0.030 A 
ATOM     14  C   UNL     1       5.323  -5.619  24.805  0.00  0.00    +0.024 A 
ATOM     15  C   UNL     1       5.288  -5.913  23.438  0.00  0.00    +0.025 A 
ATOM     16  C   UNL     1       6.450  -5.739  22.678  0.00  0.00    +0.024 A 
ATOM     17  C   UNL     1       7.586  -5.152  23.237  0.00  0.00    +0.030 A 
BRANCH  15  18
ATOM     18  N   UNL     1       4.185  -6.582  22.894  0.00  0.00    -0.358 N 
ATOM     19  H   UNL     1       4.290  -6.790  21.905  0.00  0.00    +0.142 HD
ATOM     20  H   UNL     1       3.911  -7.404  23.425  0.00  0.00    +0.142 HD
ENDBRANCH  15  18
ENDBRANCH   1  12
TORSDOF 3
ENDMDL
MODEL 6
REMARK VINA RESULT:      -6.0      2.059      2.590
REMARK  Name = 
REMARK  4 active torsions:
REMARK  status: ('A' for Active; 'I' for Inactive)
REMARK    1  A    between atoms: C_1  and  C_2
REMARK    2  A    between atoms: N_6  and  S_7
REMARK    3  A    between atoms: S_7  and  C_10
REMARK    4  A    between atoms: C_13  and  N_14
REMARK                            x       y       z     vdW  Elec       q    Type
REMARK                         _______ _______ _______ _____ _____    ______ ____
ROOT
ATOM      1  S   UNL     1       9.049  -2.908  24.412  0.00  0.00    +0.074 S 
ATOM      2  O   UNL     1      10.197  -3.764  24.199  0.00  0.00    -0.150 OA
ATOM      3  O   UNL     1       8.579  -2.643  25.756  0.00  0.00    -0.150 OA
ENDROOT
BRANCH   1   8
ATOM      4  C   UNL     1       3.363  -4.094  26.166  0.00  0.00    +0.075 C 
ATOM      5  C   UNL     1       4.501  -3.685  25.308  0.00  0.00    +0.101 A 
ATOM      6  S   UNL     1       5.836  -4.739  25.046  0.00  0.00    -0.035 S 
ATOM      7  C   UNL     1       6.551  -3.472  24.154  0.00  0.00    +0.201 A 
ATOM      8  N   UNL     1       7.800  -3.594  23.506  0.00  0.00    -0.192 N 
ATOM      9  H   UNL     1       8.075  -4.550  23.300  0.00  0.00    +0.176 HD
ATOM     10  N   UNL     1       5.810  -2.395  24.027  0.00  0.00    -0.125 NA
ATOM     11  N   UNL     1       4.604  -2.525  24.689  0.00  0.00    -0.145 NA
ENDBRANCH   1   8
BRANCH   1  12
ATOM     12  C   UNL     1       9.369  -1.381  23.585  0.00  0.00    +0.109 A 
ATOM     13  C   UNL     1       9.802  -0.283  24.330  0.00  0.00    +0.030 A 
ATOM     14  C   UNL     1      10.099   0.913  23.676  0.00  0.00    +0.024 A 
ATOM     15  C   UNL     1      10.000   1.010  22.284  0.00  0.00    +0.025 A 
ATOM     16  C   UNL     1       9.471  -0.069  21.567  0.00  0.00    +0.024 A 
ATOM     17  C   UNL     1       9.174  -1.274  22.207  0.00  0.00    +0.030 A 
BRANCH  15  18
ATOM     18  N   UNL     1      10.210   2.240  21.651  0.00  0.00    -0.358 N 
ATOM     19  H   UNL     1       9.753   2.309  20.746  0.00  0.00    +0.142 HD
ATOM     20  H   UNL     1       9.995   3.038  22.242  0.00  0.00    +0.142 HD
ENDBRANCH  15  18
ENDBRANCH   1  12
TORSDOF 3
ENDMDL
MODEL 7
REMARK VINA RESULT:      -5.9      2.041      6.934
REMARK  Name = 
REMARK  4 active torsions:
REMARK  status: ('A' for Active; 'I' for Inactive)
REMARK    1  A    between atoms: C_1  and  C_2
REMARK    2  A    between atoms: N_6  and  S_7
REMARK    3  A    between atoms: S_7  and  C_10
REMARK    4  A    between atoms: C_13  and  N_14
REMARK                            x       y       z     vdW  Elec       q    Type
REMARK                         _______ _______ _______ _____ _____    ______ ____
ROOT
ATOM      1  S   UNL     1       8.621  -3.453  24.872  0.00  0.00    +0.074 S 
ATOM      2  O   UNL     1       8.738  -2.317  25.762  0.00  0.00    -0.150 OA
ATOM      3  O   UNL     1       9.800  -4.200  24.487  0.00  0.00    -0.150 OA
ENDROOT
BRANCH   1   8
ATOM      4  C   UNL     1       9.710   1.721  21.897  0.00  0.00    +0.075 C 
ATOM      5  C   UNL     1       9.380   0.297  22.141  0.00  0.00    +0.101 A 
ATOM      6  S   UNL     1       8.084  -0.145  23.183  0.00  0.00    -0.035 S 
ATOM      7  C   UNL     1       8.545  -1.769  22.927  0.00  0.00    +0.201 A 
ATOM      8  N   UNL     1       7.853  -2.864  23.488  0.00  0.00    -0.192 N 
ATOM      9  H   UNL     1       6.890  -2.667  23.745  0.00  0.00    +0.176 HD
ATOM     10  N   UNL     1       9.540  -1.937  22.087  0.00  0.00    -0.125 NA
ATOM     11  N   UNL     1      10.019  -0.730  21.614  0.00  0.00    -0.145 NA
ENDBRANCH   1   8
BRANCH   1  12
ATOM     12  C   UNL     1       7.428  -4.552  25.571  0.00  0.00    +0.109 A 
ATOM     13  C   UNL     1       7.474  -4.822  26.939  0.00  0.00    +0.030 A 
ATOM     14  C   UNL     1       6.506  -5.653  27.505  0.00  0.00    +0.024 A 
ATOM     15  C   UNL     1       5.477  -6.188  26.721  0.00  0.00    +0.025 A 
ATOM     16  C   UNL     1       5.506  -5.985  25.337  0.00  0.00    +0.024 A 
ATOM     17  C   UNL     1       6.464  -5.151  24.758  0.00  0.00    +0.030 A 
BRANCH  15  18
ATOM     18  N   UNL     1       4.569  -7.094  27.282  0.00  0.00    -0.358 N 
ATOM     19  H   UNL     1       3.729  -7.216  26.724  0.00  0.00    +0.142 HD
ATOM     20  H   UNL     1       4.991  -7.986  27.527  0.00  0.00    +0.142 HD
ENDBRANCH  15  18
ENDBRANCH   1  12
TORSDOF 3
ENDMDL
MODEL 8
REMARK VINA RESULT:      -5.9      2.992      3.468
REMARK  Name = 
REMARK  4 active torsions:
REMARK  status: ('A' for Active; 'I' for Inactive)
REMARK    1  A    between atoms: C_1  and  C_2
REMARK    2  A    between atoms: N_6  and  S_7
REMARK    3  A    between atoms: S_7  and  C_10
REMARK    4  A    between atoms: C_13  and  N_14
REMARK                            x       y       z     vdW  Elec       q    Type
REMARK                         _______ _______ _______ _____ _____    ______ ____
ROOT
ATOM      1  S   UNL     1       9.992  -0.175  23.973  0.00  0.00    +0.074 S 
ATOM      2  O   UNL     1      10.319  -1.019  22.843  0.00  0.00    -0.150 OA
ATOM      3  O   UNL     1      11.023   0.212  24.914  0.00  0.00    -0.150 OA
ENDROOT
BRANCH   1   8
ATOM      4  C   UNL     1       7.279  -5.392  22.481  0.00  0.00    +0.075 C 
ATOM      5  C   UNL     1       7.882  -4.322  23.311  0.00  0.00    +0.101 A 
ATOM      6  S   UNL     1       7.323  -2.698  23.203  0.00  0.00    -0.035 S 
ATOM      7  C   UNL     1       8.562  -2.289  24.303  0.00  0.00    +0.201 A 
ATOM      8  N   UNL     1       8.756  -0.980  24.795  0.00  0.00    -0.192 N 
ATOM      9  H   UNL     1       7.933  -0.386  24.746  0.00  0.00    +0.176 HD
ATOM     10  N   UNL     1       9.271  -3.304  24.742  0.00  0.00    -0.125 NA
ATOM     11  N   UNL     1       8.863  -4.496  24.174  0.00  0.00    -0.145 NA
ENDBRANCH   1   8
BRANCH   1  12
ATOM     12  C   UNL     1       9.197   1.270  23.342  0.00  0.00    +0.109 A 
ATOM     13  C   UNL     1       8.455   1.176  22.164  0.00  0.00    +0.030 A 
ATOM     14  C   UNL     1       7.787   2.303  21.685  0.00  0.00    +0.024 A 
ATOM     15  C   UNL     1       7.827   3.511  22.390  0.00  0.00    +0.025 A 
ATOM     16  C   UNL     1       8.654   3.610  23.514  0.00  0.00    +0.024 A 
ATOM     17  C   UNL     1       9.324   2.490  24.009  0.00  0.00    +0.030 A 
BRANCH  15  18
ATOM     18  N   UNL     1       7.231   4.657  21.851  0.00  0.00    -0.358 N 
ATOM     19  H   UNL     1       7.627   5.521  22.209  0.00  0.00    +0.142 HD
ATOM     20  H   UNL     1       7.195   4.651  20.836  0.00  0.00    +0.142 HD
ENDBRANCH  15  18
ENDBRANCH   1  12
TORSDOF 3
ENDMDL
MODEL 9
REMARK VINA RESULT:      -5.8      2.518      3.086
REMARK  Name = 
REMARK  4 active torsions:
REMARK  status: ('A' for Active; 'I' for Inactive)
REMARK    1  A    between atoms: C_1  and  C_2
REMARK    2  A    between atoms: N_6  and  S_7
REMARK    3  A    between atoms: S_7  and  C_10
REMARK    4  A    between atoms: C_13  and  N_14
REMARK                            x       y       z     vdW  Elec       q    Type
REMARK                         _______ _______ _______ _____ _____    ______ ____
ROOT
ATOM      1  S   UNL     1       8.660  -2.013  25.097  0.00  0.00    +0.074 S 
ATOM      2  O   UNL     1       9.364  -3.182  24.613  0.00  0.00    -0.150 OA
ATOM      3  O   UNL     1       8.701  -1.670  26.503  0.00  0.00    -0.150 OA
ENDROOT
BRANCH   1   8
ATOM      4  C   UNL     1       6.430  -6.016  21.119  0.00  0.00    +0.075 C 
ATOM      5  C   UNL     1       6.534  -5.157  22.323  0.00  0.00    +0.101 A 
ATOM      6  S   UNL     1       6.795  -3.461  22.180  0.00  0.00    -0.035 S 
ATOM      7  C   UNL     1       6.875  -3.417  23.885  0.00  0.00    +0.201 A 
ATOM      8  N   UNL     1       7.054  -2.223  24.617  0.00  0.00    -0.192 N 
ATOM      9  H   UNL     1       6.782  -1.380  24.120  0.00  0.00    +0.176 HD
ATOM     10  N   UNL     1       6.660  -4.567  24.480  0.00  0.00    -0.125 NA
ATOM     11  N   UNL     1       6.445  -5.583  23.567  0.00  0.00    -0.145 NA
ENDBRANCH   1   8
BRANCH   1  12
ATOM     12  C   UNL     1       9.202  -0.634  24.136  0.00  0.00    +0.109 A 
ATOM     13  C   UNL     1      10.141   0.243  24.679  0.00  0.00    +0.030 A 
ATOM     14  C   UNL     1      10.606   1.308  23.907  0.00  0.00    +0.024 A 
ATOM     15  C   UNL     1      10.167   1.483  22.590  0.00  0.00    +0.025 A 
ATOM     16  C   UNL     1       9.154   0.652  22.100  0.00  0.00    +0.024 A 
ATOM     17  C   UNL     1       8.682  -0.422  22.857  0.00  0.00    +0.030 A 
BRANCH  15  18
ATOM     18  N   UNL     1      10.569   2.607  21.860  0.00  0.00    -0.358 N 
ATOM     19  H   UNL     1      10.326   2.554  20.875  0.00  0.00    +0.142 HD
ATOM     20  H   UNL     1      10.269   3.485  22.275  0.00  0.00    +0.142 HD
ENDBRANCH  15  18
ENDBRANCH   1  12
TORSDOF 3
ENDMDL
