MODEL 1
REMARK VINA RESULT:      -7.7      0.000      0.000
REMARK  Name = 
REMARK  17 active torsions:
REMARK  status: ('A' for Active; 'I' for Inactive)
REMARK    1  A    between atoms: O_1  and  C_2
REMARK    2  A    between atoms: C_2  and  C_3
REMARK    3  A    between atoms: C_6  and  O_8
REMARK    4  A    between atoms: O_8  and  P_9
REMARK    5  A    between atoms: P_9  and  O_10
REMARK    6  A    between atoms: P_9  and  O_12
REMARK    7  A    between atoms: O_12  and  P_13
REMARK    8  A    between atoms: P_13  and  O_14
REMARK    9  A    between atoms: P_13  and  O_16
REMARK   10  A    between atoms: O_16  and  C_17
REMARK   11  A    between atoms: C_17  and  C_18
REMARK   12  A    between atoms: C_21  and  N_29
REMARK   13  A    between atoms: C_23  and  O_25
REMARK   14  A    between atoms: C_26  and  O_28
REMARK   15  A    between atoms: C_37  and  O_39
REMARK   16  A    between atoms: C_40  and  O_42
REMARK   17  A    between atoms: C_43  and  O_45
REMARK                            x       y       z     vdW  Elec       q    Type
REMARK                         _______ _______ _______ _____ _____    ______ ____
ROOT
ATOM      1  P   UNL     1       9.201  -1.386  22.617  0.00  0.00    +0.483 P 
ATOM      2  O   UNL     1      10.011  -2.642  22.965  0.00  0.00    -0.227 OA
ENDROOT
BRANCH   1   3
ATOM      3  O   UNL     1       9.815  -0.980  21.155  0.00  0.00    -0.302 OA
ATOM      4  H   UNL     1       9.075  -0.609  20.632  0.00  0.00    +0.222 HD
ENDBRANCH   1   3
BRANCH   1   5
ATOM      5  O   UNL     1      10.441  -0.471  23.402  0.00  0.00    -0.186 OA
BRANCH   5   6
ATOM      6  P   UNL     1       9.723   0.807  24.320  0.00  0.00    +0.486 P 
ATOM      7  O   UNL     1      11.017   1.628  24.286  0.00  0.00    -0.227 OA
BRANCH   6   8
ATOM      8  O   UNL     1       9.005   2.084  25.240  0.00  0.00    -0.302 OA
ATOM      9  H   UNL     1       8.471   2.570  24.579  0.00  0.00    +0.222 HD
ENDBRANCH   6   8
BRANCH   6  10
ATOM     10  O   UNL     1       8.837   1.259  22.988  0.00  0.00    -0.254 OA
BRANCH  10  15
ATOM     11  C   UNL     1       7.430   4.600  23.077  0.00  0.00    +0.178 C 
ATOM     12  C   UNL     1       5.969   4.393  22.653  0.00  0.00    +0.177 C 
ATOM     13  C   UNL     1       5.497   3.005  23.129  0.00  0.00    +0.179 C 
ATOM     14  C   UNL     1       6.473   1.894  22.697  0.00  0.00    +0.202 C 
ATOM     15  C   UNL     1       7.878   2.294  23.199  0.00  0.00    +0.293 C 
ATOM     16  O   UNL     1       8.271   3.527  22.607  0.00  0.00    -0.340 OA
BRANCH  12  17
ATOM     17  O   UNL     1       5.158   5.429  23.221  0.00  0.00    -0.386 OA
ATOM     18  H   UNL     1       5.250   5.409  24.191  0.00  0.00    +0.210 HD
ENDBRANCH  12  17
BRANCH  13  19
ATOM     19  O   UNL     1       4.174   2.714  22.668  0.00  0.00    -0.386 OA
ATOM     20  H   UNL     1       3.600   2.805  23.456  0.00  0.00    +0.210 HD
ENDBRANCH  13  19
BRANCH  14  21
ATOM     21  O   UNL     1       5.999   0.674  23.295  0.00  0.00    -0.384 OA
ATOM     22  H   UNL     1       5.395   0.923  24.018  0.00  0.00    +0.210 HD
ENDBRANCH  14  21
BRANCH  11  23
ATOM     23  C   UNL     1       7.994   5.939  22.612  0.00  0.00    +0.190 C 
BRANCH  23  24
ATOM     24  O   UNL     1       7.457   6.224  21.309  0.00  0.00    -0.392 OA
ATOM     25  H   UNL     1       7.243   5.367  20.906  0.00  0.00    +0.210 HD
ENDBRANCH  23  24
ENDBRANCH  11  23
ENDBRANCH  10  15
ENDBRANCH   6  10
ENDBRANCH   5   6
ENDBRANCH   1   5
BRANCH   1  26
ATOM     26  O   UNL     1       7.961  -2.301  21.832  0.00  0.00    -0.284 OA
BRANCH  26  27
ATOM     27  C   UNL     1       6.815  -2.577  22.653  0.00  0.00    +0.206 C 
BRANCH  27  28
ATOM     28  C   UNL     1       6.404  -4.050  22.723  0.00  0.00    +0.178 C 
ATOM     29  C   UNL     1       7.545  -5.030  22.520  0.00  0.00    +0.178 C 
ATOM     30  C   UNL     1       7.915  -5.495  23.920  0.00  0.00    +0.195 C 
ATOM     31  C   UNL     1       6.907  -4.792  24.856  0.00  0.00    +0.255 C 
ATOM     32  O   UNL     1       5.828  -4.362  24.008  0.00  0.00    -0.346 OA
BRANCH  31  33
ATOM     33  N   UNL     1       6.395  -5.612  25.965  0.00  0.00    -0.271 N 
ATOM     34  C   UNL     1       7.098  -5.588  27.166  0.00  0.00    +0.331 A 
ATOM     35  O   UNL     1       8.139  -4.957  27.344  0.00  0.00    -0.246 OA
ATOM     36  N   UNL     1       6.557  -6.312  28.193  0.00  0.00    -0.275 N 
ATOM     37  H   UNL     1       7.052  -6.282  29.071  0.00  0.00    +0.173 HD
ATOM     38  C   UNL     1       5.276  -6.775  28.235  0.00  0.00    +0.254 A 
ATOM     39  O   UNL     1       4.744  -7.171  29.265  0.00  0.00    -0.268 OA
ATOM     40  C   UNL     1       4.535  -6.714  26.979  0.00  0.00    +0.088 A 
ATOM     41  C   UNL     1       5.115  -6.143  25.911  0.00  0.00    +0.098 A 
ENDBRANCH  31  33
BRANCH  30  42
ATOM     42  O   UNL     1       9.263  -5.132  24.230  0.00  0.00    -0.385 OA
ATOM     43  H   UNL     1       9.599  -5.858  24.802  0.00  0.00    +0.210 HD
ENDBRANCH  30  42
BRANCH  29  44
ATOM     44  O   UNL     1       7.063  -6.148  21.749  0.00  0.00    -0.386 OA
ATOM     45  H   UNL     1       6.105  -6.035  21.615  0.00  0.00    +0.210 HD
ENDBRANCH  29  44
ENDBRANCH  27  28
ENDBRANCH  26  27
ENDBRANCH   1  26
TORSDOF 17
ENDMDL
MODEL 2
REMARK VINA RESULT:      -7.6      3.180      9.383
REMARK  Name = 
REMARK  17 active torsions:
REMARK  status: ('A' for Active; 'I' for Inactive)
REMARK    1  A    between atoms: O_1  and  C_2
REMARK    2  A    between atoms: C_2  and  C_3
REMARK    3  A    between atoms: C_6  and  O_8
REMARK    4  A    between atoms: O_8  and  P_9
REMARK    5  A    between atoms: P_9  and  O_10
REMARK    6  A    between atoms: P_9  and  O_12
REMARK    7  A    between atoms: O_12  and  P_13
REMARK    8  A    between atoms: P_13  and  O_14
REMARK    9  A    between atoms: P_13  and  O_16
REMARK   10  A    between atoms: O_16  and  C_17
REMARK   11  A    between atoms: C_17  and  C_18
REMARK   12  A    between atoms: C_21  and  N_29
REMARK   13  A    between atoms: C_23  and  O_25
REMARK   14  A    between atoms: C_26  and  O_28
REMARK   15  A    between atoms: C_37  and  O_39
REMARK   16  A    between atoms: C_40  and  O_42
REMARK   17  A    between atoms: C_43  and  O_45
REMARK                            x       y       z     vdW  Elec       q    Type
REMARK                         _______ _______ _______ _____ _____    ______ ____
ROOT
ATOM      1  P   UNL     1       7.525  -2.550  23.002  0.00  0.00    +0.483 P 
ATOM      2  O   UNL     1       6.705  -1.254  23.054  0.00  0.00    -0.227 OA
ENDROOT
BRANCH   1   3
ATOM      3  O   UNL     1       8.658  -2.190  21.877  0.00  0.00    -0.302 OA
ATOM      4  H   UNL     1       9.476  -2.658  22.141  0.00  0.00    +0.222 HD
ENDBRANCH   1   3
BRANCH   1   5
ATOM      5  O   UNL     1       6.447  -3.083  21.759  0.00  0.00    -0.186 OA
BRANCH   5   6
ATOM      6  P   UNL     1       6.319  -4.808  21.807  0.00  0.00    +0.486 P 
ATOM      7  O   UNL     1       7.612  -4.932  22.620  0.00  0.00    -0.227 OA
BRANCH   6   8
ATOM      8  O   UNL     1       6.192  -6.532  21.852  0.00  0.00    -0.302 OA
ATOM      9  H   UNL     1       5.549  -6.733  21.142  0.00  0.00    +0.222 HD
ENDBRANCH   6   8
BRANCH   6  10
ATOM     10  O   UNL     1       5.076  -4.680  22.904  0.00  0.00    -0.254 OA
BRANCH  10  15
ATOM     11  C   UNL     1       5.963  -5.769  26.247  0.00  0.00    +0.178 C 
ATOM     12  C   UNL     1       4.737  -6.568  26.709  0.00  0.00    +0.177 C 
ATOM     13  C   UNL     1       4.086  -7.244  25.486  0.00  0.00    +0.179 C 
ATOM     14  C   UNL     1       3.825  -6.235  24.351  0.00  0.00    +0.202 C 
ATOM     15  C   UNL     1       5.165  -5.528  24.048  0.00  0.00    +0.293 C 
ATOM     16  O   UNL     1       5.619  -4.834  25.204  0.00  0.00    -0.340 OA
BRANCH  12  17
ATOM     17  O   UNL     1       5.144  -7.545  27.675  0.00  0.00    -0.386 OA
ATOM     18  H   UNL     1       5.945  -7.997  27.352  0.00  0.00    +0.210 HD
ENDBRANCH  12  17
BRANCH  13  19
ATOM     19  O   UNL     1       2.875  -7.918  25.843  0.00  0.00    -0.386 OA
ATOM     20  H   UNL     1       2.238  -7.698  25.132  0.00  0.00    +0.210 HD
ENDBRANCH  13  19
BRANCH  14  21
ATOM     21  O   UNL     1       3.335  -6.993  23.231  0.00  0.00    -0.384 OA
ATOM     22  H   UNL     1       3.357  -7.934  23.487  0.00  0.00    +0.210 HD
ENDBRANCH  14  21
BRANCH  11  23
ATOM     23  C   UNL     1       6.652  -5.031  27.393  0.00  0.00    +0.190 C 
BRANCH  23  24
ATOM     24  O   UNL     1       7.573  -5.939  28.021  0.00  0.00    -0.392 OA
ATOM     25  H   UNL     1       8.439  -5.780  27.611  0.00  0.00    +0.210 HD
ENDBRANCH  23  24
ENDBRANCH  11  23
ENDBRANCH  10  15
ENDBRANCH   6  10
ENDBRANCH   5   6
ENDBRANCH   1   5
BRANCH   1  26
ATOM     26  O   UNL     1       8.604  -2.015  24.245  0.00  0.00    -0.284 OA
BRANCH  26  27
ATOM     27  C   UNL     1       8.160  -0.850  24.958  0.00  0.00    +0.206 C 
BRANCH  27  28
ATOM     28  C   UNL     1       9.167   0.300  25.016  0.00  0.00    +0.178 C 
ATOM     29  C   UNL     1      10.313   0.182  24.028  0.00  0.00    +0.178 C 
ATOM     30  C   UNL     1       9.942   1.115  22.885  0.00  0.00    +0.195 C 
ATOM     31  C   UNL     1       8.614   1.774  23.320  0.00  0.00    +0.255 C 
ATOM     32  O   UNL     1       8.525   1.561  24.739  0.00  0.00    -0.346 OA
BRANCH  31  33
ATOM     33  N   UNL     1       8.484   3.204  23.004  0.00  0.00    -0.271 N 
ATOM     34  C   UNL     1       7.425   3.592  22.188  0.00  0.00    +0.331 A 
ATOM     35  O   UNL     1       6.618   2.812  21.685  0.00  0.00    -0.246 OA
ATOM     36  N   UNL     1       7.299   4.937  21.967  0.00  0.00    -0.275 N 
ATOM     37  H   UNL     1       6.522   5.225  21.393  0.00  0.00    +0.173 HD
ATOM     38  C   UNL     1       7.901   5.911  22.705  0.00  0.00    +0.254 A 
ATOM     39  O   UNL     1       7.559   7.087  22.664  0.00  0.00    -0.268 OA
ATOM     40  C   UNL     1       8.955   5.464  23.612  0.00  0.00    +0.088 A 
ATOM     41  C   UNL     1       9.199   4.149  23.724  0.00  0.00    +0.098 A 
ENDBRANCH  31  33
BRANCH  30  42
ATOM     42  O   UNL     1       9.792   0.381  21.667  0.00  0.00    -0.385 OA
ATOM     43  H   UNL     1       9.218  -0.384  21.897  0.00  0.00    +0.210 HD
ENDBRANCH  30  42
BRANCH  29  44
ATOM     44  O   UNL     1      11.521   0.647  24.661  0.00  0.00    -0.386 OA
ATOM     45  H   UNL     1      11.313   0.874  25.585  0.00  0.00    +0.210 HD
ENDBRANCH  29  44
ENDBRANCH  27  28
ENDBRANCH  26  27
ENDBRANCH   1  26
TORSDOF 17
ENDMDL
MODEL 3
REMARK VINA RESULT:      -7.4      1.196      2.490
REMARK  Name = 
REMARK  17 active torsions:
REMARK  status: ('A' for Active; 'I' for Inactive)
REMARK    1  A    between atoms: O_1  and  C_2
REMARK    2  A    between atoms: C_2  and  C_3
REMARK    3  A    between atoms: C_6  and  O_8
REMARK    4  A    between atoms: O_8  and  P_9
REMARK    5  A    between atoms: P_9  and  O_10
REMARK    6  A    between atoms: P_9  and  O_12
REMARK    7  A    between atoms: O_12  and  P_13
REMARK    8  A    between atoms: P_13  and  O_14
REMARK    9  A    between atoms: P_13  and  O_16
REMARK   10  A    between atoms: O_16  and  C_17
REMARK   11  A    between atoms: C_17  and  C_18
REMARK   12  A    between atoms: C_21  and  N_29
REMARK   13  A    between atoms: C_23  and  O_25
REMARK   14  A    between atoms: C_26  and  O_28
REMARK   15  A    between atoms: C_37  and  O_39
REMARK   16  A    between atoms: C_40  and  O_42
REMARK   17  A    between atoms: C_43  and  O_45
REMARK                            x       y       z     vdW  Elec       q    Type
REMARK                         _______ _______ _______ _____ _____    ______ ____
ROOT
ATOM      1  P   UNL     1       8.624  -1.248  22.906  0.00  0.00    +0.483 P 
ATOM      2  O   UNL     1       7.673  -1.352  24.105  0.00  0.00    -0.227 OA
ENDROOT
BRANCH   1   3
ATOM      3  O   UNL     1       9.757  -2.370  23.273  0.00  0.00    -0.302 OA
ATOM      4  H   UNL     1       9.833  -2.959  22.494  0.00  0.00    +0.222 HD
ENDBRANCH   1   3
BRANCH   1   5
ATOM      5  O   UNL     1       9.497  -0.058  23.807  0.00  0.00    -0.186 OA
BRANCH   5   6
ATOM      6  P   UNL     1       9.982   1.225  22.753  0.00  0.00    +0.486 P 
ATOM      7  O   UNL     1       9.025   0.752  21.653  0.00  0.00    -0.227 OA
BRANCH   6   8
ATOM      8  O   UNL     1      10.468   2.507  21.698  0.00  0.00    -0.302 OA
ATOM      9  H   UNL     1      10.003   3.289  22.058  0.00  0.00    +0.222 HD
ENDBRANCH   6   8
BRANCH   6  10
ATOM     10  O   UNL     1       9.134   2.307  23.689  0.00  0.00    -0.254 OA
BRANCH  10  15
ATOM     11  C   UNL     1       5.634   1.631  24.351  0.00  0.00    +0.178 C 
ATOM     12  C   UNL     1       4.922   2.917  23.909  0.00  0.00    +0.177 C 
ATOM     13  C   UNL     1       5.702   3.546  22.737  0.00  0.00    +0.179 C 
ATOM     14  C   UNL     1       7.198   3.702  23.068  0.00  0.00    +0.202 C 
ATOM     15  C   UNL     1       7.719   2.314  23.505  0.00  0.00    +0.293 C 
ATOM     16  O   UNL     1       7.020   1.878  24.665  0.00  0.00    -0.340 OA
BRANCH  12  17
ATOM     17  O   UNL     1       3.579   2.606  23.518  0.00  0.00    -0.386 OA
ATOM     18  H   UNL     1       3.020   2.557  24.315  0.00  0.00    +0.210 HD
ENDBRANCH  12  17
BRANCH  13  19
ATOM     19  O   UNL     1       5.143   4.806  22.352  0.00  0.00    -0.386 OA
ATOM     20  H   UNL     1       4.893   4.701  21.411  0.00  0.00    +0.210 HD
ENDBRANCH  13  19
BRANCH  14  21
ATOM     21  O   UNL     1       7.838   4.179  21.872  0.00  0.00    -0.384 OA
ATOM     22  H   UNL     1       7.138   4.315  21.206  0.00  0.00    +0.210 HD
ENDBRANCH  14  21
BRANCH  11  23
ATOM     23  C   UNL     1       4.949   0.958  25.538  0.00  0.00    +0.190 C 
BRANCH  23  24
ATOM     24  O   UNL     1       4.999  -0.465  25.337  0.00  0.00    -0.392 OA
ATOM     25  H   UNL     1       5.818  -0.645  24.848  0.00  0.00    +0.210 HD
ENDBRANCH  23  24
ENDBRANCH  11  23
ENDBRANCH  10  15
ENDBRANCH   6  10
ENDBRANCH   5   6
ENDBRANCH   1   5
BRANCH   1  26
ATOM     26  O   UNL     1       7.751  -2.439  22.004  0.00  0.00    -0.284 OA
BRANCH  26  27
ATOM     27  C   UNL     1       6.454  -2.755  22.535  0.00  0.00    +0.206 C 
BRANCH  27  28
ATOM     28  C   UNL     1       6.162  -4.248  22.694  0.00  0.00    +0.178 C 
ATOM     29  C   UNL     1       7.371  -5.147  22.513  0.00  0.00    +0.178 C 
ATOM     30  C   UNL     1       7.808  -5.505  23.925  0.00  0.00    +0.195 C 
ATOM     31  C   UNL     1       6.768  -4.833  24.849  0.00  0.00    +0.255 C 
ATOM     32  O   UNL     1       5.641  -4.533  24.008  0.00  0.00    -0.346 OA
BRANCH  31  33
ATOM     33  N   UNL     1       6.347  -5.628  26.012  0.00  0.00    -0.271 N 
ATOM     34  C   UNL     1       7.119  -5.545  27.167  0.00  0.00    +0.331 A 
ATOM     35  O   UNL     1       8.151  -4.881  27.262  0.00  0.00    -0.246 OA
ATOM     36  N   UNL     1       6.661  -6.248  28.248  0.00  0.00    -0.275 N 
ATOM     37  H   UNL     1       7.207  -6.176  29.093  0.00  0.00    +0.173 HD
ATOM     38  C   UNL     1       5.399  -6.742  28.383  0.00  0.00    +0.254 A 
ATOM     39  O   UNL     1       4.940  -7.118  29.455  0.00  0.00    -0.268 OA
ATOM     40  C   UNL     1       4.583  -6.743  27.172  0.00  0.00    +0.088 A 
ATOM     41  C   UNL     1       5.081  -6.194  26.054  0.00  0.00    +0.098 A 
ENDBRANCH  31  33
BRANCH  30  42
ATOM     42  O   UNL     1       9.129  -5.023  24.180  0.00  0.00    -0.385 OA
ATOM     43  H   UNL     1       9.006  -4.127  24.565  0.00  0.00    +0.210 HD
ENDBRANCH  30  42
BRANCH  29  44
ATOM     44  O   UNL     1       6.962  -6.339  21.815  0.00  0.00    -0.386 OA
ATOM     45  H   UNL     1       6.493  -6.072  21.005  0.00  0.00    +0.210 HD
ENDBRANCH  29  44
ENDBRANCH  27  28
ENDBRANCH  26  27
ENDBRANCH   1  26
TORSDOF 17
ENDMDL
MODEL 4
REMARK VINA RESULT:      -7.3      1.089      2.244
REMARK  Name = 
REMARK  17 active torsions:
REMARK  status: ('A' for Active; 'I' for Inactive)
REMARK    1  A    between atoms: O_1  and  C_2
REMARK    2  A    between atoms: C_2  and  C_3
REMARK    3  A    between atoms: C_6  and  O_8
REMARK    4  A    between atoms: O_8  and  P_9
REMARK    5  A    between atoms: P_9  and  O_10
REMARK    6  A    between atoms: P_9  and  O_12
REMARK    7  A    between atoms: O_12  and  P_13
REMARK    8  A    between atoms: P_13  and  O_14
REMARK    9  A    between atoms: P_13  and  O_16
REMARK   10  A    between atoms: O_16  and  C_17
REMARK   11  A    between atoms: C_17  and  C_18
REMARK   12  A    between atoms: C_21  and  N_29
REMARK   13  A    between atoms: C_23  and  O_25
REMARK   14  A    between atoms: C_26  and  O_28
REMARK   15  A    between atoms: C_37  and  O_39
REMARK   16  A    between atoms: C_40  and  O_42
REMARK   17  A    between atoms: C_43  and  O_45
REMARK                            x       y       z     vdW  Elec       q    Type
REMARK                         _______ _______ _______ _____ _____    ______ ____
ROOT
ATOM      1  P   UNL     1       8.586  -1.555  22.796  0.00  0.00    +0.483 P 
ATOM      2  O   UNL     1       8.935  -2.473  23.975  0.00  0.00    -0.227 OA
ENDROOT
BRANCH   1   3
ATOM      3  O   UNL     1       9.867  -1.777  21.802  0.00  0.00    -0.302 OA
ATOM      4  H   UNL     1      10.054  -0.911  21.385  0.00  0.00    +0.222 HD
ENDBRANCH   1   3
BRANCH   1   5
ATOM      5  O   UNL     1       9.438  -0.301  23.628  0.00  0.00    -0.186 OA
BRANCH   5   6
ATOM      6  P   UNL     1       9.788   0.988  22.529  0.00  0.00    +0.486 P 
ATOM      7  O   UNL     1       8.611   0.604  21.625  0.00  0.00    -0.227 OA
BRANCH   6   8
ATOM      8  O   UNL     1      10.139   2.275  21.428  0.00  0.00    -0.302 OA
ATOM      9  H   UNL     1      10.222   3.058  22.010  0.00  0.00    +0.222 HD
ENDBRANCH   6   8
BRANCH   6  10
ATOM     10  O   UNL     1       9.203   2.082  23.634  0.00  0.00    -0.254 OA
BRANCH  10  15
ATOM     11  C   UNL     1       6.139   3.768  22.673  0.00  0.00    +0.178 C 
ATOM     12  C   UNL     1       6.414   5.242  23.001  0.00  0.00    +0.177 C 
ATOM     13  C   UNL     1       7.916   5.530  22.807  0.00  0.00    +0.179 C 
ATOM     14  C   UNL     1       8.792   4.513  23.563  0.00  0.00    +0.202 C 
ATOM     15  C   UNL     1       8.352   3.102  23.112  0.00  0.00    +0.293 C 
ATOM     16  O   UNL     1       6.984   2.891  23.445  0.00  0.00    -0.340 OA
BRANCH  12  17
ATOM     17  O   UNL     1       5.621   6.074  22.145  0.00  0.00    -0.386 OA
ATOM     18  H   UNL     1       5.852   7.007  22.307  0.00  0.00    +0.210 HD
ENDBRANCH  12  17
BRANCH  13  19
ATOM     19  O   UNL     1       8.249   6.865  23.201  0.00  0.00    -0.386 OA
ATOM     20  H   UNL     1       8.875   7.186  22.521  0.00  0.00    +0.210 HD
ENDBRANCH  13  19
BRANCH  14  21
ATOM     21  O   UNL     1      10.156   4.804  23.214  0.00  0.00    -0.384 OA
ATOM     22  H   UNL     1      10.142   5.261  22.352  0.00  0.00    +0.210 HD
ENDBRANCH  14  21
BRANCH  11  23
ATOM     23  C   UNL     1       4.676   3.382  22.875  0.00  0.00    +0.190 C 
BRANCH  23  24
ATOM     24  O   UNL     1       3.957   3.705  21.673  0.00  0.00    -0.392 OA
ATOM     25  H   UNL     1       4.226   4.605  21.424  0.00  0.00    +0.210 HD
ENDBRANCH  23  24
ENDBRANCH  11  23
ENDBRANCH  10  15
ENDBRANCH   6  10
ENDBRANCH   5   6
ENDBRANCH   1   5
BRANCH   1  26
ATOM     26  O   UNL     1       7.735  -2.810  21.963  0.00  0.00    -0.284 OA
BRANCH  26  27
ATOM     27  C   UNL     1       6.384  -3.010  22.410  0.00  0.00    +0.206 C 
BRANCH  27  28
ATOM     28  C   UNL     1       5.987  -4.468  22.651  0.00  0.00    +0.178 C 
ATOM     29  C   UNL     1       7.110  -5.467  22.438  0.00  0.00    +0.178 C 
ATOM     30  C   UNL     1       7.605  -5.804  23.836  0.00  0.00    +0.195 C 
ATOM     31  C   UNL     1       6.680  -5.015  24.790  0.00  0.00    +0.255 C 
ATOM     32  O   UNL     1       5.529  -4.659  24.005  0.00  0.00    -0.346 OA
BRANCH  31  33
ATOM     33  N   UNL     1       6.272  -5.728  26.010  0.00  0.00    -0.271 N 
ATOM     34  C   UNL     1       7.081  -5.600  27.135  0.00  0.00    +0.331 A 
ATOM     35  O   UNL     1       8.133  -4.962  27.161  0.00  0.00    -0.246 OA
ATOM     36  N   UNL     1       6.636  -6.225  28.268  0.00  0.00    -0.275 N 
ATOM     37  H   UNL     1       7.209  -6.119  29.091  0.00  0.00    +0.173 HD
ATOM     38  C   UNL     1       5.366  -6.673  28.468  0.00  0.00    +0.254 A 
ATOM     39  O   UNL     1       4.929  -6.972  29.573  0.00  0.00    -0.268 OA
ATOM     40  C   UNL     1       4.514  -6.721  27.283  0.00  0.00    +0.088 A 
ATOM     41  C   UNL     1       4.993  -6.253  26.120  0.00  0.00    +0.098 A 
ENDBRANCH  31  33
BRANCH  30  42
ATOM     42  O   UNL     1       8.973  -5.419  23.991  0.00  0.00    -0.385 OA
ATOM     43  H   UNL     1       9.344  -6.049  24.649  0.00  0.00    +0.210 HD
ENDBRANCH  30  42
BRANCH  29  44
ATOM     44  O   UNL     1       6.567  -6.649  21.818  0.00  0.00    -0.386 OA
ATOM     45  H   UNL     1       6.880  -6.681  20.896  0.00  0.00    +0.210 HD
ENDBRANCH  29  44
ENDBRANCH  27  28
ENDBRANCH  26  27
ENDBRANCH   1  26
TORSDOF 17
ENDMDL
MODEL 5
REMARK VINA RESULT:      -7.3      2.486      4.045
REMARK  Name = 
REMARK  17 active torsions:
REMARK  status: ('A' for Active; 'I' for Inactive)
REMARK    1  A    between atoms: O_1  and  C_2
REMARK    2  A    between atoms: C_2  and  C_3
REMARK    3  A    between atoms: C_6  and  O_8
REMARK    4  A    between atoms: O_8  and  P_9
REMARK    5  A    between atoms: P_9  and  O_10
REMARK    6  A    between atoms: P_9  and  O_12
REMARK    7  A    between atoms: O_12  and  P_13
REMARK    8  A    between atoms: P_13  and  O_14
REMARK    9  A    between atoms: P_13  and  O_16
REMARK   10  A    between atoms: O_16  and  C_17
REMARK   11  A    between atoms: C_17  and  C_18
REMARK   12  A    between atoms: C_21  and  N_29
REMARK   13  A    between atoms: C_23  and  O_25
REMARK   14  A    between atoms: C_26  and  O_28
REMARK   15  A    between atoms: C_37  and  O_39
REMARK   16  A    between atoms: C_40  and  O_42
REMARK   17  A    between atoms: C_43  and  O_45
REMARK                            x       y       z     vdW  Elec       q    Type
REMARK                         _______ _______ _______ _____ _____    ______ ____
ROOT
ATOM      1  P   UNL     1       9.553   1.212  22.626  0.00  0.00    +0.483 P 
ATOM      2  O   UNL     1      10.688   1.182  23.657  0.00  0.00    -0.227 OA
ENDROOT
BRANCH   1   3
ATOM      3  O   UNL     1      10.165   2.203  21.477  0.00  0.00    -0.302 OA
ATOM      4  H   UNL     1      10.196   3.101  21.867  0.00  0.00    +0.222 HD
ENDBRANCH   1   3
BRANCH   1   5
ATOM      5  O   UNL     1       8.924   2.577  23.482  0.00  0.00    -0.186 OA
BRANCH   5   6
ATOM      6  P   UNL     1       7.467   3.115  22.720  0.00  0.00    +0.486 P 
ATOM      7  O   UNL     1       7.165   1.710  22.189  0.00  0.00    -0.227 OA
BRANCH   6   8
ATOM      8  O   UNL     1       6.011   3.654  21.957  0.00  0.00    -0.302 OA
ATOM      9  H   UNL     1       5.384   2.920  22.117  0.00  0.00    +0.222 HD
ENDBRANCH   6   8
BRANCH   6  10
ATOM     10  O   UNL     1       6.738   3.229  24.210  0.00  0.00    -0.254 OA
BRANCH  10  15
ATOM     11  C   UNL     1       7.127   0.219  26.194  0.00  0.00    +0.178 C 
ATOM     12  C   UNL     1       5.765   0.054  26.881  0.00  0.00    +0.177 C 
ATOM     13  C   UNL     1       4.663   0.607  25.955  0.00  0.00    +0.179 C 
ATOM     14  C   UNL     1       4.989   2.033  25.472  0.00  0.00    +0.202 C 
ATOM     15  C   UNL     1       6.395   1.991  24.832  0.00  0.00    +0.293 C 
ATOM     16  O   UNL     1       7.357   1.588  25.801  0.00  0.00    -0.340 OA
BRANCH  12  17
ATOM     17  O   UNL     1       5.542  -1.332  27.168  0.00  0.00    -0.386 OA
ATOM     18  H   UNL     1       5.331  -1.798  26.338  0.00  0.00    +0.210 HD
ENDBRANCH  12  17
BRANCH  13  19
ATOM     19  O   UNL     1       3.381   0.577  26.590  0.00  0.00    -0.386 OA
ATOM     20  H   UNL     1       3.007   1.472  26.460  0.00  0.00    +0.210 HD
ENDBRANCH  13  19
BRANCH  14  21
ATOM     21  O   UNL     1       3.964   2.393  24.529  0.00  0.00    -0.384 OA
ATOM     22  H   UNL     1       3.556   3.219  24.849  0.00  0.00    +0.210 HD
ENDBRANCH  14  21
BRANCH  11  23
ATOM     23  C   UNL     1       8.286  -0.270  27.059  0.00  0.00    +0.190 C 
BRANCH  23  24
ATOM     24  O   UNL     1       9.502  -0.119  26.307  0.00  0.00    -0.392 OA
ATOM     25  H   UNL     1       9.352  -0.551  25.450  0.00  0.00    +0.210 HD
ENDBRANCH  23  24
ENDBRANCH  11  23
ENDBRANCH  10  15
ENDBRANCH   6  10
ENDBRANCH   5   6
ENDBRANCH   1   5
BRANCH   1  26
ATOM     26  O   UNL     1      10.183  -0.153  21.770  0.00  0.00    -0.284 OA
BRANCH  26  27
ATOM     27  C   UNL     1       9.822  -1.426  22.330  0.00  0.00    +0.206 C 
BRANCH  27  28
ATOM     28  C   UNL     1       8.548  -1.426  23.179  0.00  0.00    +0.178 C 
ATOM     29  C   UNL     1       7.294  -1.833  22.428  0.00  0.00    +0.178 C 
ATOM     30  C   UNL     1       7.058  -3.284  22.819  0.00  0.00    +0.195 C 
ATOM     31  C   UNL     1       8.172  -3.611  23.838  0.00  0.00    +0.255 C 
ATOM     32  O   UNL     1       8.670  -2.339  24.288  0.00  0.00    -0.346 OA
BRANCH  31  33
ATOM     33  N   UNL     1       7.760  -4.438  24.982  0.00  0.00    -0.271 N 
ATOM     34  C   UNL     1       8.742  -5.184  25.628  0.00  0.00    +0.331 A 
ATOM     35  O   UNL     1       9.921  -5.226  25.277  0.00  0.00    -0.246 OA
ATOM     36  N   UNL     1       8.334  -5.891  26.727  0.00  0.00    -0.275 N 
ATOM     37  H   UNL     1       9.045  -6.418  27.209  0.00  0.00    +0.173 HD
ATOM     38  C   UNL     1       7.170  -5.682  27.404  0.00  0.00    +0.254 A 
ATOM     39  O   UNL     1       6.961  -6.129  28.525  0.00  0.00    -0.268 OA
ATOM     40  C   UNL     1       6.190  -4.829  26.738  0.00  0.00    +0.088 A 
ATOM     41  C   UNL     1       6.519  -4.250  25.573  0.00  0.00    +0.098 A 
ENDBRANCH  31  33
BRANCH  30  42
ATOM     42  O   UNL     1       7.129  -4.132  21.670  0.00  0.00    -0.385 OA
ATOM     43  H   UNL     1       7.786  -3.705  21.076  0.00  0.00    +0.210 HD
ENDBRANCH  30  42
BRANCH  29  44
ATOM     44  O   UNL     1       6.195  -1.023  22.888  0.00  0.00    -0.386 OA
ATOM     45  H   UNL     1       6.370  -0.099  22.633  0.00  0.00    +0.210 HD
ENDBRANCH  29  44
ENDBRANCH  27  28
ENDBRANCH  26  27
ENDBRANCH   1  26
TORSDOF 17
ENDMDL
MODEL 6
REMARK VINA RESULT:      -7.2      3.383      9.310
REMARK  Name = 
REMARK  17 active torsions:
REMARK  status: ('A' for Active; 'I' for Inactive)
REMARK    1  A    between atoms: O_1  and  C_2
REMARK    2  A    between atoms: C_2  and  C_3
REMARK    3  A    between atoms: C_6  and  O_8
REMARK    4  A    between atoms: O_8  and  P_9
REMARK    5  A    between atoms: P_9  and  O_10
REMARK    6  A    between atoms: P_9  and  O_12
REMARK    7  A    between atoms: O_12  and  P_13
REMARK    8  A    between atoms: P_13  and  O_14
REMARK    9  A    between atoms: P_13  and  O_16
REMARK   10  A    between atoms: O_16  and  C_17
REMARK   11  A    between atoms: C_17  and  C_18
REMARK   12  A    between atoms: C_21  and  N_29
REMARK   13  A    between atoms: C_23  and  O_25
REMARK   14  A    between atoms: C_26  and  O_28
REMARK   15  A    between atoms: C_37  and  O_39
REMARK   16  A    between atoms: C_40  and  O_42
REMARK   17  A    between atoms: C_43  and  O_45
REMARK                            x       y       z     vdW  Elec       q    Type
REMARK                         _______ _______ _______ _____ _____    ______ ____
ROOT
ATOM      1  P   UNL     1       8.227  -3.328  23.836  0.00  0.00    +0.483 P 
ATOM      2  O   UNL     1       7.709  -3.798  22.470  0.00  0.00    -0.227 OA
ENDROOT
BRANCH   1   3
ATOM      3  O   UNL     1       9.781  -2.942  23.496  0.00  0.00    -0.302 OA
ATOM      4  H   UNL     1      10.146  -3.684  22.971  0.00  0.00    +0.222 HD
ENDBRANCH   1   3
BRANCH   1   5
ATOM      5  O   UNL     1       8.689  -4.968  24.131  0.00  0.00    -0.186 OA
BRANCH   5   6
ATOM      6  P   UNL     1       8.376  -5.368  25.785  0.00  0.00    +0.486 P 
ATOM      7  O   UNL     1       9.226  -4.194  26.283  0.00  0.00    -0.227 OA
BRANCH   6   8
ATOM      8  O   UNL     1       8.064  -5.769  27.439  0.00  0.00    -0.302 OA
ATOM      9  H   UNL     1       7.092  -5.682  27.516  0.00  0.00    +0.222 HD
ENDBRANCH   6   8
BRANCH   6  10
ATOM     10  O   UNL     1       6.823  -4.796  25.623  0.00  0.00    -0.254 OA
BRANCH  10  15
ATOM     11  C   UNL     1       4.058  -6.704  26.991  0.00  0.00    +0.178 C 
ATOM     12  C   UNL     1       3.150  -6.952  25.779  0.00  0.00    +0.177 C 
ATOM     13  C   UNL     1       4.020  -7.061  24.510  0.00  0.00    +0.179 C 
ATOM     14  C   UNL     1       4.983  -5.866  24.378  0.00  0.00    +0.202 C 
ATOM     15  C   UNL     1       5.788  -5.776  25.694  0.00  0.00    +0.293 C 
ATOM     16  O   UNL     1       4.904  -5.553  26.787  0.00  0.00    -0.340 OA
BRANCH  12  17
ATOM     17  O   UNL     1       2.399  -8.155  25.987  0.00  0.00    -0.386 OA
ATOM     18  H   UNL     1       1.608  -8.137  25.417  0.00  0.00    +0.210 HD
ENDBRANCH  12  17
BRANCH  13  19
ATOM     19  O   UNL     1       3.216  -7.187  23.333  0.00  0.00    -0.386 OA
ATOM     20  H   UNL     1       3.764  -7.692  22.699  0.00  0.00    +0.210 HD
ENDBRANCH  13  19
BRANCH  14  21
ATOM     21  O   UNL     1       5.818  -6.135  23.238  0.00  0.00    -0.384 OA
ATOM     22  H   UNL     1       5.302  -5.907  22.442  0.00  0.00    +0.210 HD
ENDBRANCH  14  21
BRANCH  11  23
ATOM     23  C   UNL     1       3.275  -6.544  28.291  0.00  0.00    +0.190 C 
BRANCH  23  24
ATOM     24  O   UNL     1       3.072  -7.850  28.855  0.00  0.00    -0.392 OA
ATOM     25  H   UNL     1       2.799  -7.713  29.778  0.00  0.00    +0.210 HD
ENDBRANCH  23  24
ENDBRANCH  11  23
ENDBRANCH  10  15
ENDBRANCH   6  10
ENDBRANCH   5   6
ENDBRANCH   1   5
BRANCH   1  26
ATOM     26  O   UNL     1       7.765  -1.687  23.540  0.00  0.00    -0.284 OA
BRANCH  26  27
ATOM     27  C   UNL     1       6.850  -1.143  24.505  0.00  0.00    +0.206 C 
BRANCH  27  28
ATOM     28  C   UNL     1       7.482  -0.239  25.564  0.00  0.00    +0.178 C 
ATOM     29  C   UNL     1       8.914  -0.594  25.919  0.00  0.00    +0.178 C 
ATOM     30  C   UNL     1       9.767   0.406  25.153  0.00  0.00    +0.195 C 
ATOM     31  C   UNL     1       8.756   1.333  24.442  0.00  0.00    +0.255 C 
ATOM     32  O   UNL     1       7.505   1.133  25.122  0.00  0.00    -0.346 OA
BRANCH  31  33
ATOM     33  N   UNL     1       9.111   2.760  24.423  0.00  0.00    -0.271 N 
ATOM     34  C   UNL     1      10.010   3.191  23.452  0.00  0.00    +0.331 A 
ATOM     35  O   UNL     1      10.554   2.447  22.636  0.00  0.00    -0.246 OA
ATOM     36  N   UNL     1      10.267   4.535  23.425  0.00  0.00    -0.275 N 
ATOM     37  H   UNL     1      10.902   4.854  22.711  0.00  0.00    +0.173 HD
ATOM     38  C   UNL     1       9.507   5.489  24.031  0.00  0.00    +0.254 A 
ATOM     39  O   UNL     1       9.598   6.682  23.766  0.00  0.00    -0.268 OA
ATOM     40  C   UNL     1       8.517   5.003  24.987  0.00  0.00    +0.088 A 
ATOM     41  C   UNL     1       8.360   3.679  25.142  0.00  0.00    +0.098 A 
ENDBRANCH  31  33
BRANCH  30  42
ATOM     42  O   UNL     1      10.612  -0.268  24.218  0.00  0.00    -0.385 OA
ATOM     43  H   UNL     1      11.469   0.214  24.253  0.00  0.00    +0.210 HD
ENDBRANCH  30  42
BRANCH  29  44
ATOM     44  O   UNL     1       9.101  -0.406  27.336  0.00  0.00    -0.386 OA
ATOM     45  H   UNL     1       8.229  -0.249  27.740  0.00  0.00    +0.210 HD
ENDBRANCH  29  44
ENDBRANCH  27  28
ENDBRANCH  26  27
ENDBRANCH   1  26
TORSDOF 17
ENDMDL
MODEL 7
REMARK VINA RESULT:      -7.1      2.974      9.419
REMARK  Name = 
REMARK  17 active torsions:
REMARK  status: ('A' for Active; 'I' for Inactive)
REMARK    1  A    between atoms: O_1  and  C_2
REMARK    2  A    between atoms: C_2  and  C_3
REMARK    3  A    between atoms: C_6  and  O_8
REMARK    4  A    between atoms: O_8  and  P_9
REMARK    5  A    between atoms: P_9  and  O_10
REMARK    6  A    between atoms: P_9  and  O_12
REMARK    7  A    between atoms: O_12  and  P_13
REMARK    8  A    between atoms: P_13  and  O_14
REMARK    9  A    between atoms: P_13  and  O_16
REMARK   10  A    between atoms: O_16  and  C_17
REMARK   11  A    between atoms: C_17  and  C_18
REMARK   12  A    between atoms: C_21  and  N_29
REMARK   13  A    between atoms: C_23  and  O_25
REMARK   14  A    between atoms: C_26  and  O_28
REMARK   15  A    between atoms: C_37  and  O_39
REMARK   16  A    between atoms: C_40  and  O_42
REMARK   17  A    between atoms: C_43  and  O_45
REMARK                            x       y       z     vdW  Elec       q    Type
REMARK                         _______ _______ _______ _____ _____    ______ ____
ROOT
ATOM      1  P   UNL     1       8.924  -1.719  23.060  0.00  0.00    +0.483 P 
ATOM      2  O   UNL     1       9.785  -1.308  21.859  0.00  0.00    -0.227 OA
ENDROOT
BRANCH   1   3
ATOM      3  O   UNL     1       9.739  -3.018  23.634  0.00  0.00    -0.302 OA
ATOM      4  H   UNL     1       9.930  -2.836  24.577  0.00  0.00    +0.222 HD
ENDBRANCH   1   3
BRANCH   1   5
ATOM      5  O   UNL     1       8.046  -2.740  21.974  0.00  0.00    -0.186 OA
BRANCH   5   6
ATOM      6  P   UNL     1       6.469  -3.045  22.615  0.00  0.00    +0.486 P 
ATOM      7  O   UNL     1       5.916  -3.393  21.229  0.00  0.00    -0.227 OA
BRANCH   6   8
ATOM      8  O   UNL     1       4.891  -3.349  23.257  0.00  0.00    -0.302 OA
ATOM      9  H   UNL     1       4.725  -4.285  23.021  0.00  0.00    +0.222 HD
ENDBRANCH   6   8
BRANCH   6  10
ATOM     10  O   UNL     1       7.020  -4.467  23.279  0.00  0.00    -0.254 OA
BRANCH  10  15
ATOM     11  C   UNL     1       4.634  -6.055  25.500  0.00  0.00    +0.178 C 
ATOM     12  C   UNL     1       5.493  -6.535  26.678  0.00  0.00    +0.177 C 
ATOM     13  C   UNL     1       6.673  -5.561  26.871  0.00  0.00    +0.179 C 
ATOM     14  C   UNL     1       7.435  -5.322  25.554  0.00  0.00    +0.202 C 
ATOM     15  C   UNL     1       6.400  -4.866  24.500  0.00  0.00    +0.293 C 
ATOM     16  O   UNL     1       5.426  -5.885  24.306  0.00  0.00    -0.340 OA
BRANCH  12  17
ATOM     17  O   UNL     1       4.686  -6.599  27.860  0.00  0.00    -0.386 OA
ATOM     18  H   UNL     1       4.724  -7.503  28.222  0.00  0.00    +0.210 HD
ENDBRANCH  12  17
BRANCH  13  19
ATOM     19  O   UNL     1       7.568  -6.017  27.890  0.00  0.00    -0.386 OA
ATOM     20  H   UNL     1       8.447  -6.056  27.462  0.00  0.00    +0.210 HD
ENDBRANCH  13  19
BRANCH  14  21
ATOM     21  O   UNL     1       8.425  -4.315  25.827  0.00  0.00    -0.384 OA
ATOM     22  H   UNL     1       9.294  -4.756  25.820  0.00  0.00    +0.210 HD
ENDBRANCH  14  21
BRANCH  11  23
ATOM     23  C   UNL     1       3.459  -6.986  25.210  0.00  0.00    +0.190 C 
BRANCH  23  24
ATOM     24  O   UNL     1       3.822  -7.837  24.110  0.00  0.00    -0.392 OA
ATOM     25  H   UNL     1       4.773  -8.013  24.200  0.00  0.00    +0.210 HD
ENDBRANCH  23  24
ENDBRANCH  11  23
ENDBRANCH  10  15
ENDBRANCH   6  10
ENDBRANCH   5   6
ENDBRANCH   1   5
BRANCH   1  26
ATOM     26  O   UNL     1       9.803  -0.700  24.146  0.00  0.00    -0.284 OA
BRANCH  26  27
ATOM     27  C   UNL     1       9.005   0.301  24.800  0.00  0.00    +0.206 C 
BRANCH  27  28
ATOM     28  C   UNL     1       9.395   1.748  24.491  0.00  0.00    +0.178 C 
ATOM     29  C   UNL     1      10.193   1.924  23.212  0.00  0.00    +0.178 C 
ATOM     30  C   UNL     1       9.184   2.414  22.185  0.00  0.00    +0.195 C 
ATOM     31  C   UNL     1       7.856   2.554  22.963  0.00  0.00    +0.255 C 
ATOM     32  O   UNL     1       8.224   2.578  24.353  0.00  0.00    -0.346 OA
BRANCH  31  33
ATOM     33  N   UNL     1       7.046   3.734  22.625  0.00  0.00    -0.271 N 
ATOM     34  C   UNL     1       5.665   3.633  22.766  0.00  0.00    +0.331 A 
ATOM     35  O   UNL     1       5.080   2.609  23.117  0.00  0.00    -0.246 OA
ATOM     36  N   UNL     1       4.950   4.769  22.503  0.00  0.00    -0.275 N 
ATOM     37  H   UNL     1       3.951   4.707  22.622  0.00  0.00    +0.173 HD
ATOM     38  C   UNL     1       5.474   6.025  22.429  0.00  0.00    +0.254 A 
ATOM     39  O   UNL     1       4.786   7.038  22.468  0.00  0.00    -0.268 OA
ATOM     40  C   UNL     1       6.930   6.104  22.362  0.00  0.00    +0.088 A 
ATOM     41  C   UNL     1       7.646   4.974  22.462  0.00  0.00    +0.098 A 
ENDBRANCH  31  33
BRANCH  30  42
ATOM     42  O   UNL     1       9.068   1.479  21.110  0.00  0.00    -0.385 OA
ATOM     43  H   UNL     1       8.134   1.171  21.137  0.00  0.00    +0.210 HD
ENDBRANCH  30  42
BRANCH  29  44
ATOM     44  O   UNL     1      11.196   2.936  23.428  0.00  0.00    -0.386 OA
ATOM     45  H   UNL     1      11.873   2.572  24.026  0.00  0.00    +0.210 HD
ENDBRANCH  29  44
ENDBRANCH  27  28
ENDBRANCH  26  27
ENDBRANCH   1  26
TORSDOF 17
ENDMDL
MODEL 8
REMARK VINA RESULT:      -7.0      3.359      8.927
REMARK  Name = 
REMARK  17 active torsions:
REMARK  status: ('A' for Active; 'I' for Inactive)
REMARK    1  A    between atoms: O_1  and  C_2
REMARK    2  A    between atoms: C_2  and  C_3
REMARK    3  A    between atoms: C_6  and  O_8
REMARK    4  A    between atoms: O_8  and  P_9
REMARK    5  A    between atoms: P_9  and  O_10
REMARK    6  A    between atoms: P_9  and  O_12
REMARK    7  A    between atoms: O_12  and  P_13
REMARK    8  A    between atoms: P_13  and  O_14
REMARK    9  A    between atoms: P_13  and  O_16
REMARK   10  A    between atoms: O_16  and  C_17
REMARK   11  A    between atoms: C_17  and  C_18
REMARK   12  A    between atoms: C_21  and  N_29
REMARK   13  A    between atoms: C_23  and  O_25
REMARK   14  A    between atoms: C_26  and  O_28
REMARK   15  A    between atoms: C_37  and  O_39
REMARK   16  A    between atoms: C_40  and  O_42
REMARK   17  A    between atoms: C_43  and  O_45
REMARK                            x       y       z     vdW  Elec       q    Type
REMARK                         _______ _______ _______ _____ _____    ______ ____
ROOT
ATOM      1  P   UNL     1       8.918  -2.186  24.383  0.00  0.00    +0.483 P 
ATOM      2  O   UNL     1       7.489  -2.045  23.842  0.00  0.00    -0.227 OA
ENDROOT
BRANCH   1   3
ATOM      3  O   UNL     1       9.310  -3.704  23.913  0.00  0.00    -0.302 OA
ATOM      4  H   UNL     1      10.256  -3.685  23.657  0.00  0.00    +0.222 HD
ENDBRANCH   1   3
BRANCH   1   5
ATOM      5  O   UNL     1       8.217  -2.807  25.837  0.00  0.00    -0.186 OA
BRANCH   5   6
ATOM      6  P   UNL     1       8.512  -4.509  25.939  0.00  0.00    +0.486 P 
ATOM      7  O   UNL     1       9.474  -4.322  27.118  0.00  0.00    -0.227 OA
BRANCH   6   8
ATOM      8  O   UNL     1       8.809  -6.210  26.041  0.00  0.00    -0.302 OA
ATOM      9  H   UNL     1       8.249  -6.496  26.792  0.00  0.00    +0.222 HD
ENDBRANCH   6   8
BRANCH   6  10
ATOM     10  O   UNL     1       6.998  -4.727  26.590  0.00  0.00    -0.254 OA
BRANCH  10  15
ATOM     11  C   UNL     1       5.316  -5.233  23.418  0.00  0.00    +0.178 C 
ATOM     12  C   UNL     1       4.569  -6.561  23.607  0.00  0.00    +0.177 C 
ATOM     13  C   UNL     1       4.159  -6.702  25.086  0.00  0.00    +0.179 C 
ATOM     14  C   UNL     1       5.354  -6.477  26.032  0.00  0.00    +0.202 C 
ATOM     15  C   UNL     1       5.974  -5.109  25.673  0.00  0.00    +0.293 C 
ATOM     16  O   UNL     1       6.432  -5.123  24.325  0.00  0.00    -0.340 OA
BRANCH  12  17
ATOM     17  O   UNL     1       3.418  -6.584  22.754  0.00  0.00    -0.386 OA
ATOM     18  H   UNL     1       2.696  -7.056  23.208  0.00  0.00    +0.210 HD
ENDBRANCH  12  17
BRANCH  13  19
ATOM     19  O   UNL     1       3.551  -7.972  25.343  0.00  0.00    -0.386 OA
ATOM     20  H   UNL     1       2.609  -7.776  25.520  0.00  0.00    +0.210 HD
ENDBRANCH  13  19
BRANCH  14  21
ATOM     21  O   UNL     1       4.832  -6.512  27.372  0.00  0.00    -0.384 OA
ATOM     22  H   UNL     1       4.326  -5.689  27.505  0.00  0.00    +0.210 HD
ENDBRANCH  14  21
BRANCH  11  23
ATOM     23  C   UNL     1       5.795  -5.026  21.984  0.00  0.00    +0.190 C 
BRANCH  23  24
ATOM     24  O   UNL     1       7.146  -4.537  22.029  0.00  0.00    -0.392 OA
ATOM     25  H   UNL     1       7.649  -5.055  21.379  0.00  0.00    +0.210 HD
ENDBRANCH  23  24
ENDBRANCH  11  23
ENDBRANCH  10  15
ENDBRANCH   6  10
ENDBRANCH   5   6
ENDBRANCH   1   5
BRANCH   1  26
ATOM     26  O   UNL     1       9.619  -1.566  22.928  0.00  0.00    -0.284 OA
BRANCH  26  27
ATOM     27  C   UNL     1      10.488  -0.438  23.121  0.00  0.00    +0.206 C 
BRANCH  27  28
ATOM     28  C   UNL     1      10.054   0.847  22.412  0.00  0.00    +0.178 C 
ATOM     29  C   UNL     1       8.601   0.861  21.973  0.00  0.00    +0.178 C 
ATOM     30  C   UNL     1       7.882   1.691  23.026  0.00  0.00    +0.195 C 
ATOM     31  C   UNL     1       8.993   2.167  23.988  0.00  0.00    +0.255 C 
ATOM     32  O   UNL     1      10.227   1.992  23.270  0.00  0.00    -0.346 OA
BRANCH  31  33
ATOM     33  N   UNL     1       8.866   3.552  24.466  0.00  0.00    -0.271 N 
ATOM     34  C   UNL     1       8.105   3.775  25.609  0.00  0.00    +0.331 A 
ATOM     35  O   UNL     1       7.500   2.894  26.220  0.00  0.00    -0.246 OA
ATOM     36  N   UNL     1       8.062   5.067  26.060  0.00  0.00    -0.275 N 
ATOM     37  H   UNL     1       7.527   5.230  26.899  0.00  0.00    +0.173 HD
ATOM     38  C   UNL     1       8.923   6.054  25.688  0.00  0.00    +0.254 A 
ATOM     39  O   UNL     1       9.036   7.108  26.303  0.00  0.00    -0.268 OA
ATOM     40  C   UNL     1       9.768   5.762  24.533  0.00  0.00    +0.088 A 
ATOM     41  C   UNL     1       9.707   4.541  23.978  0.00  0.00    +0.098 A 
ENDBRANCH  31  33
BRANCH  30  42
ATOM     42  O   UNL     1       6.900   0.903  23.702  0.00  0.00    -0.385 OA
ATOM     43  H   UNL     1       6.389   0.460  22.988  0.00  0.00    +0.210 HD
ENDBRANCH  30  42
BRANCH  29  44
ATOM     44  O   UNL     1       8.509   1.516  20.693  0.00  0.00    -0.386 OA
ATOM     45  H   UNL     1       8.933   2.390  20.767  0.00  0.00    +0.210 HD
ENDBRANCH  29  44
ENDBRANCH  27  28
ENDBRANCH  26  27
ENDBRANCH   1  26
TORSDOF 17
ENDMDL
MODEL 9
REMARK VINA RESULT:      -7.0      1.649      2.291
REMARK  Name = 
REMARK  17 active torsions:
REMARK  status: ('A' for Active; 'I' for Inactive)
REMARK    1  A    between atoms: O_1  and  C_2
REMARK    2  A    between atoms: C_2  and  C_3
REMARK    3  A    between atoms: C_6  and  O_8
REMARK    4  A    between atoms: O_8  and  P_9
REMARK    5  A    between atoms: P_9  and  O_10
REMARK    6  A    between atoms: P_9  and  O_12
REMARK    7  A    between atoms: O_12  and  P_13
REMARK    8  A    between atoms: P_13  and  O_14
REMARK    9  A    between atoms: P_13  and  O_16
REMARK   10  A    between atoms: O_16  and  C_17
REMARK   11  A    between atoms: C_17  and  C_18
REMARK   12  A    between atoms: C_21  and  N_29
REMARK   13  A    between atoms: C_23  and  O_25
REMARK   14  A    between atoms: C_26  and  O_28
REMARK   15  A    between atoms: C_37  and  O_39
REMARK   16  A    between atoms: C_40  and  O_42
REMARK   17  A    between atoms: C_43  and  O_45
REMARK                            x       y       z     vdW  Elec       q    Type
REMARK                         _______ _______ _______ _____ _____    ______ ____
ROOT
ATOM      1  P   UNL     1       9.334  -1.558  22.925  0.00  0.00    +0.483 P 
ATOM      2  O   UNL     1       9.896  -2.851  23.530  0.00  0.00    -0.227 OA
ENDROOT
BRANCH   1   3
ATOM      3  O   UNL     1      10.115  -1.489  21.488  0.00  0.00    -0.302 OA
ATOM      4  H   UNL     1       9.590  -0.897  20.910  0.00  0.00    +0.222 HD
ENDBRANCH   1   3
BRANCH   1   5
ATOM      5  O   UNL     1      10.647  -0.729  23.687  0.00  0.00    -0.186 OA
BRANCH   5   6
ATOM      6  P   UNL     1      10.159   0.882  24.086  0.00  0.00    +0.486 P 
ATOM      7  O   UNL     1      10.052   1.270  22.607  0.00  0.00    -0.227 OA
BRANCH   6   8
ATOM      8  O   UNL     1       9.673   2.494  24.484  0.00  0.00    -0.302 OA
ATOM      9  H   UNL     1       8.935   2.361  25.113  0.00  0.00    +0.222 HD
ENDBRANCH   6   8
BRANCH   6  10
ATOM     10  O   UNL     1       8.664   0.312  24.537  0.00  0.00    -0.254 OA
BRANCH  10  15
ATOM     11  C   UNL     1       5.963   2.720  24.299  0.00  0.00    +0.178 C 
ATOM     12  C   UNL     1       5.204   2.550  25.622  0.00  0.00    +0.177 C 
ATOM     13  C   UNL     1       6.199   2.144  26.727  0.00  0.00    +0.179 C 
ATOM     14  C   UNL     1       7.059   0.939  26.301  0.00  0.00    +0.202 C 
ATOM     15  C   UNL     1       7.720   1.298  24.952  0.00  0.00    +0.293 C 
ATOM     16  O   UNL     1       6.717   1.535  23.970  0.00  0.00    -0.340 OA
BRANCH  12  17
ATOM     17  O   UNL     1       4.548   3.781  25.954  0.00  0.00    -0.386 OA
ATOM     18  H   UNL     1       4.589   3.911  26.919  0.00  0.00    +0.210 HD
ENDBRANCH  12  17
BRANCH  13  19
ATOM     19  O   UNL     1       5.529   1.868  27.961  0.00  0.00    -0.386 OA
ATOM     20  H   UNL     1       5.547   2.711  28.458  0.00  0.00    +0.210 HD
ENDBRANCH  13  19
BRANCH  14  21
ATOM     21  O   UNL     1       8.022   0.729  27.349  0.00  0.00    -0.384 OA
ATOM     22  H   UNL     1       8.600  -0.004  27.067  0.00  0.00    +0.210 HD
ENDBRANCH  14  21
BRANCH  11  23
ATOM     23  C   UNL     1       5.046   3.087  23.136  0.00  0.00    +0.190 C 
BRANCH  23  24
ATOM     24  O   UNL     1       3.741   2.549  23.408  0.00  0.00    -0.392 OA
ATOM     25  H   UNL     1       3.249   3.243  23.877  0.00  0.00    +0.210 HD
ENDBRANCH  23  24
ENDBRANCH  11  23
ENDBRANCH  10  15
ENDBRANCH   6  10
ENDBRANCH   5   6
ENDBRANCH   1   5
BRANCH   1  26
ATOM     26  O   UNL     1       8.022  -2.388  22.161  0.00  0.00    -0.284 OA
BRANCH  26  27
ATOM     27  C   UNL     1       6.756  -2.236  22.823  0.00  0.00    +0.206 C 
BRANCH  27  28
ATOM     28  C   UNL     1       5.917  -3.511  22.923  0.00  0.00    +0.178 C 
ATOM     29  C   UNL     1       6.550  -4.731  22.278  0.00  0.00    +0.178 C 
ATOM     30  C   UNL     1       7.138  -5.524  23.435  0.00  0.00    +0.195 C 
ATOM     31  C   UNL     1       6.747  -4.733  24.703  0.00  0.00    +0.255 C 
ATOM     32  O   UNL     1       5.676  -3.863  24.300  0.00  0.00    -0.346 OA
BRANCH  31  33
ATOM     33  N   UNL     1       6.341  -5.549  25.858  0.00  0.00    -0.271 N 
ATOM     34  C   UNL     1       7.103  -5.452  27.018  0.00  0.00    +0.331 A 
ATOM     35  O   UNL     1       8.114  -4.758  27.125  0.00  0.00    -0.246 OA
ATOM     36  N   UNL     1       6.659  -6.176  28.091  0.00  0.00    -0.275 N 
ATOM     37  H   UNL     1       7.197  -6.094  28.940  0.00  0.00    +0.173 HD
ATOM     38  C   UNL     1       5.411  -6.709  28.213  0.00  0.00    +0.254 A 
ATOM     39  O   UNL     1       4.956  -7.106  29.279  0.00  0.00    -0.268 OA
ATOM     40  C   UNL     1       4.603  -6.725  26.997  0.00  0.00    +0.088 A 
ATOM     41  C   UNL     1       5.093  -6.153  25.886  0.00  0.00    +0.098 A 
ENDBRANCH  31  33
BRANCH  30  42
ATOM     42  O   UNL     1       8.557  -5.633  23.299  0.00  0.00    -0.385 OA
ATOM     43  H   UNL     1       8.925  -4.913  23.858  0.00  0.00    +0.210 HD
ENDBRANCH  30  42
BRANCH  29  44
ATOM     44  O   UNL     1       5.517  -5.504  21.636  0.00  0.00    -0.386 OA
ATOM     45  H   UNL     1       5.783  -6.441  21.652  0.00  0.00    +0.210 HD
ENDBRANCH  29  44
ENDBRANCH  27  28
ENDBRANCH  26  27
ENDBRANCH   1  26
TORSDOF 17
ENDMDL
