MODEL 1
REMARK VINA RESULT:      -6.4      0.000      0.000
REMARK  Name = 
REMARK  7 active torsions:
REMARK  status: ('A' for Active; 'I' for Inactive)
REMARK    1  A    between atoms: C_1  and  N_2
REMARK    2  A    between atoms: C_3  and  C_4
REMARK    3  A    between atoms: C_4  and  C_5
REMARK    4  A    between atoms: C_5  and  O_6
REMARK    5  A    between atoms: C_9  and  C_10
REMARK    6  A    between atoms: C_11  and  C_12
REMARK    7  A    between atoms: C_12  and  C_14
REMARK                            x       y       z     vdW  Elec       q    Type
REMARK                         _______ _______ _______ _____ _____    ______ ____
ROOT
ATOM      1  C   UNL     1       7.140  -3.622  26.739  0.00  0.00    +0.149 C 
ATOM      2  N   UNL     1       6.900  -4.352  25.509  0.00  0.00    -0.344 N 
ATOM      3  C   UNL     1       7.750  -4.410  24.406  0.00  0.00    +0.093 A 
ATOM      4  C   UNL     1       7.058  -5.129  23.422  0.00  0.00    -0.022 A 
ATOM      5  C   UNL     1       7.535  -5.456  22.044  0.00  0.00    +0.046 C 
ATOM      6  C   UNL     1       5.814  -5.529  23.960  0.00  0.00    +0.027 A 
ATOM      7  C   UNL     1       5.732  -5.057  25.251  0.00  0.00    +0.030 A 
ENDROOT
BRANCH   3   8
ATOM      8  C   UNL     1       9.064  -3.789  24.184  0.00  0.00    +0.210 C 
ATOM      9  O   UNL     1      10.098  -4.355  24.547  0.00  0.00    -0.285 OA
BRANCH   8  10
ATOM     10  C   UNL     1       9.273  -2.446  23.564  0.00  0.00    +0.024 A 
ATOM     11  C   UNL     1       8.876  -2.126  22.260  0.00  0.00    +0.013 A 
ATOM     12  C   UNL     1       9.096  -0.837  21.753  0.00  0.00    +0.021 A 
ATOM     13  C   UNL     1       9.673   0.145  22.554  0.00  0.00    +0.041 A 
ATOM     14 CL   UNL     1       9.950   1.721  21.922  0.00  0.00    -0.084 Cl
ATOM     15  C   UNL     1      10.020  -0.138  23.873  0.00  0.00    +0.021 A 
ATOM     16  C   UNL     1       9.820  -1.428  24.372  0.00  0.00    +0.013 A 
ENDBRANCH   8  10
ENDBRANCH   3   8
BRANCH   7  17
ATOM     17  C   UNL     1       4.624  -5.302  26.246  0.00  0.00    +0.173 C 
BRANCH  17  18
ATOM     18  C   UNL     1       4.537  -6.702  26.818  0.00  0.00    +0.311 C 
ATOM     19  O   UNL     1       5.340  -7.110  27.653  0.00  0.00    -0.251 OA
BRANCH  18  20
ATOM     20  O   UNL     1       3.555  -7.499  26.357  0.00  0.00    -0.480 OA
ATOM     21  H   UNL     1       3.003  -7.089  25.663  0.00  0.00    +0.295 HD
ENDBRANCH  18  20
ENDBRANCH  17  18
ENDBRANCH   7  17
TORSDOF 5
ENDMDL
MODEL 2
REMARK VINA RESULT:      -6.3      3.585      6.937
REMARK  Name = 
REMARK  7 active torsions:
REMARK  status: ('A' for Active; 'I' for Inactive)
REMARK    1  A    between atoms: C_1  and  N_2
REMARK    2  A    between atoms: C_3  and  C_4
REMARK    3  A    between atoms: C_4  and  C_5
REMARK    4  A    between atoms: C_5  and  O_6
REMARK    5  A    between atoms: C_9  and  C_10
REMARK    6  A    between atoms: C_11  and  C_12
REMARK    7  A    between atoms: C_12  and  C_14
REMARK                            x       y       z     vdW  Elec       q    Type
REMARK                         _______ _______ _______ _____ _____    ______ ____
ROOT
ATOM      1  C   UNL     1      10.485  -1.505  22.448  0.00  0.00    +0.149 C 
ATOM      2  N   UNL     1       9.877  -1.208  23.731  0.00  0.00    -0.344 N 
ATOM      3  C   UNL     1       9.203  -2.109  24.553  0.00  0.00    +0.093 A 
ATOM      4  C   UNL     1       8.694  -1.356  25.619  0.00  0.00    -0.022 A 
ATOM      5  C   UNL     1       7.882  -1.859  26.767  0.00  0.00    +0.046 C 
ATOM      6  C   UNL     1       9.104  -0.014  25.447  0.00  0.00    +0.027 A 
ATOM      7  C   UNL     1       9.843   0.064  24.287  0.00  0.00    +0.030 A 
ENDROOT
BRANCH   3   8
ATOM      8  C   UNL     1       8.933  -3.544  24.370  0.00  0.00    +0.210 C 
ATOM      9  O   UNL     1       9.828  -4.378  24.521  0.00  0.00    -0.285 OA
BRANCH   8  10
ATOM     10  C   UNL     1       7.615  -4.111  23.956  0.00  0.00    +0.024 A 
ATOM     11  C   UNL     1       7.067  -3.943  22.678  0.00  0.00    +0.013 A 
ATOM     12  C   UNL     1       5.827  -4.517  22.362  0.00  0.00    +0.021 A 
ATOM     13  C   UNL     1       5.152  -5.292  23.300  0.00  0.00    +0.041 A 
ATOM     14 CL   UNL     1       3.626  -5.986  22.908  0.00  0.00    -0.084 Cl
ATOM     15  C   UNL     1       5.708  -5.521  24.555  0.00  0.00    +0.021 A 
ATOM     16  C   UNL     1       6.934  -4.931  24.879  0.00  0.00    +0.013 A 
ENDBRANCH   8  10
ENDBRANCH   3   8
BRANCH   7  17
ATOM     17  C   UNL     1      10.553   1.276  23.736  0.00  0.00    +0.173 C 
BRANCH  17  18
ATOM     18  C   UNL     1       9.752   2.150  22.793  0.00  0.00    +0.311 C 
ATOM     19  O   UNL     1       8.737   2.736  23.159  0.00  0.00    -0.251 OA
BRANCH  18  20
ATOM     20  O   UNL     1      10.181   2.242  21.520  0.00  0.00    -0.480 OA
ATOM     21  H   UNL     1       9.862   1.524  20.940  0.00  0.00    +0.295 HD
ENDBRANCH  18  20
ENDBRANCH  17  18
ENDBRANCH   7  17
TORSDOF 5
ENDMDL
MODEL 3
REMARK VINA RESULT:      -6.2      1.637      2.313
REMARK  Name = 
REMARK  7 active torsions:
REMARK  status: ('A' for Active; 'I' for Inactive)
REMARK    1  A    between atoms: C_1  and  N_2
REMARK    2  A    between atoms: C_3  and  C_4
REMARK    3  A    between atoms: C_4  and  C_5
REMARK    4  A    between atoms: C_5  and  O_6
REMARK    5  A    between atoms: C_9  and  C_10
REMARK    6  A    between atoms: C_11  and  C_12
REMARK    7  A    between atoms: C_12  and  C_14
REMARK                            x       y       z     vdW  Elec       q    Type
REMARK                         _______ _______ _______ _____ _____    ______ ____
ROOT
ATOM      1  C   UNL     1       5.019  -3.813  25.080  0.00  0.00    +0.149 C 
ATOM      2  N   UNL     1       6.332  -4.248  25.517  0.00  0.00    -0.344 N 
ATOM      3  C   UNL     1       7.524  -4.111  24.808  0.00  0.00    +0.093 A 
ATOM      4  C   UNL     1       8.502  -4.773  25.562  0.00  0.00    -0.022 A 
ATOM      5  C   UNL     1       9.949  -4.924  25.224  0.00  0.00    +0.046 C 
ATOM      6  C   UNL     1       7.893  -5.267  26.738  0.00  0.00    +0.027 A 
ATOM      7  C   UNL     1       6.559  -4.927  26.706  0.00  0.00    +0.030 A 
ENDROOT
BRANCH   3   8
ATOM      8  C   UNL     1       7.783  -3.513  23.489  0.00  0.00    +0.210 C 
ATOM      9  O   UNL     1       7.568  -4.149  22.455  0.00  0.00    -0.285 OA
BRANCH   8  10
ATOM     10  C   UNL     1       8.351  -2.148  23.275  0.00  0.00    +0.024 A 
ATOM     11  C   UNL     1       8.354  -1.149  24.256  0.00  0.00    +0.013 A 
ATOM     12  C   UNL     1       8.918   0.106  23.982  0.00  0.00    +0.021 A 
ATOM     13  C   UNL     1       9.514   0.355  22.749  0.00  0.00    +0.041 A 
ATOM     14 CL   UNL     1      10.195   1.899  22.416  0.00  0.00    -0.084 Cl
ATOM     15  C   UNL     1       9.574  -0.645  21.782  0.00  0.00    +0.021 A 
ATOM     16  C   UNL     1       8.994  -1.890  22.047  0.00  0.00    +0.013 A 
ENDBRANCH   8  10
ENDBRANCH   3   8
BRANCH   7  17
ATOM     17  C   UNL     1       5.527  -5.172  27.780  0.00  0.00    +0.173 C 
BRANCH  17  18
ATOM     18  C   UNL     1       5.855  -6.257  28.787  0.00  0.00    +0.311 C 
ATOM     19  O   UNL     1       6.441  -6.009  29.836  0.00  0.00    -0.251 OA
BRANCH  18  20
ATOM     20  O   UNL     1       5.498  -7.517  28.476  0.00  0.00    -0.480 OA
ATOM     21  H   UNL     1       4.580  -7.601  28.151  0.00  0.00    +0.295 HD
ENDBRANCH  18  20
ENDBRANCH  17  18
ENDBRANCH   7  17
TORSDOF 5
ENDMDL
MODEL 4
REMARK VINA RESULT:      -6.2      2.914      4.512
REMARK  Name = 
REMARK  7 active torsions:
REMARK  status: ('A' for Active; 'I' for Inactive)
REMARK    1  A    between atoms: C_1  and  N_2
REMARK    2  A    between atoms: C_3  and  C_4
REMARK    3  A    between atoms: C_4  and  C_5
REMARK    4  A    between atoms: C_5  and  O_6
REMARK    5  A    between atoms: C_9  and  C_10
REMARK    6  A    between atoms: C_11  and  C_12
REMARK    7  A    between atoms: C_12  and  C_14
REMARK                            x       y       z     vdW  Elec       q    Type
REMARK                         _______ _______ _______ _____ _____    ______ ____
ROOT
ATOM      1  C   UNL     1       8.676  -1.751  26.417  0.00  0.00    +0.149 C 
ATOM      2  N   UNL     1       8.788  -1.809  24.972  0.00  0.00    -0.344 N 
ATOM      3  C   UNL     1       9.388  -0.855  24.152  0.00  0.00    +0.093 A 
ATOM      4  C   UNL     1       9.158  -1.274  22.835  0.00  0.00    -0.022 A 
ATOM      5  C   UNL     1       9.591  -0.584  21.583  0.00  0.00    +0.046 C 
ATOM      6  C   UNL     1       8.454  -2.499  22.880  0.00  0.00    +0.027 A 
ATOM      7  C   UNL     1       8.242  -2.826  24.200  0.00  0.00    +0.030 A 
ENDROOT
BRANCH   3   8
ATOM      8  C   UNL     1      10.051   0.413  24.497  0.00  0.00    +0.210 C 
ATOM      9  O   UNL     1      11.237   0.432  24.835  0.00  0.00    -0.285 OA
BRANCH   8  10
ATOM     10  C   UNL     1       9.374   1.744  24.515  0.00  0.00    +0.024 A 
ATOM     11  C   UNL     1       8.210   2.010  25.247  0.00  0.00    +0.013 A 
ATOM     12  C   UNL     1       7.640   3.291  25.222  0.00  0.00    +0.021 A 
ATOM     13  C   UNL     1       8.248   4.318  24.506  0.00  0.00    +0.041 A 
ATOM     14 CL   UNL     1       7.538   5.885  24.472  0.00  0.00    -0.084 Cl
ATOM     15  C   UNL     1       9.438   4.088  23.821  0.00  0.00    +0.021 A 
ATOM     16  C   UNL     1       9.996   2.806  23.828  0.00  0.00    +0.013 A 
ENDBRANCH   8  10
ENDBRANCH   3   8
BRANCH   7  17
ATOM     17  C   UNL     1       7.603  -4.082  24.740  0.00  0.00    +0.173 C 
BRANCH  17  18
ATOM     18  C   UNL     1       8.551  -5.176  25.188  0.00  0.00    +0.311 C 
ATOM     19  O   UNL     1       9.447  -5.594  24.460  0.00  0.00    -0.251 OA
BRANCH  18  20
ATOM     20  O   UNL     1       8.360  -5.695  26.416  0.00  0.00    -0.480 OA
ATOM     21  H   UNL     1       7.421  -5.835  26.646  0.00  0.00    +0.295 HD
ENDBRANCH  18  20
ENDBRANCH  17  18
ENDBRANCH   7  17
TORSDOF 5
ENDMDL
MODEL 5
REMARK VINA RESULT:      -6.0      1.342      1.528
REMARK  Name = 
REMARK  7 active torsions:
REMARK  status: ('A' for Active; 'I' for Inactive)
REMARK    1  A    between atoms: C_1  and  N_2
REMARK    2  A    between atoms: C_3  and  C_4
REMARK    3  A    between atoms: C_4  and  C_5
REMARK    4  A    between atoms: C_5  and  O_6
REMARK    5  A    between atoms: C_9  and  C_10
REMARK    6  A    between atoms: C_11  and  C_12
REMARK    7  A    between atoms: C_12  and  C_14
REMARK                            x       y       z     vdW  Elec       q    Type
REMARK                         _______ _______ _______ _____ _____    ______ ____
ROOT
ATOM      1  C   UNL     1       6.251  -4.319  26.369  0.00  0.00    +0.149 C 
ATOM      2  N   UNL     1       6.191  -4.947  25.062  0.00  0.00    -0.344 N 
ATOM      3  C   UNL     1       7.161  -4.868  24.064  0.00  0.00    +0.093 A 
ATOM      4  C   UNL     1       6.624  -5.527  22.950  0.00  0.00    -0.022 A 
ATOM      5  C   UNL     1       7.271  -5.707  21.615  0.00  0.00    +0.046 C 
ATOM      6  C   UNL     1       5.352  -6.029  23.305  0.00  0.00    +0.027 A 
ATOM      7  C   UNL     1       5.100  -5.678  24.612  0.00  0.00    +0.030 A 
ENDROOT
BRANCH   3   8
ATOM      8  C   UNL     1       8.456  -4.171  24.050  0.00  0.00    +0.210 C 
ATOM      9  O   UNL     1       9.455  -4.685  24.558  0.00  0.00    -0.285 OA
BRANCH   8  10
ATOM     10  C   UNL     1       8.677  -2.807  23.483  0.00  0.00    +0.024 A 
ATOM     11  C   UNL     1       7.637  -1.938  23.129  0.00  0.00    +0.013 A 
ATOM     12  C   UNL     1       7.925  -0.666  22.612  0.00  0.00    +0.021 A 
ATOM     13  C   UNL     1       9.245  -0.242  22.486  0.00  0.00    +0.041 A 
ATOM     14 CL   UNL     1       9.592   1.315  21.842  0.00  0.00    -0.084 Cl
ATOM     15  C   UNL     1      10.291  -1.068  22.888  0.00  0.00    +0.021 A 
ATOM     16  C   UNL     1      10.005  -2.344  23.383  0.00  0.00    +0.013 A 
ENDBRANCH   8  10
ENDBRANCH   3   8
BRANCH   7  17
ATOM     17  C   UNL     1       3.903  -6.061  25.447  0.00  0.00    +0.173 C 
BRANCH  17  18
ATOM     18  C   UNL     1       2.960  -7.079  24.837  0.00  0.00    +0.311 C 
ATOM     19  O   UNL     1       3.203  -8.282  24.864  0.00  0.00    -0.251 OA
BRANCH  18  20
ATOM     20  O   UNL     1       1.849  -6.612  24.238  0.00  0.00    -0.480 OA
ATOM     21  H   UNL     1       1.341  -7.293  23.756  0.00  0.00    +0.295 HD
ENDBRANCH  18  20
ENDBRANCH  17  18
ENDBRANCH   7  17
TORSDOF 5
ENDMDL
MODEL 6
REMARK VINA RESULT:      -5.9      4.828      7.618
REMARK  Name = 
REMARK  7 active torsions:
REMARK  status: ('A' for Active; 'I' for Inactive)
REMARK    1  A    between atoms: C_1  and  N_2
REMARK    2  A    between atoms: C_3  and  C_4
REMARK    3  A    between atoms: C_4  and  C_5
REMARK    4  A    between atoms: C_5  and  O_6
REMARK    5  A    between atoms: C_9  and  C_10
REMARK    6  A    between atoms: C_11  and  C_12
REMARK    7  A    between atoms: C_12  and  C_14
REMARK                            x       y       z     vdW  Elec       q    Type
REMARK                         _______ _______ _______ _____ _____    ______ ____
ROOT
ATOM      1  C   UNL     1       6.015   1.733  24.349  0.00  0.00    +0.149 C 
ATOM      2  N   UNL     1       6.988   1.481  23.302  0.00  0.00    -0.344 N 
ATOM      3  C   UNL     1       7.758   0.330  23.151  0.00  0.00    +0.093 A 
ATOM      4  C   UNL     1       8.627   0.582  22.081  0.00  0.00    -0.022 A 
ATOM      5  C   UNL     1       9.665  -0.340  21.531  0.00  0.00    +0.046 C 
ATOM      6  C   UNL     1       8.341   1.870  21.575  0.00  0.00    +0.027 A 
ATOM      7  C   UNL     1       7.321   2.411  22.326  0.00  0.00    +0.030 A 
ENDROOT
BRANCH   3   8
ATOM      8  C   UNL     1       7.800  -0.898  23.961  0.00  0.00    +0.210 C 
ATOM      9  O   UNL     1       8.232  -0.877  25.116  0.00  0.00    -0.285 OA
BRANCH   8  10
ATOM     10  C   UNL     1       7.386  -2.248  23.474  0.00  0.00    +0.024 A 
ATOM     11  C   UNL     1       6.362  -2.453  22.541  0.00  0.00    +0.013 A 
ATOM     12  C   UNL     1       6.039  -3.753  22.124  0.00  0.00    +0.021 A 
ATOM     13  C   UNL     1       6.759  -4.844  22.602  0.00  0.00    +0.041 A 
ATOM     14 CL   UNL     1       6.350  -6.436  22.094  0.00  0.00    -0.084 Cl
ATOM     15  C   UNL     1       7.819  -4.655  23.484  0.00  0.00    +0.021 A 
ATOM     16  C   UNL     1       8.129  -3.362  23.917  0.00  0.00    +0.013 A 
ENDBRANCH   8  10
ENDBRANCH   3   8
BRANCH   7  17
ATOM     17  C   UNL     1       6.628   3.733  22.108  0.00  0.00    +0.173 C 
BRANCH  17  18
ATOM     18  C   UNL     1       7.450   4.974  22.392  0.00  0.00    +0.311 C 
ATOM     19  O   UNL     1       8.087   5.102  23.434  0.00  0.00    -0.251 OA
BRANCH  18  20
ATOM     20  O   UNL     1       7.437   5.950  21.465  0.00  0.00    -0.480 OA
ATOM     21  H   UNL     1       7.865   6.779  21.755  0.00  0.00    +0.295 HD
ENDBRANCH  18  20
ENDBRANCH  17  18
ENDBRANCH   7  17
TORSDOF 5
ENDMDL
MODEL 7
REMARK VINA RESULT:      -5.9      1.555      2.033
REMARK  Name = 
REMARK  7 active torsions:
REMARK  status: ('A' for Active; 'I' for Inactive)
REMARK    1  A    between atoms: C_1  and  N_2
REMARK    2  A    between atoms: C_3  and  C_4
REMARK    3  A    between atoms: C_4  and  C_5
REMARK    4  A    between atoms: C_5  and  O_6
REMARK    5  A    between atoms: C_9  and  C_10
REMARK    6  A    between atoms: C_11  and  C_12
REMARK    7  A    between atoms: C_12  and  C_14
REMARK                            x       y       z     vdW  Elec       q    Type
REMARK                         _______ _______ _______ _____ _____    ______ ____
ROOT
ATOM      1  C   UNL     1       6.970  -2.917  26.683  0.00  0.00    +0.149 C 
ATOM      2  N   UNL     1       6.740  -3.844  25.591  0.00  0.00    -0.344 N 
ATOM      3  C   UNL     1       7.623  -4.129  24.551  0.00  0.00    +0.093 A 
ATOM      4  C   UNL     1       6.934  -4.983  23.680  0.00  0.00    -0.022 A 
ATOM      5  C   UNL     1       7.443  -5.566  22.403  0.00  0.00    +0.046 C 
ATOM      6  C   UNL     1       5.655  -5.233  24.228  0.00  0.00    +0.027 A 
ATOM      7  C   UNL     1       5.550  -4.537  25.412  0.00  0.00    +0.030 A 
ENDROOT
BRANCH   3   8
ATOM      8  C   UNL     1       8.972  -3.608  24.280  0.00  0.00    +0.210 C 
ATOM      9  O   UNL     1       9.971  -4.287  24.526  0.00  0.00    -0.285 OA
BRANCH   8  10
ATOM     10  C   UNL     1       9.260  -2.244  23.743  0.00  0.00    +0.024 A 
ATOM     11  C   UNL     1       9.782  -1.202  24.520  0.00  0.00    +0.013 A 
ATOM     12  C   UNL     1      10.037   0.049  23.940  0.00  0.00    +0.021 A 
ATOM     13  C   UNL     1       9.813   0.253  22.581  0.00  0.00    +0.041 A 
ATOM     14 CL   UNL     1      10.118   1.794  21.878  0.00  0.00    -0.084 Cl
ATOM     15  C   UNL     1       9.351  -0.787  21.780  0.00  0.00    +0.021 A 
ATOM     16  C   UNL     1       9.076  -2.029  22.362  0.00  0.00    +0.013 A 
ENDBRANCH   8  10
ENDBRANCH   3   8
BRANCH   7  17
ATOM     17  C   UNL     1       4.399  -4.560  26.387  0.00  0.00    +0.173 C 
BRANCH  17  18
ATOM     18  C   UNL     1       3.275  -3.580  26.117  0.00  0.00    +0.311 C 
ATOM     19  O   UNL     1       3.440  -2.582  25.422  0.00  0.00    -0.251 OA
BRANCH  18  20
ATOM     20  O   UNL     1       2.083  -3.833  26.691  0.00  0.00    -0.480 OA
ATOM     21  H   UNL     1       1.328  -3.407  26.242  0.00  0.00    +0.295 HD
ENDBRANCH  18  20
ENDBRANCH  17  18
ENDBRANCH   7  17
TORSDOF 5
ENDMDL
MODEL 8
REMARK VINA RESULT:      -5.8      4.036      7.381
REMARK  Name = 
REMARK  7 active torsions:
REMARK  status: ('A' for Active; 'I' for Inactive)
REMARK    1  A    between atoms: C_1  and  N_2
REMARK    2  A    between atoms: C_3  and  C_4
REMARK    3  A    between atoms: C_4  and  C_5
REMARK    4  A    between atoms: C_5  and  O_6
REMARK    5  A    between atoms: C_9  and  C_10
REMARK    6  A    between atoms: C_11  and  C_12
REMARK    7  A    between atoms: C_12  and  C_14
REMARK                            x       y       z     vdW  Elec       q    Type
REMARK                         _______ _______ _______ _____ _____    ______ ____
ROOT
ATOM      1  C   UNL     1      10.373  -1.547  22.676  0.00  0.00    +0.149 C 
ATOM      2  N   UNL     1       9.281  -0.936  23.409  0.00  0.00    -0.344 N 
ATOM      3  C   UNL     1       8.025  -1.496  23.637  0.00  0.00    +0.093 A 
ATOM      4  C   UNL     1       7.271  -0.507  24.282  0.00  0.00    -0.022 A 
ATOM      5  C   UNL     1       5.849  -0.610  24.730  0.00  0.00    +0.046 C 
ATOM      6  C   UNL     1       8.096   0.625  24.471  0.00  0.00    +0.027 A 
ATOM      7  C   UNL     1       9.336   0.346  23.941  0.00  0.00    +0.030 A 
ENDROOT
BRANCH   3   8
ATOM      8  C   UNL     1       7.477  -2.798  23.228  0.00  0.00    +0.210 C 
ATOM      9  O   UNL     1       7.406  -3.106  22.036  0.00  0.00    -0.285 OA
BRANCH   8  10
ATOM     10  C   UNL     1       6.931  -3.821  24.170  0.00  0.00    +0.024 A 
ATOM     11  C   UNL     1       7.611  -4.262  25.312  0.00  0.00    +0.013 A 
ATOM     12  C   UNL     1       7.026  -5.218  26.155  0.00  0.00    +0.021 A 
ATOM     13  C   UNL     1       5.750  -5.705  25.887  0.00  0.00    +0.041 A 
ATOM     14 CL   UNL     1       5.043  -6.886  26.919  0.00  0.00    -0.084 Cl
ATOM     15  C   UNL     1       5.034  -5.235  24.789  0.00  0.00    +0.021 A 
ATOM     16  C   UNL     1       5.625  -4.297  23.936  0.00  0.00    +0.013 A 
ENDBRANCH   8  10
ENDBRANCH   3   8
BRANCH   7  17
ATOM     17  C   UNL     1      10.565   1.221  23.980  0.00  0.00    +0.173 C 
BRANCH  17  18
ATOM     18  C   UNL     1      10.590   2.381  23.004  0.00  0.00    +0.311 C 
ATOM     19  O   UNL     1      10.961   3.501  23.341  0.00  0.00    -0.251 OA
BRANCH  18  20
ATOM     20  O   UNL     1      10.165   2.142  21.750  0.00  0.00    -0.480 OA
ATOM     21  H   UNL     1      10.084   1.194  21.531  0.00  0.00    +0.295 HD
ENDBRANCH  18  20
ENDBRANCH  17  18
ENDBRANCH   7  17
TORSDOF 5
ENDMDL
MODEL 9
REMARK VINA RESULT:      -5.8      1.782      2.469
REMARK  Name = 
REMARK  7 active torsions:
REMARK  status: ('A' for Active; 'I' for Inactive)
REMARK    1  A    between atoms: C_1  and  N_2
REMARK    2  A    between atoms: C_3  and  C_4
REMARK    3  A    between atoms: C_4  and  C_5
REMARK    4  A    between atoms: C_5  and  O_6
REMARK    5  A    between atoms: C_9  and  C_10
REMARK    6  A    between atoms: C_11  and  C_12
REMARK    7  A    between atoms: C_12  and  C_14
REMARK                            x       y       z     vdW  Elec       q    Type
REMARK                         _______ _______ _______ _____ _____    ______ ____
ROOT
ATOM      1  C   UNL     1       8.591  -2.323  26.725  0.00  0.00    +0.149 C 
ATOM      2  N   UNL     1       7.978  -2.990  25.592  0.00  0.00    -0.344 N 
ATOM      3  C   UNL     1       8.345  -2.851  24.255  0.00  0.00    +0.093 A 
ATOM      4  C   UNL     1       7.409  -3.587  23.517  0.00  0.00    -0.022 A 
ATOM      5  C   UNL     1       7.359  -3.745  22.032  0.00  0.00    +0.046 C 
ATOM      6  C   UNL     1       6.512  -4.195  24.424  0.00  0.00    +0.027 A 
ATOM      7  C   UNL     1       6.878  -3.831  25.700  0.00  0.00    +0.030 A 
ENDROOT
BRANCH   3   8
ATOM      8  C   UNL     1       9.406  -2.037  23.640  0.00  0.00    +0.210 C 
ATOM      9  O   UNL     1      10.358  -2.572  23.067  0.00  0.00    -0.285 OA
BRANCH   8  10
ATOM     10  C   UNL     1       9.462  -0.546  23.684  0.00  0.00    +0.024 A 
ATOM     11  C   UNL     1      10.579   0.175  24.123  0.00  0.00    +0.013 A 
ATOM     12  C   UNL     1      10.559   1.577  24.123  0.00  0.00    +0.021 A 
ATOM     13  C   UNL     1       9.445   2.264  23.650  0.00  0.00    +0.041 A 
ATOM     14 CL   UNL     1       9.422   3.984  23.662  0.00  0.00    -0.084 Cl
ATOM     15  C   UNL     1       8.347   1.566  23.153  0.00  0.00    +0.021 A 
ATOM     16  C   UNL     1       8.358   0.168  23.172  0.00  0.00    +0.013 A 
ENDBRANCH   8  10
ENDBRANCH   3   8
BRANCH   7  17
ATOM     17  C   UNL     1       6.263  -4.299  26.996  0.00  0.00    +0.173 C 
BRANCH  17  18
ATOM     18  C   UNL     1       6.801  -5.598  27.561  0.00  0.00    +0.311 C 
ATOM     19  O   UNL     1       6.085  -6.379  28.182  0.00  0.00    -0.251 OA
BRANCH  18  20
ATOM     20  O   UNL     1       8.109  -5.857  27.378  0.00  0.00    -0.480 OA
ATOM     21  H   UNL     1       8.392  -5.835  26.443  0.00  0.00    +0.295 HD
ENDBRANCH  18  20
ENDBRANCH  17  18
ENDBRANCH   7  17
TORSDOF 5
ENDMDL
