MODEL 1
REMARK VINA RESULT:      -6.0      0.000      0.000
REMARK  Name = 
REMARK  5 active torsions:
REMARK  status: ('A' for Active; 'I' for Inactive)
REMARK    1  A    between atoms: N_1  and  CA_2
REMARK    2  A    between atoms: CA_2  and  C_4
REMARK    3  A    between atoms: CA_2  and  C_15
REMARK    4  A    between atoms: C_4  and  C_5
REMARK    5  A    between atoms: C_15  and  O_16
REMARK                            x       y       z     vdW  Elec       q    Type
REMARK                         _______ _______ _______ _____ _____    ______ ____
ROOT
ATOM      1  C   UNL     1       8.806  -2.106  25.199  0.00  0.00    -0.020 A 
ATOM      2  C   UNL     1       9.090  -0.967  24.373  0.00  0.00    +0.006 A 
ATOM      3  C   UNL     1       9.311  -0.785  22.992  0.00  0.00    +0.048 A 
ATOM      4  C   UNL     1       9.645   0.489  22.527  0.00  0.00    +0.124 A 
ATOM      5  C   UNL     1       9.761   1.574  23.384  0.00  0.00    +0.040 A 
ATOM      6  C   UNL     1       9.525   1.424  24.752  0.00  0.00    +0.029 A 
ATOM      7  F   UNL     1       9.870   0.664  21.217  0.00  0.00    -0.205 F 
ATOM      8  C   UNL     1       9.190   0.145  25.214  0.00  0.00    +0.047 A 
ATOM      9  N   UNL     1       8.920  -0.289  26.489  0.00  0.00    -0.360 N 
ATOM     10  H   UNL     1       8.923   0.305  27.308  0.00  0.00    +0.165 HD
ATOM     11  C   UNL     1       8.698  -1.638  26.495  0.00  0.00    +0.087 A 
ENDROOT
BRANCH   1  12
ATOM     12  C   UNL     1       8.717  -3.538  24.763  0.00  0.00    +0.067 C 
BRANCH  12  13
ATOM     13  CA  UNL     1       9.100  -4.561  25.842  0.00  0.00    +0.165 C 
BRANCH  13  14
ATOM     14  N   UNL     1      10.129  -5.556  25.385  0.00  0.00    -0.318 NA
ATOM     15  H1  UNL     1      10.166  -5.516  24.360  0.00  0.00    +0.119 HD
ATOM     16  H2  UNL     1      11.041  -5.170  25.658  0.00  0.00    +0.119 HD
ENDBRANCH  13  14
BRANCH  13  17
ATOM     17  C   UNL     1       7.837  -5.337  26.252  0.00  0.00    +0.322 C 
ATOM     18  OXT UNL     1       6.838  -5.476  25.564  0.00  0.00    -0.249 OA
BRANCH  17  19
ATOM     19  O   UNL     1       7.966  -5.865  27.498  0.00  0.00    -0.480 OA
ATOM     20  H   UNL     1       7.040  -6.023  27.815  0.00  0.00    +0.295 HD
ENDBRANCH  17  19
ENDBRANCH  13  17
ENDBRANCH  12  13
ENDBRANCH   1  12
TORSDOF 5
ENDMDL
MODEL 2
REMARK VINA RESULT:      -5.9      2.233      2.878
REMARK  Name = 
REMARK  5 active torsions:
REMARK  status: ('A' for Active; 'I' for Inactive)
REMARK    1  A    between atoms: N_1  and  CA_2
REMARK    2  A    between atoms: CA_2  and  C_4
REMARK    3  A    between atoms: CA_2  and  C_15
REMARK    4  A    between atoms: C_4  and  C_5
REMARK    5  A    between atoms: C_15  and  O_16
REMARK                            x       y       z     vdW  Elec       q    Type
REMARK                         _______ _______ _______ _____ _____    ______ ____
ROOT
ATOM      1  C   UNL     1       9.403  -1.531  23.690  0.00  0.00    -0.020 A 
ATOM      2  C   UNL     1       9.455  -0.097  23.688  0.00  0.00    +0.006 A 
ATOM      3  C   UNL     1       9.179   0.897  24.649  0.00  0.00    +0.048 A 
ATOM      4  C   UNL     1       9.266   2.239  24.272  0.00  0.00    +0.124 A 
ATOM      5  C   UNL     1       9.620   2.616  22.985  0.00  0.00    +0.040 A 
ATOM      6  C   UNL     1       9.919   1.650  22.022  0.00  0.00    +0.029 A 
ATOM      7  F   UNL     1       8.991   3.188  25.178  0.00  0.00    -0.205 F 
ATOM      8  C   UNL     1       9.832   0.306  22.404  0.00  0.00    +0.047 A 
ATOM      9  N   UNL     1      10.055  -0.835  21.673  0.00  0.00    -0.360 N 
ATOM     10  H   UNL     1      10.338  -0.845  20.702  0.00  0.00    +0.165 HD
ATOM     11  C   UNL     1       9.793  -1.943  22.429  0.00  0.00    +0.087 A 
ENDROOT
BRANCH   1  12
ATOM     12  C   UNL     1       8.944  -2.417  24.810  0.00  0.00    +0.067 C 
BRANCH  12  13
ATOM     13  CA  UNL     1       8.960  -3.919  24.487  0.00  0.00    +0.165 C 
BRANCH  13  14
ATOM     14  N   UNL     1       7.616  -4.461  24.092  0.00  0.00    -0.318 NA
ATOM     15  H1  UNL     1       7.700  -4.835  23.140  0.00  0.00    +0.119 HD
ATOM     16  H2  UNL     1       7.472  -5.307  24.655  0.00  0.00    +0.119 HD
ENDBRANCH  13  14
BRANCH  13  17
ATOM     17  C   UNL     1       9.434  -4.683  25.735  0.00  0.00    +0.322 C 
ATOM     18  OXT UNL     1       9.047  -4.484  26.875  0.00  0.00    -0.249 OA
BRANCH  17  19
ATOM     19  O   UNL     1      10.353  -5.631  25.412  0.00  0.00    -0.480 OA
ATOM     20  H   UNL     1      11.231  -5.244  25.662  0.00  0.00    +0.295 HD
ENDBRANCH  17  19
ENDBRANCH  13  17
ENDBRANCH  12  13
ENDBRANCH   1  12
TORSDOF 5
ENDMDL
MODEL 3
REMARK VINA RESULT:      -5.7      4.203      5.965
REMARK  Name = 
REMARK  5 active torsions:
REMARK  status: ('A' for Active; 'I' for Inactive)
REMARK    1  A    between atoms: N_1  and  CA_2
REMARK    2  A    between atoms: CA_2  and  C_4
REMARK    3  A    between atoms: CA_2  and  C_15
REMARK    4  A    between atoms: C_4  and  C_5
REMARK    5  A    between atoms: C_15  and  O_16
REMARK                            x       y       z     vdW  Elec       q    Type
REMARK                         _______ _______ _______ _____ _____    ______ ____
ROOT
ATOM      1  C   UNL     1       8.392  -1.649  23.487  0.00  0.00    -0.020 A 
ATOM      2  C   UNL     1       7.919  -2.927  23.035  0.00  0.00    +0.006 A 
ATOM      3  C   UNL     1       7.121  -3.353  21.954  0.00  0.00    +0.048 A 
ATOM      4  C   UNL     1       6.787  -4.706  21.857  0.00  0.00    +0.124 A 
ATOM      5  C   UNL     1       7.224  -5.637  22.789  0.00  0.00    +0.040 A 
ATOM      6  C   UNL     1       8.035  -5.242  23.855  0.00  0.00    +0.029 A 
ATOM      7  F   UNL     1       6.015  -5.113  20.839  0.00  0.00    -0.205 F 
ATOM      8  C   UNL     1       8.367  -3.886  23.949  0.00  0.00    +0.047 A 
ATOM      9  N   UNL     1       9.127  -3.226  24.884  0.00  0.00    -0.360 N 
ATOM     10  H   UNL     1       9.578  -3.673  25.672  0.00  0.00    +0.165 HD
ATOM     11  C   UNL     1       9.142  -1.884  24.624  0.00  0.00    +0.087 A 
ENDROOT
BRANCH   1  12
ATOM     12  C   UNL     1       8.076  -0.308  22.894  0.00  0.00    +0.067 C 
BRANCH  12  13
ATOM     13  CA  UNL     1       9.037   0.145  21.786  0.00  0.00    +0.165 C 
BRANCH  13  14
ATOM     14  N   UNL     1       9.883  -0.968  21.235  0.00  0.00    -0.318 NA
ATOM     15  H1  UNL     1       9.618  -1.103  20.253  0.00  0.00    +0.119 HD
ATOM     16  H2  UNL     1      10.837  -0.593  21.162  0.00  0.00    +0.119 HD
ENDBRANCH  13  14
BRANCH  13  17
ATOM     17  C   UNL     1       9.978   1.218  22.361  0.00  0.00    +0.322 C 
ATOM     18  OXT UNL     1      10.563   1.145  23.430  0.00  0.00    -0.249 OA
BRANCH  17  19
ATOM     19  O   UNL     1      10.087   2.280  21.521  0.00  0.00    -0.480 OA
ATOM     20  H   UNL     1       9.275   2.827  21.680  0.00  0.00    +0.295 HD
ENDBRANCH  17  19
ENDBRANCH  13  17
ENDBRANCH  12  13
ENDBRANCH   1  12
TORSDOF 5
ENDMDL
MODEL 4
REMARK VINA RESULT:      -5.7      4.553      5.635
REMARK  Name = 
REMARK  5 active torsions:
REMARK  status: ('A' for Active; 'I' for Inactive)
REMARK    1  A    between atoms: N_1  and  CA_2
REMARK    2  A    between atoms: CA_2  and  C_4
REMARK    3  A    between atoms: CA_2  and  C_15
REMARK    4  A    between atoms: C_4  and  C_5
REMARK    5  A    between atoms: C_15  and  O_16
REMARK                            x       y       z     vdW  Elec       q    Type
REMARK                         _______ _______ _______ _____ _____    ______ ____
ROOT
ATOM      1  C   UNL     1       9.257   2.409  23.743  0.00  0.00    -0.020 A 
ATOM      2  C   UNL     1      10.198   3.488  23.642  0.00  0.00    +0.006 A 
ATOM      3  C   UNL     1      11.572   3.569  23.337  0.00  0.00    +0.048 A 
ATOM      4  C   UNL     1      12.205   4.812  23.404  0.00  0.00    +0.124 A 
ATOM      5  C   UNL     1      11.518   5.965  23.757  0.00  0.00    +0.040 A 
ATOM      6  C   UNL     1      10.152   5.914  24.042  0.00  0.00    +0.029 A 
ATOM      7  F   UNL     1      13.514   4.891  23.129  0.00  0.00    -0.205 F 
ATOM      8  C   UNL     1       9.521   4.666  23.973  0.00  0.00    +0.047 A 
ATOM      9  N   UNL     1       8.212   4.325  24.208  0.00  0.00    -0.360 N 
ATOM     10  H   UNL     1       7.489   4.982  24.473  0.00  0.00    +0.165 HD
ATOM     11  C   UNL     1       8.042   2.974  24.084  0.00  0.00    +0.087 A 
ENDROOT
BRANCH   1  12
ATOM     12  C   UNL     1       9.542   0.945  23.588  0.00  0.00    +0.067 C 
BRANCH  12  13
ATOM     13  CA  UNL     1       9.906   0.511  22.161  0.00  0.00    +0.165 C 
BRANCH  13  14
ATOM     14  N   UNL     1       8.984   1.067  21.113  0.00  0.00    -0.318 NA
ATOM     15  H1  UNL     1       8.084   0.582  21.203  0.00  0.00    +0.119 HD
ATOM     16  H2  UNL     1       8.757   2.023  21.411  0.00  0.00    +0.119 HD
ENDBRANCH  13  14
BRANCH  13  17
ATOM     17  C   UNL     1       9.842  -1.025  22.085  0.00  0.00    +0.322 C 
ATOM     18  OXT UNL     1      10.760  -1.784  22.352  0.00  0.00    -0.249 OA
BRANCH  17  19
ATOM     19  O   UNL     1       8.616  -1.447  21.680  0.00  0.00    -0.480 OA
ATOM     20  H   UNL     1       8.425  -2.257  22.219  0.00  0.00    +0.295 HD
ENDBRANCH  17  19
ENDBRANCH  13  17
ENDBRANCH  12  13
ENDBRANCH   1  12
TORSDOF 5
ENDMDL
MODEL 5
REMARK VINA RESULT:      -5.6      2.105      2.359
REMARK  Name = 
REMARK  5 active torsions:
REMARK  status: ('A' for Active; 'I' for Inactive)
REMARK    1  A    between atoms: N_1  and  CA_2
REMARK    2  A    between atoms: CA_2  and  C_4
REMARK    3  A    between atoms: CA_2  and  C_15
REMARK    4  A    between atoms: C_4  and  C_5
REMARK    5  A    between atoms: C_15  and  O_16
REMARK                            x       y       z     vdW  Elec       q    Type
REMARK                         _______ _______ _______ _____ _____    ______ ____
ROOT
ATOM      1  C   UNL     1       7.864  -2.437  25.144  0.00  0.00    -0.020 A 
ATOM      2  C   UNL     1       8.626  -1.336  24.626  0.00  0.00    +0.006 A 
ATOM      3  C   UNL     1       9.879  -0.773  24.942  0.00  0.00    +0.048 A 
ATOM      4  C   UNL     1      10.291   0.375  24.264  0.00  0.00    +0.124 A 
ATOM      5  C   UNL     1       9.505   0.970  23.287  0.00  0.00    +0.040 A 
ATOM      6  C   UNL     1       8.270   0.418  22.940  0.00  0.00    +0.029 A 
ATOM      7  F   UNL     1      11.475   0.923  24.571  0.00  0.00    -0.205 F 
ATOM      8  C   UNL     1       7.861  -0.734  23.623  0.00  0.00    +0.047 A 
ATOM      9  N   UNL     1       6.709  -1.472  23.497  0.00  0.00    -0.360 N 
ATOM     10  H   UNL     1       5.965  -1.262  22.845  0.00  0.00    +0.165 HD
ATOM     11  C   UNL     1       6.694  -2.489  24.411  0.00  0.00    +0.087 A 
ENDROOT
BRANCH   1  12
ATOM     12  C   UNL     1       8.222  -3.316  26.305  0.00  0.00    +0.067 C 
BRANCH  12  13
ATOM     13  CA  UNL     1       7.982  -4.815  26.073  0.00  0.00    +0.165 C 
BRANCH  13  14
ATOM     14  N   UNL     1       8.008  -5.628  27.335  0.00  0.00    -0.318 NA
ATOM     15  H1  UNL     1       8.521  -5.088  28.041  0.00  0.00    +0.119 HD
ATOM     16  H2  UNL     1       7.047  -5.621  27.700  0.00  0.00    +0.119 HD
ENDBRANCH  13  14
BRANCH  13  17
ATOM     17  C   UNL     1       9.082  -5.348  25.140  0.00  0.00    +0.322 C 
ATOM     18  OXT UNL     1       8.945  -5.594  23.952  0.00  0.00    -0.249 OA
BRANCH  17  19
ATOM     19  O   UNL     1      10.255  -5.515  25.806  0.00  0.00    -0.480 OA
ATOM     20  H   UNL     1      10.654  -6.344  25.436  0.00  0.00    +0.295 HD
ENDBRANCH  17  19
ENDBRANCH  13  17
ENDBRANCH  12  13
ENDBRANCH   1  12
TORSDOF 5
ENDMDL
MODEL 6
REMARK VINA RESULT:      -5.5      2.462      2.916
REMARK  Name = 
REMARK  5 active torsions:
REMARK  status: ('A' for Active; 'I' for Inactive)
REMARK    1  A    between atoms: N_1  and  CA_2
REMARK    2  A    between atoms: CA_2  and  C_4
REMARK    3  A    between atoms: CA_2  and  C_15
REMARK    4  A    between atoms: C_4  and  C_5
REMARK    5  A    between atoms: C_15  and  O_16
REMARK                            x       y       z     vdW  Elec       q    Type
REMARK                         _______ _______ _______ _____ _____    ______ ____
ROOT
ATOM      1  C   UNL     1       8.391  -2.288  23.507  0.00  0.00    -0.020 A 
ATOM      2  C   UNL     1       9.055  -1.019  23.412  0.00  0.00    +0.006 A 
ATOM      3  C   UNL     1       9.349  -0.141  22.349  0.00  0.00    +0.048 A 
ATOM      4  C   UNL     1      10.098   1.008  22.613  0.00  0.00    +0.124 A 
ATOM      5  C   UNL     1      10.554   1.308  23.890  0.00  0.00    +0.040 A 
ATOM      6  C   UNL     1      10.256   0.465  24.963  0.00  0.00    +0.029 A 
ATOM      7  F   UNL     1      10.393   1.838  21.603  0.00  0.00    -0.205 F 
ATOM      8  C   UNL     1       9.504  -0.685  24.693  0.00  0.00    +0.047 A 
ATOM      9  N   UNL     1       9.081  -1.681  25.540  0.00  0.00    -0.360 N 
ATOM     10  H   UNL     1       9.268  -1.703  26.534  0.00  0.00    +0.165 HD
ATOM     11  C   UNL     1       8.422  -2.652  24.840  0.00  0.00    +0.087 A 
ENDROOT
BRANCH   1  12
ATOM     12  C   UNL     1       7.838  -3.104  22.377  0.00  0.00    +0.067 C 
BRANCH  12  13
ATOM     13  CA  UNL     1       7.086  -4.371  22.811  0.00  0.00    +0.165 C 
BRANCH  13  14
ATOM     14  N   UNL     1       7.936  -5.610  22.784  0.00  0.00    -0.318 NA
ATOM     15  H1  UNL     1       7.312  -6.417  22.894  0.00  0.00    +0.119 HD
ATOM     16  H2  UNL     1       8.265  -5.710  21.816  0.00  0.00    +0.119 HD
ENDBRANCH  13  14
BRANCH  13  17
ATOM     17  C   UNL     1       5.899  -4.588  21.856  0.00  0.00    +0.322 C 
ATOM     18  OXT UNL     1       5.959  -5.136  20.767  0.00  0.00    -0.249 OA
BRANCH  17  19
ATOM     19  O   UNL     1       4.749  -4.088  22.379  0.00  0.00    -0.480 OA
ATOM     20  H   UNL     1       4.461  -4.747  23.062  0.00  0.00    +0.295 HD
ENDBRANCH  17  19
ENDBRANCH  13  17
ENDBRANCH  12  13
ENDBRANCH   1  12
TORSDOF 5
ENDMDL
MODEL 7
REMARK VINA RESULT:      -5.5      4.006      5.702
REMARK  Name = 
REMARK  5 active torsions:
REMARK  status: ('A' for Active; 'I' for Inactive)
REMARK    1  A    between atoms: N_1  and  CA_2
REMARK    2  A    between atoms: CA_2  and  C_4
REMARK    3  A    between atoms: CA_2  and  C_15
REMARK    4  A    between atoms: C_4  and  C_5
REMARK    5  A    between atoms: C_15  and  O_16
REMARK                            x       y       z     vdW  Elec       q    Type
REMARK                         _______ _______ _______ _____ _____    ______ ____
ROOT
ATOM      1  C   UNL     1       8.653  -3.488  24.377  0.00  0.00    -0.020 A 
ATOM      2  C   UNL     1       7.695  -4.254  23.632  0.00  0.00    +0.006 A 
ATOM      3  C   UNL     1       7.554  -4.596  22.271  0.00  0.00    +0.048 A 
ATOM      4  C   UNL     1       6.425  -5.315  21.872  0.00  0.00    +0.124 A 
ATOM      5  C   UNL     1       5.447  -5.703  22.776  0.00  0.00    +0.040 A 
ATOM      6  C   UNL     1       5.575  -5.395  24.132  0.00  0.00    +0.029 A 
ATOM      7  F   UNL     1       6.280  -5.630  20.577  0.00  0.00    -0.205 F 
ATOM      8  C   UNL     1       6.708  -4.675  24.528  0.00  0.00    +0.047 A 
ATOM      9  N   UNL     1       7.082  -4.233  25.774  0.00  0.00    -0.360 N 
ATOM     10  H   UNL     1       6.549  -4.392  26.620  0.00  0.00    +0.165 HD
ATOM     11  C   UNL     1       8.241  -3.512  25.696  0.00  0.00    +0.087 A 
ENDROOT
BRANCH   1  12
ATOM     12  C   UNL     1       9.833  -2.740  23.830  0.00  0.00    +0.067 C 
BRANCH  12  13
ATOM     13  CA  UNL     1       9.474  -1.503  22.993  0.00  0.00    +0.165 C 
BRANCH  13  14
ATOM     14  N   UNL     1       9.988  -1.566  21.582  0.00  0.00    -0.318 NA
ATOM     15  H1  UNL     1      10.136  -2.555  21.350  0.00  0.00    +0.119 HD
ATOM     16  H2  UNL     1       9.198  -1.308  20.979  0.00  0.00    +0.119 HD
ENDBRANCH  13  14
BRANCH  13  17
ATOM     17  C   UNL     1      10.084  -0.262  23.667  0.00  0.00    +0.322 C 
ATOM     18  OXT UNL     1      10.355  -0.162  24.853  0.00  0.00    -0.249 OA
BRANCH  17  19
ATOM     19  O   UNL     1      10.296   0.734  22.766  0.00  0.00    -0.480 OA
ATOM     20  H   UNL     1      10.650   0.286  21.955  0.00  0.00    +0.295 HD
ENDBRANCH  17  19
ENDBRANCH  13  17
ENDBRANCH  12  13
ENDBRANCH   1  12
TORSDOF 5
ENDMDL
MODEL 8
REMARK VINA RESULT:      -5.4      4.453      6.023
REMARK  Name = 
REMARK  5 active torsions:
REMARK  status: ('A' for Active; 'I' for Inactive)
REMARK    1  A    between atoms: N_1  and  CA_2
REMARK    2  A    between atoms: CA_2  and  C_4
REMARK    3  A    between atoms: CA_2  and  C_15
REMARK    4  A    between atoms: C_4  and  C_5
REMARK    5  A    between atoms: C_15  and  O_16
REMARK                            x       y       z     vdW  Elec       q    Type
REMARK                         _______ _______ _______ _____ _____    ______ ____
ROOT
ATOM      1  C   UNL     1       8.652  -0.603  23.000  0.00  0.00    -0.020 A 
ATOM      2  C   UNL     1       8.272  -1.904  23.472  0.00  0.00    +0.006 A 
ATOM      3  C   UNL     1       8.986  -3.065  23.834  0.00  0.00    +0.048 A 
ATOM      4  C   UNL     1       8.271  -4.211  24.188  0.00  0.00    +0.124 A 
ATOM      5  C   UNL     1       6.883  -4.234  24.198  0.00  0.00    +0.040 A 
ATOM      6  C   UNL     1       6.154  -3.090  23.866  0.00  0.00    +0.029 A 
ATOM      7  F   UNL     1       8.945  -5.321  24.518  0.00  0.00    -0.205 F 
ATOM      8  C   UNL     1       6.875  -1.943  23.512  0.00  0.00    +0.047 A 
ATOM      9  N   UNL     1       6.427  -0.701  23.135  0.00  0.00    -0.360 N 
ATOM     10  H   UNL     1       5.451  -0.441  23.069  0.00  0.00    +0.165 HD
ATOM     11  C   UNL     1       7.481   0.109  22.815  0.00  0.00    +0.087 A 
ENDROOT
BRANCH   1  12
ATOM     12  C   UNL     1      10.039  -0.124  22.689  0.00  0.00    +0.067 C 
BRANCH  12  13
ATOM     13  CA  UNL     1      10.581   0.939  23.655  0.00  0.00    +0.165 C 
BRANCH  13  14
ATOM     14  N   UNL     1       9.998   0.846  25.036  0.00  0.00    -0.318 NA
ATOM     15  H1  UNL     1      10.718   0.450  25.651  0.00  0.00    +0.119 HD
ATOM     16  H2  UNL     1       9.916   1.811  25.378  0.00  0.00    +0.119 HD
ENDBRANCH  13  14
BRANCH  13  17
ATOM     17  C   UNL     1      10.247   2.330  23.090  0.00  0.00    +0.322 C 
ATOM     18  OXT UNL     1       9.974   3.317  23.755  0.00  0.00    -0.249 OA
BRANCH  17  19
ATOM     19  O   UNL     1      10.297   2.335  21.731  0.00  0.00    -0.480 OA
ATOM     20  H   UNL     1      11.135   2.812  21.500  0.00  0.00    +0.295 HD
ENDBRANCH  17  19
ENDBRANCH  13  17
ENDBRANCH  12  13
ENDBRANCH   1  12
TORSDOF 5
ENDMDL
MODEL 9
REMARK VINA RESULT:      -5.3      3.277      4.238
REMARK  Name = 
REMARK  5 active torsions:
REMARK  status: ('A' for Active; 'I' for Inactive)
REMARK    1  A    between atoms: N_1  and  CA_2
REMARK    2  A    between atoms: CA_2  and  C_4
REMARK    3  A    between atoms: CA_2  and  C_15
REMARK    4  A    between atoms: C_4  and  C_5
REMARK    5  A    between atoms: C_15  and  O_16
REMARK                            x       y       z     vdW  Elec       q    Type
REMARK                         _______ _______ _______ _____ _____    ______ ____
ROOT
ATOM      1  C   UNL     1       6.273  -4.135  24.021  0.00  0.00    -0.020 A 
ATOM      2  C   UNL     1       7.372  -3.342  23.550  0.00  0.00    +0.006 A 
ATOM      3  C   UNL     1       7.559  -2.472  22.457  0.00  0.00    +0.048 A 
ATOM      4  C   UNL     1       8.820  -1.908  22.253  0.00  0.00    +0.124 A 
ATOM      5  C   UNL     1       9.887  -2.177  23.098  0.00  0.00    +0.040 A 
ATOM      6  C   UNL     1       9.721  -3.017  24.201  0.00  0.00    +0.029 A 
ATOM      7  F   UNL     1       9.006  -1.092  21.206  0.00  0.00    -0.205 F 
ATOM      8  C   UNL     1       8.455  -3.580  24.402  0.00  0.00    +0.047 A 
ATOM      9  N   UNL     1       8.016  -4.436  25.382  0.00  0.00    -0.360 N 
ATOM     10  H   UNL     1       8.592  -4.785  26.137  0.00  0.00    +0.165 HD
ATOM     11  C   UNL     1       6.712  -4.785  25.160  0.00  0.00    +0.087 A 
ENDROOT
BRANCH   1  12
ATOM     12  C   UNL     1       4.931  -4.296  23.371  0.00  0.00    +0.067 C 
BRANCH  12  13
ATOM     13  CA  UNL     1       4.715  -5.648  22.675  0.00  0.00    +0.165 C 
BRANCH  13  14
ATOM     14  N   UNL     1       4.758  -6.819  23.615  0.00  0.00    -0.318 NA
ATOM     15  H1  UNL     1       4.190  -6.579  24.436  0.00  0.00    +0.119 HD
ATOM     16  H2  UNL     1       4.208  -7.563  23.170  0.00  0.00    +0.119 HD
ENDBRANCH  13  14
BRANCH  13  17
ATOM     17  C   UNL     1       5.821  -5.840  21.624  0.00  0.00    +0.322 C 
ATOM     18  OXT UNL     1       5.980  -5.150  20.629  0.00  0.00    -0.249 OA
BRANCH  17  19
ATOM     19  O   UNL     1       6.624  -6.891  21.940  0.00  0.00    -0.480 OA
ATOM     20  H   UNL     1       6.764  -6.831  22.919  0.00  0.00    +0.295 HD
ENDBRANCH  17  19
ENDBRANCH  13  17
ENDBRANCH  12  13
ENDBRANCH   1  12
TORSDOF 5
ENDMDL
