MODEL 1
REMARK VINA RESULT:      -4.1      0.000      0.000
REMARK  Name = 
REMARK  8 active torsions:
REMARK  status: ('A' for Active; 'I' for Inactive)
REMARK    1  A    between atoms: N_1  and  C_2
REMARK    2  A    between atoms: C_2  and  C_4
REMARK    3  A    between atoms: C_2  and  C_9
REMARK    4  A    between atoms: C_4  and  S_5
REMARK    5  A    between atoms: S_5  and  C_6
REMARK    6  A    between atoms: C_6  and  C_7
REMARK    7  A    between atoms: C_7  and  O_8
REMARK    8  A    between atoms: C_9  and  O_10
REMARK                            x       y       z     vdW  Elec       q    Type
REMARK                         _______ _______ _______ _____ _____    ______ ____
ROOT
ATOM      1  C   UNK     1       9.039  -4.601  25.302  0.00  0.00    +0.170 C 
ENDROOT
BRANCH   1   2
ATOM      2  N   UNK     1      10.061  -5.695  25.391  0.00  0.00    -0.318 NA
ATOM      3  H   UNK     1      10.853  -5.434  24.793  0.00  0.00    +0.119 HD
ATOM      4  H   UNK     1      10.461  -5.632  26.335  0.00  0.00    +0.119 HD
ENDBRANCH   1   2
BRANCH   1   5
ATOM      5  C   UNK     1       8.098  -4.731  26.505  0.00  0.00    +0.323 C 
ATOM      6  O   UNK     1       7.347  -3.863  26.918  0.00  0.00    -0.249 OA
BRANCH   5   7
ATOM      7  O   UNK     1       8.228  -5.951  27.092  0.00  0.00    -0.480 OA
ATOM      8  H   UNK     1       8.813  -5.815  27.880  0.00  0.00    +0.295 HD
ENDBRANCH   5   7
ENDBRANCH   1   5
BRANCH   1   9
ATOM      9  C   UNK     1       8.237  -4.611  23.992  0.00  0.00    +0.099 C 
BRANCH   9  10
ATOM     10  S   UNK     1       8.152  -2.925  23.278  0.00  0.00    -0.156 S 
BRANCH  10  11
ATOM     11  C   UNK     1       9.861  -2.380  23.640  0.00  0.00    +0.097 C 
BRANCH  11  12
ATOM     12  C   UNK     1      10.219  -1.165  22.787  0.00  0.00    +0.166 C 
BRANCH  12  13
ATOM     13  O   UNK     1      10.210  -1.490  21.400  0.00  0.00    -0.394 OA
ATOM     14  H   UNK     1       9.931  -2.424  21.344  0.00  0.00    +0.209 HD
ENDBRANCH  12  13
ENDBRANCH  11  12
ENDBRANCH  10  11
ENDBRANCH   9  10
ENDBRANCH   1   9
TORSDOF 8
ENDMDL
MODEL 2
REMARK VINA RESULT:      -4.0      9.969     10.467
REMARK  Name = 
REMARK  8 active torsions:
REMARK  status: ('A' for Active; 'I' for Inactive)
REMARK    1  A    between atoms: N_1  and  C_2
REMARK    2  A    between atoms: C_2  and  C_4
REMARK    3  A    between atoms: C_2  and  C_9
REMARK    4  A    between atoms: C_4  and  S_5
REMARK    5  A    between atoms: S_5  and  C_6
REMARK    6  A    between atoms: C_6  and  C_7
REMARK    7  A    between atoms: C_7  and  O_8
REMARK    8  A    between atoms: C_9  and  O_10
REMARK                            x       y       z     vdW  Elec       q    Type
REMARK                         _______ _______ _______ _____ _____    ______ ____
ROOT
ATOM      1  C   UNK     1      12.155   5.599  24.083  0.00  0.00    +0.170 C 
ENDROOT
BRANCH   1   2
ATOM      2  N   UNK     1      12.763   6.665  24.946  0.00  0.00    -0.318 NA
ATOM      3  H   UNK     1      12.902   7.498  24.364  0.00  0.00    +0.119 HD
ATOM      4  H   UNK     1      12.021   6.962  25.593  0.00  0.00    +0.119 HD
ENDBRANCH   1   2
BRANCH   1   5
ATOM      5  C   UNK     1      13.084   5.372  22.884  0.00  0.00    +0.323 C 
ATOM      6  O   UNK     1      12.763   5.451  21.710  0.00  0.00    -0.249 OA
BRANCH   5   7
ATOM      7  O   UNK     1      14.335   5.031  23.299  0.00  0.00    -0.480 OA
ATOM      8  H   UNK     1      14.927   5.162  22.516  0.00  0.00    +0.295 HD
ENDBRANCH   5   7
ENDBRANCH   1   5
BRANCH   1   9
ATOM      9  C   UNK     1      10.734   5.929  23.604  0.00  0.00    +0.099 C 
BRANCH   9  10
ATOM     10  S   UNK     1       9.642   4.468  23.779  0.00  0.00    -0.156 S 
BRANCH  10  11
ATOM     11  C   UNK     1       8.023   5.316  23.681  0.00  0.00    +0.097 C 
BRANCH  11  12
ATOM     12  C   UNK     1       8.095   6.478  22.692  0.00  0.00    +0.166 C 
BRANCH  12  13
ATOM     13  O   UNK     1       7.580   6.102  21.418  0.00  0.00    -0.394 OA
ATOM     14  H   UNK     1       7.456   5.134  21.453  0.00  0.00    +0.209 HD
ENDBRANCH  12  13
ENDBRANCH  11  12
ENDBRANCH  10  11
ENDBRANCH   9  10
ENDBRANCH   1   9
TORSDOF 8
ENDMDL
MODEL 3
REMARK VINA RESULT:      -4.0      2.034      2.312
REMARK  Name = 
REMARK  8 active torsions:
REMARK  status: ('A' for Active; 'I' for Inactive)
REMARK    1  A    between atoms: N_1  and  C_2
REMARK    2  A    between atoms: C_2  and  C_4
REMARK    3  A    between atoms: C_2  and  C_9
REMARK    4  A    between atoms: C_4  and  S_5
REMARK    5  A    between atoms: S_5  and  C_6
REMARK    6  A    between atoms: C_6  and  C_7
REMARK    7  A    between atoms: C_7  and  O_8
REMARK    8  A    between atoms: C_9  and  O_10
REMARK                            x       y       z     vdW  Elec       q    Type
REMARK                         _______ _______ _______ _____ _____    ______ ____
ROOT
ATOM      1  C   UNK     1       8.051  -4.728  26.055  0.00  0.00    +0.170 C 
ENDROOT
BRANCH   1   2
ATOM      2  N   UNK     1       8.117  -5.693  27.202  0.00  0.00    -0.318 NA
ATOM      3  H   UNK     1       7.442  -5.385  27.910  0.00  0.00    +0.119 HD
ATOM      4  H   UNK     1       7.704  -6.569  26.860  0.00  0.00    +0.119 HD
ENDBRANCH   1   2
BRANCH   1   5
ATOM      5  C   UNK     1       8.927  -5.276  24.923  0.00  0.00    +0.323 C 
ATOM      6  O   UNK     1       8.586  -5.407  23.759  0.00  0.00    -0.249 OA
BRANCH   5   7
ATOM      7  O   UNK     1      10.153  -5.636  25.390  0.00  0.00    -0.480 OA
ATOM      8  H   UNK     1      10.041  -5.790  26.362  0.00  0.00    +0.295 HD
ENDBRANCH   5   7
ENDBRANCH   1   5
BRANCH   1   9
ATOM      9  C   UNK     1       8.482  -3.302  26.424  0.00  0.00    +0.099 C 
BRANCH   9  10
ATOM     10  S   UNK     1       7.848  -2.100  25.193  0.00  0.00    -0.156 S 
BRANCH  10  11
ATOM     11  C   UNK     1       9.449  -1.488  24.551  0.00  0.00    +0.097 C 
BRANCH  11  12
ATOM     12  C   UNK     1       9.691  -2.023  23.141  0.00  0.00    +0.166 C 
BRANCH  12  13
ATOM     13  O   UNK     1       8.519  -2.641  22.617  0.00  0.00    -0.394 OA
ATOM     14  H   UNK     1       8.712  -3.597  22.579  0.00  0.00    +0.209 HD
ENDBRANCH  12  13
ENDBRANCH  11  12
ENDBRANCH  10  11
ENDBRANCH   9  10
ENDBRANCH   1   9
TORSDOF 8
ENDMDL
MODEL 4
REMARK VINA RESULT:      -3.9      2.990      3.704
REMARK  Name = 
REMARK  8 active torsions:
REMARK  status: ('A' for Active; 'I' for Inactive)
REMARK    1  A    between atoms: N_1  and  C_2
REMARK    2  A    between atoms: C_2  and  C_4
REMARK    3  A    between atoms: C_2  and  C_9
REMARK    4  A    between atoms: C_4  and  S_5
REMARK    5  A    between atoms: S_5  and  C_6
REMARK    6  A    between atoms: C_6  and  C_7
REMARK    7  A    between atoms: C_7  and  O_8
REMARK    8  A    between atoms: C_9  and  O_10
REMARK                            x       y       z     vdW  Elec       q    Type
REMARK                         _______ _______ _______ _____ _____    ______ ____
ROOT
ATOM      1  C   UNK     1       8.056  -5.263  25.692  0.00  0.00    +0.170 C 
ENDROOT
BRANCH   1   2
ATOM      2  N   UNK     1       8.153  -5.621  27.145  0.00  0.00    -0.318 NA
ATOM      3  H   UNK     1       9.015  -5.205  27.514  0.00  0.00    +0.119 HD
ATOM      4  H   UNK     1       7.419  -5.081  27.620  0.00  0.00    +0.119 HD
ENDBRANCH   1   2
BRANCH   1   5
ATOM      5  C   UNK     1       9.453  -4.860  25.207  0.00  0.00    +0.323 C 
ATOM      6  O   UNK     1       9.702  -3.952  24.431  0.00  0.00    -0.249 OA
BRANCH   5   7
ATOM      7  O   UNK     1      10.404  -5.676  25.737  0.00  0.00    -0.480 OA
ATOM      8  H   UNK     1      10.122  -5.854  26.670  0.00  0.00    +0.295 HD
ENDBRANCH   5   7
ENDBRANCH   1   5
BRANCH   1   9
ATOM      9  C   UNK     1       7.044  -4.147  25.398  0.00  0.00    +0.099 C 
BRANCH   9  10
ATOM     10  S   UNK     1       5.749  -4.740  24.244  0.00  0.00    -0.156 S 
BRANCH  10  11
ATOM     11  C   UNK     1       6.663  -4.537  22.671  0.00  0.00    +0.097 C 
BRANCH  11  12
ATOM     12  C   UNK     1       6.930  -5.900  22.036  0.00  0.00    +0.166 C 
BRANCH  12  13
ATOM     13  O   UNK     1       5.771  -6.391  21.368  0.00  0.00    -0.394 OA
ATOM     14  H   UNK     1       6.099  -6.920  20.615  0.00  0.00    +0.209 HD
ENDBRANCH  12  13
ENDBRANCH  11  12
ENDBRANCH  10  11
ENDBRANCH   9  10
ENDBRANCH   1   9
TORSDOF 8
ENDMDL
MODEL 5
REMARK VINA RESULT:      -3.8      2.631      3.247
REMARK  Name = 
REMARK  8 active torsions:
REMARK  status: ('A' for Active; 'I' for Inactive)
REMARK    1  A    between atoms: N_1  and  C_2
REMARK    2  A    between atoms: C_2  and  C_4
REMARK    3  A    between atoms: C_2  and  C_9
REMARK    4  A    between atoms: C_4  and  S_5
REMARK    5  A    between atoms: S_5  and  C_6
REMARK    6  A    between atoms: C_6  and  C_7
REMARK    7  A    between atoms: C_7  and  O_8
REMARK    8  A    between atoms: C_9  and  O_10
REMARK                            x       y       z     vdW  Elec       q    Type
REMARK                         _______ _______ _______ _____ _____    ______ ____
ROOT
ATOM      1  C   UNK     1       9.245  -4.510  25.487  0.00  0.00    +0.170 C 
ENDROOT
BRANCH   1   2
ATOM      2  N   UNK     1       9.929  -5.823  25.244  0.00  0.00    -0.318 NA
ATOM      3  H   UNK     1      10.315  -5.804  24.294  0.00  0.00    +0.119 HD
ATOM      4  H   UNK     1      10.772  -5.816  25.832  0.00  0.00    +0.119 HD
ENDBRANCH   1   2
BRANCH   1   5
ATOM      5  C   UNK     1       8.248  -4.699  26.636  0.00  0.00    +0.323 C 
ATOM      6  O   UNK     1       7.580  -3.817  27.150  0.00  0.00    -0.249 OA
BRANCH   5   7
ATOM      7  O   UNK     1       8.221  -5.996  27.045  0.00  0.00    -0.480 OA
ATOM      8  H   UNK     1       7.264  -6.250  27.086  0.00  0.00    +0.295 HD
ENDBRANCH   5   7
ENDBRANCH   1   5
BRANCH   1   9
ATOM      9  C   UNK     1       8.534  -3.946  24.248  0.00  0.00    +0.099 C 
BRANCH   9  10
ATOM     10  S   UNK     1       7.084  -4.979  23.814  0.00  0.00    -0.156 S 
BRANCH  10  11
ATOM     11  C   UNK     1       6.940  -4.530  22.045  0.00  0.00    +0.097 C 
BRANCH  11  12
ATOM     12  C   UNK     1       6.604  -5.766  21.213  0.00  0.00    +0.166 C 
BRANCH  12  13
ATOM     13  O   UNK     1       5.251  -6.167  21.411  0.00  0.00    -0.394 OA
ATOM     14  H   UNK     1       4.931  -5.663  22.183  0.00  0.00    +0.209 HD
ENDBRANCH  12  13
ENDBRANCH  11  12
ENDBRANCH  10  11
ENDBRANCH   9  10
ENDBRANCH   1   9
TORSDOF 8
ENDMDL
MODEL 6
REMARK VINA RESULT:      -3.8      4.684      6.493
REMARK  Name = 
REMARK  8 active torsions:
REMARK  status: ('A' for Active; 'I' for Inactive)
REMARK    1  A    between atoms: N_1  and  C_2
REMARK    2  A    between atoms: C_2  and  C_4
REMARK    3  A    between atoms: C_2  and  C_9
REMARK    4  A    between atoms: C_4  and  S_5
REMARK    5  A    between atoms: S_5  and  C_6
REMARK    6  A    between atoms: C_6  and  C_7
REMARK    7  A    between atoms: C_7  and  O_8
REMARK    8  A    between atoms: C_9  and  O_10
REMARK                            x       y       z     vdW  Elec       q    Type
REMARK                         _______ _______ _______ _____ _____    ______ ____
ROOT
ATOM      1  C   UNK     1      10.270   1.894  23.014  0.00  0.00    +0.170 C 
ENDROOT
BRANCH   1   2
ATOM      2  N   UNK     1      10.611   3.350  22.899  0.00  0.00    -0.318 NA
ATOM      3  H   UNK     1      11.570   3.476  23.241  0.00  0.00    +0.119 HD
ATOM      4  H   UNK     1      10.702   3.541  21.893  0.00  0.00    +0.119 HD
ENDBRANCH   1   2
BRANCH   1   5
ATOM      5  C   UNK     1       9.407   1.511  21.807  0.00  0.00    +0.323 C 
ATOM      6  O   UNK     1       9.432   0.438  21.226  0.00  0.00    -0.249 OA
BRANCH   5   7
ATOM      7  O   UNK     1       8.611   2.549  21.432  0.00  0.00    -0.480 OA
ATOM      8  H   UNK     1       8.673   3.218  22.160  0.00  0.00    +0.295 HD
ENDBRANCH   5   7
ENDBRANCH   1   5
BRANCH   1   9
ATOM      9  C   UNK     1       9.553   1.530  24.322  0.00  0.00    +0.099 C 
BRANCH   9  10
ATOM     10  S   UNK     1      10.270   0.007  25.047  0.00  0.00    -0.156 S 
BRANCH  10  11
ATOM     11  C   UNK     1       9.113  -1.216  24.327  0.00  0.00    +0.097 C 
BRANCH  11  12
ATOM     12  C   UNK     1       9.891  -2.339  23.645  0.00  0.00    +0.166 C 
BRANCH  12  13
ATOM     13  O   UNK     1      10.590  -1.859  22.499  0.00  0.00    -0.394 OA
ATOM     14  H   UNK     1      11.048  -2.633  22.119  0.00  0.00    +0.209 HD
ENDBRANCH  12  13
ENDBRANCH  11  12
ENDBRANCH  10  11
ENDBRANCH   9  10
ENDBRANCH   1   9
TORSDOF 8
ENDMDL
MODEL 7
REMARK VINA RESULT:      -3.8      2.905      4.990
REMARK  Name = 
REMARK  8 active torsions:
REMARK  status: ('A' for Active; 'I' for Inactive)
REMARK    1  A    between atoms: N_1  and  C_2
REMARK    2  A    between atoms: C_2  and  C_4
REMARK    3  A    between atoms: C_2  and  C_9
REMARK    4  A    between atoms: C_4  and  S_5
REMARK    5  A    between atoms: S_5  and  C_6
REMARK    6  A    between atoms: C_6  and  C_7
REMARK    7  A    between atoms: C_7  and  O_8
REMARK    8  A    between atoms: C_9  and  O_10
REMARK                            x       y       z     vdW  Elec       q    Type
REMARK                         _______ _______ _______ _____ _____    ______ ____
ROOT
ATOM      1  C   UNK     1       8.056  -5.255  25.678  0.00  0.00    +0.170 C 
ENDROOT
BRANCH   1   2
ATOM      2  N   UNK     1       8.158  -5.614  27.131  0.00  0.00    -0.318 NA
ATOM      3  H   UNK     1       7.314  -5.266  27.599  0.00  0.00    +0.119 HD
ATOM      4  H   UNK     1       8.040  -6.634  27.180  0.00  0.00    +0.119 HD
ENDBRANCH   1   2
BRANCH   1   5
ATOM      5  C   UNK     1       9.447  -4.829  25.195  0.00  0.00    +0.323 C 
ATOM      6  O   UNK     1       9.682  -3.921  24.414  0.00  0.00    -0.249 OA
BRANCH   5   7
ATOM      7  O   UNK     1      10.411  -5.625  25.732  0.00  0.00    -0.480 OA
ATOM      8  H   UNK     1      10.434  -6.442  25.172  0.00  0.00    +0.295 HD
ENDBRANCH   5   7
ENDBRANCH   1   5
BRANCH   1   9
ATOM      9  C   UNK     1       7.027  -4.155  25.385  0.00  0.00    +0.099 C 
BRANCH   9  10
ATOM     10  S   UNK     1       5.610  -4.833  24.441  0.00  0.00    -0.156 S 
BRANCH  10  11
ATOM     11  C   UNK     1       4.532  -5.295  25.847  0.00  0.00    +0.097 C 
BRANCH  11  12
ATOM     12  C   UNK     1       4.670  -6.786  26.150  0.00  0.00    +0.166 C 
BRANCH  12  13
ATOM     13  O   UNK     1       5.442  -7.003  27.328  0.00  0.00    -0.394 OA
ATOM     14  H   UNK     1       6.374  -6.876  27.066  0.00  0.00    +0.209 HD
ENDBRANCH  12  13
ENDBRANCH  11  12
ENDBRANCH  10  11
ENDBRANCH   9  10
ENDBRANCH   1   9
TORSDOF 8
ENDMDL
MODEL 8
REMARK VINA RESULT:      -3.8      2.711      2.957
REMARK  Name = 
REMARK  8 active torsions:
REMARK  status: ('A' for Active; 'I' for Inactive)
REMARK    1  A    between atoms: N_1  and  C_2
REMARK    2  A    between atoms: C_2  and  C_4
REMARK    3  A    between atoms: C_2  and  C_9
REMARK    4  A    between atoms: C_4  and  S_5
REMARK    5  A    between atoms: S_5  and  C_6
REMARK    6  A    between atoms: C_6  and  C_7
REMARK    7  A    between atoms: C_7  and  O_8
REMARK    8  A    between atoms: C_9  and  O_10
REMARK                            x       y       z     vdW  Elec       q    Type
REMARK                         _______ _______ _______ _____ _____    ______ ____
ROOT
ATOM      1  C   UNK     1       7.997  -5.177  25.727  0.00  0.00    +0.170 C 
ENDROOT
BRANCH   1   2
ATOM      2  N   UNK     1       8.118  -5.647  27.146  0.00  0.00    -0.318 NA
ATOM      3  H   UNK     1       8.302  -4.827  27.734  0.00  0.00    +0.119 HD
ATOM      4  H   UNK     1       7.171  -5.925  27.434  0.00  0.00    +0.119 HD
ENDBRANCH   1   2
BRANCH   1   5
ATOM      5  C   UNK     1       9.405  -4.859  25.210  0.00  0.00    +0.323 C 
ATOM      6  O   UNK     1       9.694  -3.956  24.443  0.00  0.00    -0.249 OA
BRANCH   5   7
ATOM      7  O   UNK     1      10.312  -5.749  25.698  0.00  0.00    -0.480 OA
ATOM      8  H   UNK     1      10.998  -5.855  24.992  0.00  0.00    +0.295 HD
ENDBRANCH   5   7
ENDBRANCH   1   5
BRANCH   1   9
ATOM      9  C   UNK     1       7.077  -3.959  25.558  0.00  0.00    +0.099 C 
BRANCH   9  10
ATOM     10  S   UNK     1       5.584  -4.410  24.595  0.00  0.00    -0.156 S 
BRANCH  10  11
ATOM     11  C   UNK     1       5.799  -3.257  23.190  0.00  0.00    +0.097 C 
BRANCH  11  12
ATOM     12  C   UNK     1       6.908  -3.753  22.265  0.00  0.00    +0.166 C 
BRANCH  12  13
ATOM     13  O   UNK     1       8.028  -2.873  22.287  0.00  0.00    -0.394 OA
ATOM     14  H   UNK     1       8.091  -2.540  23.202  0.00  0.00    +0.209 HD
ENDBRANCH  12  13
ENDBRANCH  11  12
ENDBRANCH  10  11
ENDBRANCH   9  10
ENDBRANCH   1   9
TORSDOF 8
ENDMDL
MODEL 9
REMARK VINA RESULT:      -3.8      5.015      6.374
REMARK  Name = 
REMARK  8 active torsions:
REMARK  status: ('A' for Active; 'I' for Inactive)
REMARK    1  A    between atoms: N_1  and  C_2
REMARK    2  A    between atoms: C_2  and  C_4
REMARK    3  A    between atoms: C_2  and  C_9
REMARK    4  A    between atoms: C_4  and  S_5
REMARK    5  A    between atoms: S_5  and  C_6
REMARK    6  A    between atoms: C_6  and  C_7
REMARK    7  A    between atoms: C_7  and  O_8
REMARK    8  A    between atoms: C_9  and  O_10
REMARK                            x       y       z     vdW  Elec       q    Type
REMARK                         _______ _______ _______ _____ _____    ______ ____
ROOT
ATOM      1  C   UNK     1       8.337   2.231  22.941  0.00  0.00    +0.170 C 
ENDROOT
BRANCH   1   2
ATOM      2  N   UNK     1       7.815   1.855  21.586  0.00  0.00    -0.318 NA
ATOM      3  H   UNK     1       8.000   2.638  20.949  0.00  0.00    +0.119 HD
ATOM      4  H   UNK     1       8.444   1.122  21.233  0.00  0.00    +0.119 HD
ENDBRANCH   1   2
BRANCH   1   5
ATOM      5  C   UNK     1       9.853   2.425  22.828  0.00  0.00    +0.323 C 
ATOM      6  O   UNK     1      10.598   2.754  23.737  0.00  0.00    -0.249 OA
BRANCH   5   7
ATOM      7  O   UNK     1      10.275   2.212  21.552  0.00  0.00    -0.480 OA
ATOM      8  H   UNK     1      10.573   1.268  21.517  0.00  0.00    +0.295 HD
ENDBRANCH   5   7
ENDBRANCH   1   5
BRANCH   1   9
ATOM      9  C   UNK     1       8.008   1.206  24.035  0.00  0.00    +0.099 C 
BRANCH   9  10
ATOM     10  S   UNK     1       7.814  -0.467  23.311  0.00  0.00    -0.156 S 
BRANCH  10  11
ATOM     11  C   UNK     1       9.508  -1.096  23.600  0.00  0.00    +0.097 C 
BRANCH  11  12
ATOM     12  C   UNK     1      10.175  -1.445  22.271  0.00  0.00    +0.166 C 
BRANCH  12  13
ATOM     13  O   UNK     1       9.626  -0.678  21.203  0.00  0.00    -0.394 OA
ATOM     14  H   UNK     1       8.962  -0.089  21.608  0.00  0.00    +0.209 HD
ENDBRANCH  12  13
ENDBRANCH  11  12
ENDBRANCH  10  11
ENDBRANCH   9  10
ENDBRANCH   1   9
TORSDOF 8
ENDMDL
