MODEL 1
REMARK VINA RESULT:      -7.4      0.000      0.000
REMARK  Name = 
REMARK  12 active torsions:
REMARK  status: ('A' for Active; 'I' for Inactive)
REMARK    1  A    between atoms: C_1  and  C_2
REMARK    2  A    between atoms: N_4  and  C_5
REMARK    3  A    between atoms: C_5  and  C_19
REMARK    4  A    between atoms: C_6  and  C_7
REMARK    5  A    between atoms: C_10  and  C_11
REMARK    6  A    between atoms: C_11  and  C_12
REMARK    7  A    between atoms: C_12  and  O_13
REMARK    8  A    between atoms: C_15  and  C_16
REMARK    9  A    between atoms: N_21  and  C_22
REMARK   10  A    between atoms: N_28  and  C_29
REMARK   11  A    between atoms: C_29  and  C_30
REMARK   12  A    between atoms: C_33  and  C_36
REMARK                            x       y       z     vdW  Elec       q    Type
REMARK                         _______ _______ _______ _____ _____    ______ ____
ROOT
ATOM      1  C   UNL     1       7.851  -0.586  26.489  0.00  0.00    +0.259 C 
ATOM      2  N   UNL     1       7.831   0.173  25.343  0.00  0.00    -0.299 N 
ATOM      3  H   UNL     1       7.052   0.139  24.706  0.00  0.00    +0.150 HD
ATOM      4  O   UNL     1       8.854  -0.751  27.178  0.00  0.00    -0.269 OA
ENDROOT
BRANCH   2   5
ATOM      5  C   UNL     1       8.935   1.061  24.966  0.00  0.00    +0.159 C 
ATOM      6  C   UNL     1      10.118   0.297  24.337  0.00  0.00    +0.236 C 
ATOM      7  O   UNL     1      11.276   0.690  24.474  0.00  0.00    -0.274 OA
ATOM      8  N   UNL     1       9.727  -0.586  23.316  0.00  0.00    -0.296 N 
ATOM      9  C   UNL     1       9.894  -0.060  21.965  0.00  0.00    +0.108 C 
ATOM     10  C   UNL     1       9.369   1.370  21.774  0.00  0.00    +0.019 C 
ATOM     11  C   UNL     1       8.105   1.693  22.576  0.00  0.00    +0.004 C 
ATOM     12  C   UNL     1       8.418   2.153  24.012  0.00  0.00    +0.032 C 
BRANCH   8  13
ATOM     13  C   UNL     1      10.021  -2.019  23.497  0.00  0.00    +0.143 C 
BRANCH  13  14
ATOM     14  C   UNL     1       8.832  -2.958  23.502  0.00  0.00    -0.030 A 
ATOM     15  C   UNL     1       8.825  -4.156  24.231  0.00  0.00    +0.006 A 
ATOM     16  C   UNL     1       7.663  -4.952  24.307  0.00  0.00    +0.009 A 
ATOM     17  C   UNL     1       6.467  -4.565  23.680  0.00  0.00    -0.018 A 
ATOM     18  C   UNL     1       6.529  -3.417  22.877  0.00  0.00    +0.009 A 
ATOM     19  C   UNL     1       7.690  -2.646  22.767  0.00  0.00    +0.006 A 
BRANCH  17  20
ATOM     20  C   UNL     1       5.163  -5.247  23.901  0.00  0.00    -0.018 A 
ATOM     21  C   UNL     1       3.979  -4.790  23.292  0.00  0.00    +0.008 A 
ATOM     22  C   UNL     1       2.787  -5.523  23.365  0.00  0.00    +0.001 A 
ATOM     23  C   UNL     1       2.748  -6.735  24.047  0.00  0.00    +0.000 A 
ATOM     24  C   UNL     1       3.892  -7.197  24.686  0.00  0.00    +0.001 A 
ATOM     25  C   UNL     1       5.075  -6.452  24.627  0.00  0.00    +0.008 A 
ENDBRANCH  17  20
ENDBRANCH  13  14
ENDBRANCH   8  13
ENDBRANCH   2   5
BRANCH   1  26
ATOM     26  C   UNL     1       6.575  -1.309  26.855  0.00  0.00    +0.096 C 
ATOM     27  C   UNL     1       6.342  -2.578  26.448  0.00  0.00    +0.036 C 
BRANCH  27  28
ATOM     28  C   UNL     1       5.304  -3.457  26.990  0.00  0.00    -0.022 A 
ATOM     29  C   UNL     1       5.584  -4.555  27.798  0.00  0.00    +0.019 A 
ATOM     30  C   UNL     1       4.542  -5.357  28.290  0.00  0.00    +0.018 A 
ATOM     31  C   UNL     1       3.197  -5.049  28.001  0.00  0.00    -0.027 A 
ATOM     32  C   UNL     1       2.933  -3.925  27.203  0.00  0.00    +0.005 A 
ATOM     33  C   UNL     1       3.973  -3.146  26.695  0.00  0.00    +0.008 A 
BRANCH  30  34
ATOM     34  C   UNL     1       4.941  -6.526  29.102  0.00  0.00    +0.259 C 
ATOM     35  O   UNL     1       5.571  -7.461  28.619  0.00  0.00    -0.296 OA
ENDBRANCH  30  34
BRANCH  31  36
ATOM     36  C   UNL     1       2.023  -5.860  28.499  0.00  0.00    +0.156 C 
BRANCH  36  37
ATOM     37  C   UNL     1       1.410  -6.747  27.439  0.00  0.00    +0.309 C 
ATOM     38  O   UNL     1       0.527  -6.373  26.678  0.00  0.00    -0.251 OA
BRANCH  37  39
ATOM     39  O   UNL     1       1.901  -8.005  27.411  0.00  0.00    -0.480 OA
ATOM     40  H   UNL     1       2.599  -8.167  28.095  0.00  0.00    +0.295 HD
ENDBRANCH  37  39
ENDBRANCH  36  37
ENDBRANCH  31  36
ENDBRANCH  27  28
BRANCH  26  43
ATOM     41  C   UNL     1       3.961   1.140  27.919  0.00  0.00    +0.109 C 
ATOM     42  C   UNL     1       4.790   0.314  26.971  0.00  0.00    +0.214 C 
ATOM     43  N   UNL     1       5.671  -0.558  27.601  0.00  0.00    -0.282 N 
ATOM     44  H   UNL     1       6.099  -0.126  28.418  0.00  0.00    +0.155 HD
ATOM     45  O   UNL     1       4.656   0.434  25.755  0.00  0.00    -0.276 OA
ENDBRANCH  26  43
ENDBRANCH   1  26
TORSDOF 11
ENDMDL
MODEL 2
REMARK VINA RESULT:      -7.4      2.143      3.470
REMARK  Name = 
REMARK  12 active torsions:
REMARK  status: ('A' for Active; 'I' for Inactive)
REMARK    1  A    between atoms: C_1  and  C_2
REMARK    2  A    between atoms: N_4  and  C_5
REMARK    3  A    between atoms: C_5  and  C_19
REMARK    4  A    between atoms: C_6  and  C_7
REMARK    5  A    between atoms: C_10  and  C_11
REMARK    6  A    between atoms: C_11  and  C_12
REMARK    7  A    between atoms: C_12  and  O_13
REMARK    8  A    between atoms: C_15  and  C_16
REMARK    9  A    between atoms: N_21  and  C_22
REMARK   10  A    between atoms: N_28  and  C_29
REMARK   11  A    between atoms: C_29  and  C_30
REMARK   12  A    between atoms: C_33  and  C_36
REMARK                            x       y       z     vdW  Elec       q    Type
REMARK                         _______ _______ _______ _____ _____    ______ ____
ROOT
ATOM      1  C   UNL     1       6.335   1.566  27.085  0.00  0.00    +0.259 C 
ATOM      2  N   UNL     1       6.232   2.370  25.975  0.00  0.00    -0.299 N 
ATOM      3  H   UNL     1       5.937   2.001  25.086  0.00  0.00    +0.150 HD
ATOM      4  O   UNL     1       6.892   1.910  28.124  0.00  0.00    -0.269 OA
ENDROOT
BRANCH   2   5
ATOM      5  C   UNL     1       6.552   3.801  26.005  0.00  0.00    +0.159 C 
ATOM      6  C   UNL     1       7.999   4.090  25.557  0.00  0.00    +0.236 C 
ATOM      7  O   UNL     1       8.631   5.040  26.017  0.00  0.00    -0.274 OA
ATOM      8  N   UNL     1       8.342   3.458  24.350  0.00  0.00    -0.296 N 
ATOM      9  C   UNL     1       8.251   4.314  23.172  0.00  0.00    +0.108 C 
ATOM     10  C   UNL     1       6.959   5.139  23.087  0.00  0.00    +0.019 C 
ATOM     11  C   UNL     1       5.714   4.420  23.615  0.00  0.00    +0.004 C 
ATOM     12  C   UNL     1       5.544   4.575  25.138  0.00  0.00    +0.032 C 
BRANCH   8  13
ATOM     13  C   UNL     1       9.459   2.497  24.370  0.00  0.00    +0.143 C 
BRANCH  13  14
ATOM     14  C   UNL     1       9.144   1.083  23.923  0.00  0.00    -0.030 A 
ATOM     15  C   UNL     1       9.768  -0.039  24.487  0.00  0.00    +0.006 A 
ATOM     16  C   UNL     1       9.371  -1.345  24.130  0.00  0.00    +0.009 A 
ATOM     17  C   UNL     1       8.325  -1.571  23.220  0.00  0.00    -0.018 A 
ATOM     18  C   UNL     1       7.788  -0.435  22.596  0.00  0.00    +0.009 A 
ATOM     19  C   UNL     1       8.204   0.860  22.919  0.00  0.00    +0.006 A 
BRANCH  17  20
ATOM     20  C   UNL     1       7.725  -2.909  22.970  0.00  0.00    -0.018 A 
ATOM     21  C   UNL     1       6.641  -3.078  22.088  0.00  0.00    +0.008 A 
ATOM     22  C   UNL     1       6.183  -4.352  21.726  0.00  0.00    +0.001 A 
ATOM     23  C   UNL     1       6.799  -5.491  22.234  0.00  0.00    +0.000 A 
ATOM     24  C   UNL     1       7.851  -5.357  23.132  0.00  0.00    +0.001 A 
ATOM     25  C   UNL     1       8.292  -4.083  23.506  0.00  0.00    +0.008 A 
ENDBRANCH  17  20
ENDBRANCH  13  14
ENDBRANCH   8  13
ENDBRANCH   2   5
BRANCH   1  26
ATOM     26  C   UNL     1       5.795   0.160  26.966  0.00  0.00    +0.096 C 
ATOM     27  C   UNL     1       6.154  -0.650  25.944  0.00  0.00    +0.036 C 
BRANCH  27  28
ATOM     28  C   UNL     1       5.937  -2.097  25.902  0.00  0.00    -0.022 A 
ATOM     29  C   UNL     1       6.785  -3.012  26.520  0.00  0.00    +0.019 A 
ATOM     30  C   UNL     1       6.518  -4.388  26.445  0.00  0.00    +0.018 A 
ATOM     31  C   UNL     1       5.375  -4.866  25.773  0.00  0.00    -0.027 A 
ATOM     32  C   UNL     1       4.520  -3.927  25.174  0.00  0.00    +0.005 A 
ATOM     33  C   UNL     1       4.802  -2.562  25.229  0.00  0.00    +0.008 A 
BRANCH  30  34
ATOM     34  C   UNL     1       7.499  -5.282  27.095  0.00  0.00    +0.259 C 
ATOM     35  O   UNL     1       7.252  -5.851  28.153  0.00  0.00    -0.296 OA
ENDBRANCH  30  34
BRANCH  31  36
ATOM     36  C   UNL     1       5.018  -6.330  25.656  0.00  0.00    +0.156 C 
BRANCH  36  37
ATOM     37  C   UNL     1       4.193  -6.843  26.815  0.00  0.00    +0.309 C 
ATOM     38  O   UNL     1       2.978  -6.712  26.885  0.00  0.00    -0.251 OA
BRANCH  37  39
ATOM     39  O   UNL     1       4.911  -7.446  27.787  0.00  0.00    -0.480 OA
ATOM     40  H   UNL     1       4.388  -7.616  28.611  0.00  0.00    +0.295 HD
ENDBRANCH  37  39
ENDBRANCH  36  37
ENDBRANCH  31  36
ENDBRANCH  27  28
BRANCH  26  43
ATOM     41  C   UNL     1       2.690  -0.343  28.984  0.00  0.00    +0.109 C 
ATOM     42  C   UNL     1       3.525  -0.011  27.775  0.00  0.00    +0.214 C 
ATOM     43  N   UNL     1       4.890  -0.205  27.959  0.00  0.00    -0.282 N 
ATOM     44  H   UNL     1       5.184   0.093  28.887  0.00  0.00    +0.155 HD
ATOM     45  O   UNL     1       2.997   0.388  26.740  0.00  0.00    -0.276 OA
ENDBRANCH  26  43
ENDBRANCH   1  26
TORSDOF 11
ENDMDL
MODEL 3
REMARK VINA RESULT:      -6.9      3.425      8.778
REMARK  Name = 
REMARK  12 active torsions:
REMARK  status: ('A' for Active; 'I' for Inactive)
REMARK    1  A    between atoms: C_1  and  C_2
REMARK    2  A    between atoms: N_4  and  C_5
REMARK    3  A    between atoms: C_5  and  C_19
REMARK    4  A    between atoms: C_6  and  C_7
REMARK    5  A    between atoms: C_10  and  C_11
REMARK    6  A    between atoms: C_11  and  C_12
REMARK    7  A    between atoms: C_12  and  O_13
REMARK    8  A    between atoms: C_15  and  C_16
REMARK    9  A    between atoms: N_21  and  C_22
REMARK   10  A    between atoms: N_28  and  C_29
REMARK   11  A    between atoms: C_29  and  C_30
REMARK   12  A    between atoms: C_33  and  C_36
REMARK                            x       y       z     vdW  Elec       q    Type
REMARK                         _______ _______ _______ _____ _____    ______ ____
ROOT
ATOM      1  C   UNL     1       8.479  -1.159  22.800  0.00  0.00    +0.259 C 
ATOM      2  N   UNL     1       7.413  -2.025  22.758  0.00  0.00    -0.299 N 
ATOM      3  H   UNL     1       6.470  -1.704  22.905  0.00  0.00    +0.150 HD
ATOM      4  O   UNL     1       9.651  -1.524  22.848  0.00  0.00    -0.269 OA
ENDROOT
BRANCH   2   5
ATOM      5  C   UNL     1       7.574  -3.462  22.513  0.00  0.00    +0.159 C 
ATOM      6  C   UNL     1       7.923  -4.243  23.795  0.00  0.00    +0.236 C 
ATOM      7  O   UNL     1       8.623  -5.255  23.756  0.00  0.00    -0.274 OA
ATOM      8  N   UNL     1       7.074  -3.945  24.874  0.00  0.00    -0.296 N 
ATOM      9  C   UNL     1       5.998  -4.909  25.082  0.00  0.00    +0.108 C 
ATOM     10  C   UNL     1       5.249  -5.306  23.803  0.00  0.00    +0.019 C 
ATOM     11  C   UNL     1       5.080  -4.169  22.790  0.00  0.00    +0.004 C 
ATOM     12  C   UNL     1       6.298  -4.022  21.859  0.00  0.00    +0.032 C 
BRANCH   8  13
ATOM     13  C   UNL     1       7.681  -3.377  26.091  0.00  0.00    +0.143 C 
BRANCH  13  14
ATOM     14  C   UNL     1       7.489  -1.890  26.313  0.00  0.00    -0.030 A 
ATOM     15  C   UNL     1       8.533  -1.053  26.735  0.00  0.00    +0.006 A 
ATOM     16  C   UNL     1       8.351   0.343  26.823  0.00  0.00    +0.009 A 
ATOM     17  C   UNL     1       7.134   0.949  26.469  0.00  0.00    -0.018 A 
ATOM     18  C   UNL     1       6.079   0.082  26.148  0.00  0.00    +0.009 A 
ATOM     19  C   UNL     1       6.243  -1.305  26.097  0.00  0.00    +0.006 A 
BRANCH  17  20
ATOM     20  C   UNL     1       6.953   2.420  26.337  0.00  0.00    -0.018 A 
ATOM     21  C   UNL     1       5.844   3.080  26.900  0.00  0.00    +0.008 A 
ATOM     22  C   UNL     1       5.756   4.478  26.919  0.00  0.00    +0.001 A 
ATOM     23  C   UNL     1       6.777   5.254  26.378  0.00  0.00    +0.000 A 
ATOM     24  C   UNL     1       7.868   4.631  25.786  0.00  0.00    +0.001 A 
ATOM     25  C   UNL     1       7.943   3.234  25.752  0.00  0.00    +0.008 A 
ENDBRANCH  17  20
ENDBRANCH  13  14
ENDBRANCH   8  13
ENDBRANCH   2   5
BRANCH   1  26
ATOM     26  C   UNL     1       8.161   0.317  22.870  0.00  0.00    +0.096 C 
ATOM     27  C   UNL     1       7.056   0.829  22.281  0.00  0.00    +0.036 C 
BRANCH  27  28
ATOM     28  C   UNL     1       6.505   2.160  22.542  0.00  0.00    -0.022 A 
ATOM     29  C   UNL     1       7.114   3.335  22.108  0.00  0.00    +0.019 A 
ATOM     30  C   UNL     1       6.532   4.580  22.388  0.00  0.00    +0.018 A 
ATOM     31  C   UNL     1       5.309   4.665  23.083  0.00  0.00    -0.027 A 
ATOM     32  C   UNL     1       4.697   3.470  23.493  0.00  0.00    +0.005 A 
ATOM     33  C   UNL     1       5.293   2.235  23.236  0.00  0.00    +0.008 A 
BRANCH  30  34
ATOM     34  C   UNL     1       7.276   5.771  21.925  0.00  0.00    +0.259 C 
ATOM     35  O   UNL     1       8.137   6.303  22.618  0.00  0.00    -0.296 OA
ENDBRANCH  30  34
BRANCH  31  36
ATOM     36  C   UNL     1       4.618   5.968  23.414  0.00  0.00    +0.156 C 
BRANCH  36  37
ATOM     37  C   UNL     1       3.496   6.315  22.462  0.00  0.00    +0.309 C 
ATOM     38  O   UNL     1       2.312   6.210  22.752  0.00  0.00    -0.251 OA
BRANCH  37  39
ATOM     39  O   UNL     1       3.906   6.733  21.245  0.00  0.00    -0.480 OA
ATOM     40  H   UNL     1       3.160   7.009  20.654  0.00  0.00    +0.295 HD
ENDBRANCH  37  39
ENDBRANCH  36  37
ENDBRANCH  31  36
ENDBRANCH  27  28
BRANCH  26  43
ATOM     41  C   UNL     1      11.107   2.446  23.735  0.00  0.00    +0.109 C 
ATOM     42  C   UNL     1      10.099   1.758  22.852  0.00  0.00    +0.214 C 
ATOM     43  N   UNL     1       9.101   1.086  23.550  0.00  0.00    -0.282 N 
ATOM     44  H   UNL     1       9.476   0.614  24.370  0.00  0.00    +0.155 HD
ATOM     45  O   UNL     1      10.193   1.820  21.629  0.00  0.00    -0.276 OA
ENDBRANCH  26  43
ENDBRANCH   1  26
TORSDOF 11
ENDMDL
MODEL 4
REMARK VINA RESULT:      -6.7      2.731      8.426
REMARK  Name = 
REMARK  12 active torsions:
REMARK  status: ('A' for Active; 'I' for Inactive)
REMARK    1  A    between atoms: C_1  and  C_2
REMARK    2  A    between atoms: N_4  and  C_5
REMARK    3  A    between atoms: C_5  and  C_19
REMARK    4  A    between atoms: C_6  and  C_7
REMARK    5  A    between atoms: C_10  and  C_11
REMARK    6  A    between atoms: C_11  and  C_12
REMARK    7  A    between atoms: C_12  and  O_13
REMARK    8  A    between atoms: C_15  and  C_16
REMARK    9  A    between atoms: N_21  and  C_22
REMARK   10  A    between atoms: N_28  and  C_29
REMARK   11  A    between atoms: C_29  and  C_30
REMARK   12  A    between atoms: C_33  and  C_36
REMARK                            x       y       z     vdW  Elec       q    Type
REMARK                         _______ _______ _______ _____ _____    ______ ____
ROOT
ATOM      1  C   UNL     1       4.382  -1.084  26.234  0.00  0.00    +0.259 C 
ATOM      2  N   UNL     1       4.885  -2.345  26.021  0.00  0.00    -0.299 N 
ATOM      3  H   UNL     1       5.768  -2.486  25.557  0.00  0.00    +0.150 HD
ATOM      4  O   UNL     1       3.227  -0.863  26.588  0.00  0.00    -0.269 OA
ENDROOT
BRANCH   2   5
ATOM      5  C   UNL     1       4.173  -3.558  26.437  0.00  0.00    +0.159 C 
ATOM      6  C   UNL     1       4.502  -4.770  25.542  0.00  0.00    +0.236 C 
ATOM      7  O   UNL     1       3.671  -5.653  25.334  0.00  0.00    -0.274 OA
ATOM      8  N   UNL     1       5.881  -4.960  25.351  0.00  0.00    -0.296 N 
ATOM      9  C   UNL     1       6.478  -5.970  26.219  0.00  0.00    +0.108 C 
ATOM     10  C   UNL     1       6.073  -5.855  27.695  0.00  0.00    +0.019 C 
ATOM     11  C   UNL     1       5.897  -4.417  28.193  0.00  0.00    +0.004 C 
ATOM     12  C   UNL     1       4.489  -3.863  27.912  0.00  0.00    +0.032 C 
BRANCH   8  13
ATOM     13  C   UNL     1       6.400  -4.898  23.973  0.00  0.00    +0.143 C 
BRANCH  13  14
ATOM     14  C   UNL     1       7.287  -3.717  23.636  0.00  0.00    -0.030 A 
ATOM     15  C   UNL     1       6.982  -2.820  22.601  0.00  0.00    +0.006 A 
ATOM     16  C   UNL     1       7.767  -1.669  22.386  0.00  0.00    +0.009 A 
ATOM     17  C   UNL     1       8.863  -1.363  23.210  0.00  0.00    -0.018 A 
ATOM     18  C   UNL     1       9.207  -2.326  24.171  0.00  0.00    +0.009 A 
ATOM     19  C   UNL     1       8.454  -3.489  24.362  0.00  0.00    +0.006 A 
BRANCH  17  20
ATOM     20  C   UNL     1       9.591  -0.066  23.167  0.00  0.00    -0.018 A 
ATOM     21  C   UNL     1       9.705   0.676  21.976  0.00  0.00    +0.008 A 
ATOM     22  C   UNL     1      10.244   1.969  21.967  0.00  0.00    +0.001 A 
ATOM     23  C   UNL     1      10.681   2.556  23.151  0.00  0.00    +0.000 A 
ATOM     24  C   UNL     1      10.612   1.837  24.337  0.00  0.00    +0.001 A 
ATOM     25  C   UNL     1      10.091   0.538  24.338  0.00  0.00    +0.008 A 
ENDBRANCH  17  20
ENDBRANCH  13  14
ENDBRANCH   8  13
ENDBRANCH   2   5
BRANCH   1  26
ATOM     26  C   UNL     1       5.298   0.080  25.931  0.00  0.00    +0.096 C 
ATOM     27  C   UNL     1       5.680   0.366  24.665  0.00  0.00    +0.036 C 
BRANCH  27  28
ATOM     28  C   UNL     1       6.300   1.622  24.237  0.00  0.00    -0.022 A 
ATOM     29  C   UNL     1       6.930   2.497  25.117  0.00  0.00    +0.019 A 
ATOM     30  C   UNL     1       7.509   3.684  24.643  0.00  0.00    +0.018 A 
ATOM     31  C   UNL     1       7.490   3.997  23.269  0.00  0.00    -0.027 A 
ATOM     32  C   UNL     1       6.870   3.092  22.393  0.00  0.00    +0.005 A 
ATOM     33  C   UNL     1       6.273   1.926  22.872  0.00  0.00    +0.008 A 
BRANCH  30  34
ATOM     34  C   UNL     1       8.116   4.569  25.660  0.00  0.00    +0.259 C 
ATOM     35  O   UNL     1       7.756   4.545  26.832  0.00  0.00    -0.296 OA
ENDBRANCH  30  34
BRANCH  31  36
ATOM     36  C   UNL     1       8.098   5.251  22.684  0.00  0.00    +0.156 C 
BRANCH  36  37
ATOM     37  C   UNL     1       7.087   6.344  22.418  0.00  0.00    +0.309 C 
ATOM     38  O   UNL     1       6.344   6.796  23.280  0.00  0.00    -0.251 OA
BRANCH  37  39
ATOM     39  O   UNL     1       7.052   6.773  21.138  0.00  0.00    -0.480 OA
ATOM     40  H   UNL     1       7.684   6.289  20.547  0.00  0.00    +0.295 HD
ENDBRANCH  37  39
ENDBRANCH  36  37
ENDBRANCH  31  36
ENDBRANCH  27  28
BRANCH  26  43
ATOM     41  C   UNL     1       7.153   1.203  28.974  0.00  0.00    +0.109 C 
ATOM     42  C   UNL     1       6.886   0.412  27.720  0.00  0.00    +0.214 C 
ATOM     43  N   UNL     1       5.730   0.791  27.047  0.00  0.00    -0.282 N 
ATOM     44  H   UNL     1       4.974   0.998  27.697  0.00  0.00    +0.155 HD
ATOM     45  O   UNL     1       7.657  -0.477  27.365  0.00  0.00    -0.276 OA
ENDBRANCH  26  43
ENDBRANCH   1  26
TORSDOF 11
ENDMDL
MODEL 5
REMARK VINA RESULT:      -6.7      2.211      8.102
REMARK  Name = 
REMARK  12 active torsions:
REMARK  status: ('A' for Active; 'I' for Inactive)
REMARK    1  A    between atoms: C_1  and  C_2
REMARK    2  A    between atoms: N_4  and  C_5
REMARK    3  A    between atoms: C_5  and  C_19
REMARK    4  A    between atoms: C_6  and  C_7
REMARK    5  A    between atoms: C_10  and  C_11
REMARK    6  A    between atoms: C_11  and  C_12
REMARK    7  A    between atoms: C_12  and  O_13
REMARK    8  A    between atoms: C_15  and  C_16
REMARK    9  A    between atoms: N_21  and  C_22
REMARK   10  A    between atoms: N_28  and  C_29
REMARK   11  A    between atoms: C_29  and  C_30
REMARK   12  A    between atoms: C_33  and  C_36
REMARK                            x       y       z     vdW  Elec       q    Type
REMARK                         _______ _______ _______ _____ _____    ______ ____
ROOT
ATOM      1  C   UNL     1       3.747  -1.871  26.857  0.00  0.00    +0.259 C 
ATOM      2  N   UNL     1       4.286  -2.898  27.596  0.00  0.00    -0.299 N 
ATOM      3  H   UNL     1       5.276  -2.955  27.770  0.00  0.00    +0.150 HD
ATOM      4  O   UNL     1       2.595  -1.871  26.433  0.00  0.00    -0.269 OA
ENDROOT
BRANCH   2   5
ATOM      5  C   UNL     1       3.467  -3.974  28.164  0.00  0.00    +0.159 C 
ATOM      6  C   UNL     1       3.047  -5.015  27.107  0.00  0.00    +0.236 C 
ATOM      7  O   UNL     1       1.980  -5.620  27.197  0.00  0.00    -0.274 OA
ATOM      8  N   UNL     1       4.120  -5.473  26.323  0.00  0.00    -0.296 N 
ATOM      9  C   UNL     1       4.679  -6.751  26.751  0.00  0.00    +0.108 C 
ATOM     10  C   UNL     1       4.934  -6.857  28.261  0.00  0.00    +0.019 C 
ATOM     11  C   UNL     1       5.400  -5.553  28.916  0.00  0.00    +0.004 C 
ATOM     12  C   UNL     1       4.226  -4.644  29.323  0.00  0.00    +0.032 C 
BRANCH   8  13
ATOM     13  C   UNL     1       4.054  -5.246  24.868  0.00  0.00    +0.143 C 
BRANCH  13  14
ATOM     14  C   UNL     1       5.232  -4.526  24.242  0.00  0.00    -0.030 A 
ATOM     15  C   UNL     1       5.087  -3.660  23.149  0.00  0.00    +0.006 A 
ATOM     16  C   UNL     1       6.184  -2.919  22.661  0.00  0.00    +0.009 A 
ATOM     17  C   UNL     1       7.450  -3.001  23.263  0.00  0.00    -0.018 A 
ATOM     18  C   UNL     1       7.592  -3.948  24.287  0.00  0.00    +0.009 A 
ATOM     19  C   UNL     1       6.517  -4.713  24.748  0.00  0.00    +0.006 A 
BRANCH  17  20
ATOM     20  C   UNL     1       8.581  -2.091  22.931  0.00  0.00    -0.018 A 
ATOM     21  C   UNL     1       8.611  -1.360  21.729  0.00  0.00    +0.008 A 
ATOM     22  C   UNL     1       9.586  -0.383  21.490  0.00  0.00    +0.001 A 
ATOM     23  C   UNL     1      10.558  -0.111  22.448  0.00  0.00    +0.000 A 
ATOM     24  C   UNL     1      10.574  -0.839  23.631  0.00  0.00    +0.001 A 
ATOM     25  C   UNL     1       9.610  -1.827  23.858  0.00  0.00    +0.008 A 
ENDBRANCH  17  20
ENDBRANCH  13  14
ENDBRANCH   8  13
ENDBRANCH   2   5
BRANCH   1  26
ATOM     26  C   UNL     1       4.670  -0.731  26.494  0.00  0.00    +0.096 C 
ATOM     27  C   UNL     1       5.864  -0.952  25.899  0.00  0.00    +0.036 C 
BRANCH  27  28
ATOM     28  C   UNL     1       6.678   0.073  25.242  0.00  0.00    -0.022 A 
ATOM     29  C   UNL     1       6.361   0.616  24.000  0.00  0.00    +0.019 A 
ATOM     30  C   UNL     1       7.182   1.599  23.425  0.00  0.00    +0.018 A 
ATOM     31  C   UNL     1       8.320   2.075  24.105  0.00  0.00    -0.027 A 
ATOM     32  C   UNL     1       8.613   1.532  25.366  0.00  0.00    +0.005 A 
ATOM     33  C   UNL     1       7.809   0.537  25.922  0.00  0.00    +0.008 A 
BRANCH  30  34
ATOM     34  C   UNL     1       6.786   2.081  22.085  0.00  0.00    +0.259 C 
ATOM     35  O   UNL     1       6.343   3.212  21.912  0.00  0.00    -0.296 OA
ENDBRANCH  30  34
BRANCH  31  36
ATOM     36  C   UNL     1       9.246   3.135  23.554  0.00  0.00    +0.156 C 
BRANCH  36  37
ATOM     37  C   UNL     1       8.828   4.544  23.909  0.00  0.00    +0.309 C 
ATOM     38  O   UNL     1       8.926   5.011  25.036  0.00  0.00    -0.251 OA
BRANCH  37  39
ATOM     39  O   UNL     1       8.312   5.249  22.879  0.00  0.00    -0.480 OA
ATOM     40  H   UNL     1       7.922   4.677  22.170  0.00  0.00    +0.295 HD
ENDBRANCH  37  39
ENDBRANCH  36  37
ENDBRANCH  31  36
ENDBRANCH  27  28
BRANCH  26  43
ATOM     41  C   UNL     1       3.833   2.388  28.374  0.00  0.00    +0.109 C 
ATOM     42  C   UNL     1       4.506   1.070  28.096  0.00  0.00    +0.214 C 
ATOM     43  N   UNL     1       4.205   0.533  26.848  0.00  0.00    -0.282 N 
ATOM     44  H   UNL     1       3.225   0.671  26.612  0.00  0.00    +0.155 HD
ATOM     45  O   UNL     1       5.250   0.559  28.929  0.00  0.00    -0.276 OA
ENDBRANCH  26  43
ENDBRANCH   1  26
TORSDOF 11
ENDMDL
MODEL 6
REMARK VINA RESULT:      -6.6      3.394      8.794
REMARK  Name = 
REMARK  12 active torsions:
REMARK  status: ('A' for Active; 'I' for Inactive)
REMARK    1  A    between atoms: C_1  and  C_2
REMARK    2  A    between atoms: N_4  and  C_5
REMARK    3  A    between atoms: C_5  and  C_19
REMARK    4  A    between atoms: C_6  and  C_7
REMARK    5  A    between atoms: C_10  and  C_11
REMARK    6  A    between atoms: C_11  and  C_12
REMARK    7  A    between atoms: C_12  and  O_13
REMARK    8  A    between atoms: C_15  and  C_16
REMARK    9  A    between atoms: N_21  and  C_22
REMARK   10  A    between atoms: N_28  and  C_29
REMARK   11  A    between atoms: C_29  and  C_30
REMARK   12  A    between atoms: C_33  and  C_36
REMARK                            x       y       z     vdW  Elec       q    Type
REMARK                         _______ _______ _______ _____ _____    ______ ____
ROOT
ATOM      1  C   UNL     1       5.234  -1.460  25.296  0.00  0.00    +0.259 C 
ATOM      2  N   UNL     1       6.261  -2.053  24.601  0.00  0.00    -0.299 N 
ATOM      3  H   UNL     1       6.941  -1.504  24.101  0.00  0.00    +0.150 HD
ATOM      4  O   UNL     1       4.265  -2.074  25.733  0.00  0.00    -0.269 OA
ENDROOT
BRANCH   2   5
ATOM      5  C   UNL     1       6.428  -3.508  24.530  0.00  0.00    +0.159 C 
ATOM      6  C   UNL     1       7.584  -3.924  23.599  0.00  0.00    +0.236 C 
ATOM      7  O   UNL     1       7.548  -4.980  22.969  0.00  0.00    -0.274 OA
ATOM      8  N   UNL     1       8.779  -3.229  23.854  0.00  0.00    -0.296 N 
ATOM      9  C   UNL     1       9.738  -3.957  24.679  0.00  0.00    +0.108 C 
ATOM     10  C   UNL     1       9.130  -4.612  25.927  0.00  0.00    +0.019 C 
ATOM     11  C   UNL     1       8.008  -3.802  26.583  0.00  0.00    +0.004 C 
ATOM     12  C   UNL     1       6.633  -4.075  25.946  0.00  0.00    +0.032 C 
BRANCH   8  13
ATOM     13  C   UNL     1       9.345  -2.412  22.766  0.00  0.00    +0.143 C 
BRANCH  13  14
ATOM     14  C   UNL     1       9.468  -0.924  23.030  0.00  0.00    -0.030 A 
ATOM     15  C   UNL     1       9.579  -0.398  24.325  0.00  0.00    +0.006 A 
ATOM     16  C   UNL     1       9.805   0.979  24.530  0.00  0.00    +0.009 A 
ATOM     17  C   UNL     1       9.952   1.867  23.452  0.00  0.00    -0.018 A 
ATOM     18  C   UNL     1       9.737   1.334  22.173  0.00  0.00    +0.009 A 
ATOM     19  C   UNL     1       9.473  -0.023  21.967  0.00  0.00    +0.006 A 
BRANCH  17  20
ATOM     20  C   UNL     1      10.402   3.278  23.602  0.00  0.00    -0.018 A 
ATOM     21  C   UNL     1      11.722   3.667  23.307  0.00  0.00    +0.008 A 
ATOM     22  C   UNL     1      12.102   5.016  23.289  0.00  0.00    +0.001 A 
ATOM     23  C   UNL     1      11.170   6.012  23.563  0.00  0.00    +0.000 A 
ATOM     24  C   UNL     1       9.867   5.658  23.890  0.00  0.00    +0.001 A 
ATOM     25  C   UNL     1       9.497   4.309  23.926  0.00  0.00    +0.008 A 
ENDBRANCH  17  20
ENDBRANCH  13  14
ENDBRANCH   8  13
ENDBRANCH   2   5
BRANCH   1  26
ATOM     26  C   UNL     1       5.287   0.043  25.448  0.00  0.00    +0.096 C 
ATOM     27  C   UNL     1       6.199   0.788  24.783  0.00  0.00    +0.036 C 
BRANCH  27  28
ATOM     28  C   UNL     1       6.142   2.242  24.623  0.00  0.00    -0.022 A 
ATOM     29  C   UNL     1       6.520   3.133  25.624  0.00  0.00    +0.019 A 
ATOM     30  C   UNL     1       6.445   4.517  25.406  0.00  0.00    +0.018 A 
ATOM     31  C   UNL     1       6.016   5.030  24.166  0.00  0.00    -0.027 A 
ATOM     32  C   UNL     1       5.659   4.117  23.160  0.00  0.00    +0.005 A 
ATOM     33  C   UNL     1       5.711   2.742  23.389  0.00  0.00    +0.008 A 
BRANCH  30  34
ATOM     34  C   UNL     1       6.826   5.381  26.543  0.00  0.00    +0.259 C 
ATOM     35  O   UNL     1       7.985   5.452  26.939  0.00  0.00    -0.296 OA
ENDBRANCH  30  34
BRANCH  31  36
ATOM     36  C   UNL     1       5.916   6.506  23.854  0.00  0.00    +0.156 C 
BRANCH  36  37
ATOM     37  C   UNL     1       6.164   6.833  22.399  0.00  0.00    +0.309 C 
ATOM     38  O   UNL     1       7.281   6.873  21.900  0.00  0.00    -0.251 OA
BRANCH  37  39
ATOM     39  O   UNL     1       5.047   7.103  21.689  0.00  0.00    -0.480 OA
ATOM     40  H   UNL     1       4.992   6.596  20.840  0.00  0.00    +0.295 HD
ENDBRANCH  37  39
ENDBRANCH  36  37
ENDBRANCH  31  36
ENDBRANCH  27  28
BRANCH  26  43
ATOM     41  C   UNL     1       3.519   1.177  28.539  0.00  0.00    +0.109 C 
ATOM     42  C   UNL     1       4.667   0.701  27.689  0.00  0.00    +0.214 C 
ATOM     43  N   UNL     1       4.358   0.574  26.338  0.00  0.00    -0.282 N 
ATOM     44  H   UNL     1       3.424   0.189  26.207  0.00  0.00    +0.155 HD
ATOM     45  O   UNL     1       5.762   0.463  28.192  0.00  0.00    -0.276 OA
ENDBRANCH  26  43
ENDBRANCH   1  26
TORSDOF 11
ENDMDL
MODEL 7
REMARK VINA RESULT:      -6.5      2.604      8.293
REMARK  Name = 
REMARK  12 active torsions:
REMARK  status: ('A' for Active; 'I' for Inactive)
REMARK    1  A    between atoms: C_1  and  C_2
REMARK    2  A    between atoms: N_4  and  C_5
REMARK    3  A    between atoms: C_5  and  C_19
REMARK    4  A    between atoms: C_6  and  C_7
REMARK    5  A    between atoms: C_10  and  C_11
REMARK    6  A    between atoms: C_11  and  C_12
REMARK    7  A    between atoms: C_12  and  O_13
REMARK    8  A    between atoms: C_15  and  C_16
REMARK    9  A    between atoms: N_21  and  C_22
REMARK   10  A    between atoms: N_28  and  C_29
REMARK   11  A    between atoms: C_29  and  C_30
REMARK   12  A    between atoms: C_33  and  C_36
REMARK                            x       y       z     vdW  Elec       q    Type
REMARK                         _______ _______ _______ _____ _____    ______ ____
ROOT
ATOM      1  C   UNL     1       4.241  -2.162  26.142  0.00  0.00    +0.259 C 
ATOM      2  N   UNL     1       4.961  -3.223  26.637  0.00  0.00    -0.299 N 
ATOM      3  H   UNL     1       5.931  -3.126  26.889  0.00  0.00    +0.150 HD
ATOM      4  O   UNL     1       3.136  -2.276  25.617  0.00  0.00    -0.269 OA
ENDROOT
BRANCH   2   5
ATOM      5  C   UNL     1       4.378  -4.556  26.817  0.00  0.00    +0.159 C 
ATOM      6  C   UNL     1       5.391  -5.685  26.540  0.00  0.00    +0.236 C 
ATOM      7  O   UNL     1       5.030  -6.770  26.086  0.00  0.00    -0.274 OA
ATOM      8  N   UNL     1       6.615  -5.507  27.207  0.00  0.00    -0.296 N 
ATOM      9  C   UNL     1       6.744  -6.267  28.447  0.00  0.00    +0.108 C 
ATOM     10  C   UNL     1       5.522  -6.180  29.372  0.00  0.00    +0.019 C 
ATOM     11  C   UNL     1       4.824  -4.816  29.372  0.00  0.00    +0.004 C 
ATOM     12  C   UNL     1       3.795  -4.678  28.236  0.00  0.00    +0.032 C 
BRANCH   8  13
ATOM     13  C   UNL     1       7.834  -5.389  26.388  0.00  0.00    +0.143 C 
BRANCH  13  14
ATOM     14  C   UNL     1       8.082  -4.044  25.734  0.00  0.00    -0.030 A 
ATOM     15  C   UNL     1       8.519  -2.926  26.458  0.00  0.00    +0.006 A 
ATOM     16  C   UNL     1       8.849  -1.722  25.802  0.00  0.00    +0.009 A 
ATOM     17  C   UNL     1       8.777  -1.604  24.404  0.00  0.00    -0.018 A 
ATOM     18  C   UNL     1       8.242  -2.702  23.714  0.00  0.00    +0.009 A 
ATOM     19  C   UNL     1       7.877  -3.884  24.365  0.00  0.00    +0.006 A 
BRANCH  17  20
ATOM     20  C   UNL     1       9.312  -0.440  23.646  0.00  0.00    -0.018 A 
ATOM     21  C   UNL     1       8.790  -0.075  22.391  0.00  0.00    +0.008 A 
ATOM     22  C   UNL     1       9.177   1.112  21.754  0.00  0.00    +0.001 A 
ATOM     23  C   UNL     1      10.095   1.966  22.357  0.00  0.00    +0.000 A 
ATOM     24  C   UNL     1      10.653   1.617  23.580  0.00  0.00    +0.001 A 
ATOM     25  C   UNL     1      10.278   0.421  24.204  0.00  0.00    +0.008 A 
ENDBRANCH  17  20
ENDBRANCH  13  14
ENDBRANCH   8  13
ENDBRANCH   2   5
BRANCH   1  26
ATOM     26  C   UNL     1       4.903  -0.804  26.186  0.00  0.00    +0.096 C 
ATOM     27  C   UNL     1       5.722  -0.386  25.194  0.00  0.00    +0.036 C 
BRANCH  27  28
ATOM     28  C   UNL     1       6.159   0.997  24.991  0.00  0.00    -0.022 A 
ATOM     29  C   UNL     1       5.579   1.848  24.055  0.00  0.00    +0.019 A 
ATOM     30  C   UNL     1       6.043   3.166  23.912  0.00  0.00    +0.018 A 
ATOM     31  C   UNL     1       7.078   3.658  24.731  0.00  0.00    -0.027 A 
ATOM     32  C   UNL     1       7.637   2.792  25.684  0.00  0.00    +0.005 A 
ATOM     33  C   UNL     1       7.191   1.476  25.805  0.00  0.00    +0.008 A 
BRANCH  30  34
ATOM     34  C   UNL     1       5.394   3.979  22.862  0.00  0.00    +0.259 C 
ATOM     35  O   UNL     1       4.445   3.553  22.211  0.00  0.00    -0.296 OA
ENDBRANCH  30  34
BRANCH  31  36
ATOM     36  C   UNL     1       7.625   5.065  24.641  0.00  0.00    +0.156 C 
BRANCH  36  37
ATOM     37  C   UNL     1       8.829   5.187  23.735  0.00  0.00    +0.309 C 
ATOM     38  O   UNL     1       9.982   5.066  24.128  0.00  0.00    -0.251 OA
BRANCH  37  39
ATOM     39  O   UNL     1       8.532   5.464  22.447  0.00  0.00    -0.480 OA
ATOM     40  H   UNL     1       9.324   5.453  21.851  0.00  0.00    +0.295 HD
ENDBRANCH  37  39
ENDBRANCH  36  37
ENDBRANCH  31  36
ENDBRANCH  27  28
BRANCH  26  43
ATOM     41  C   UNL     1       3.467   1.657  28.603  0.00  0.00    +0.109 C 
ATOM     42  C   UNL     1       3.561   0.838  27.343  0.00  0.00    +0.214 C 
ATOM     43  N   UNL     1       4.627  -0.056  27.326  0.00  0.00    -0.282 N 
ATOM     44  H   UNL     1       5.462   0.358  27.737  0.00  0.00    +0.155 HD
ATOM     45  O   UNL     1       2.739   0.981  26.441  0.00  0.00    -0.276 OA
ENDBRANCH  26  43
ENDBRANCH   1  26
TORSDOF 11
ENDMDL
MODEL 8
REMARK VINA RESULT:      -6.3      1.170      2.193
REMARK  Name = 
REMARK  12 active torsions:
REMARK  status: ('A' for Active; 'I' for Inactive)
REMARK    1  A    between atoms: C_1  and  C_2
REMARK    2  A    between atoms: N_4  and  C_5
REMARK    3  A    between atoms: C_5  and  C_19
REMARK    4  A    between atoms: C_6  and  C_7
REMARK    5  A    between atoms: C_10  and  C_11
REMARK    6  A    between atoms: C_11  and  C_12
REMARK    7  A    between atoms: C_12  and  O_13
REMARK    8  A    between atoms: C_15  and  C_16
REMARK    9  A    between atoms: N_21  and  C_22
REMARK   10  A    between atoms: N_28  and  C_29
REMARK   11  A    between atoms: C_29  and  C_30
REMARK   12  A    between atoms: C_33  and  C_36
REMARK                            x       y       z     vdW  Elec       q    Type
REMARK                         _______ _______ _______ _____ _____    ______ ____
ROOT
ATOM      1  C   UNL     1       8.164  -1.357  26.305  0.00  0.00    +0.259 C 
ATOM      2  N   UNL     1       8.502  -1.305  24.973  0.00  0.00    -0.299 N 
ATOM      3  H   UNL     1       7.891  -1.675  24.263  0.00  0.00    +0.150 HD
ATOM      4  O   UNL     1       8.955  -1.127  27.216  0.00  0.00    -0.269 OA
ENDROOT
BRANCH   2   5
ATOM      5  C   UNL     1       9.764  -0.726  24.502  0.00  0.00    +0.159 C 
ATOM      6  C   UNL     1      10.123  -1.180  23.072  0.00  0.00    +0.236 C 
ATOM      7  O   UNL     1      11.294  -1.302  22.717  0.00  0.00    -0.274 OA
ATOM      8  N   UNL     1       9.060  -1.039  22.163  0.00  0.00    -0.296 N 
ATOM      9  C   UNL     1       9.121   0.168  21.345  0.00  0.00    +0.108 C 
ATOM     10  C   UNL     1       9.431   1.450  22.130  0.00  0.00    +0.019 C 
ATOM     11  C   UNL     1       8.814   1.499  23.531  0.00  0.00    +0.004 C 
ATOM     12  C   UNL     1       9.694   0.809  24.589  0.00  0.00    +0.032 C 
BRANCH   8  13
ATOM     13  C   UNL     1       8.562  -2.253  21.494  0.00  0.00    +0.143 C 
BRANCH  13  14
ATOM     14  C   UNL     1       7.496  -3.042  22.229  0.00  0.00    -0.030 A 
ATOM     15  C   UNL     1       6.183  -2.574  22.377  0.00  0.00    +0.006 A 
ATOM     16  C   UNL     1       5.188  -3.381  22.966  0.00  0.00    +0.009 A 
ATOM     17  C   UNL     1       5.465  -4.687  23.403  0.00  0.00    -0.018 A 
ATOM     18  C   UNL     1       6.806  -5.093  23.336  0.00  0.00    +0.009 A 
ATOM     19  C   UNL     1       7.804  -4.281  22.788  0.00  0.00    +0.006 A 
BRANCH  17  20
ATOM     20  C   UNL     1       4.417  -5.653  23.831  0.00  0.00    -0.018 A 
ATOM     21  C   UNL     1       4.665  -6.615  24.828  0.00  0.00    +0.008 A 
ATOM     22  C   UNL     1       3.637  -7.413  25.348  0.00  0.00    +0.001 A 
ATOM     23  C   UNL     1       2.333  -7.268  24.885  0.00  0.00    +0.000 A 
ATOM     24  C   UNL     1       2.063  -6.349  23.878  0.00  0.00    +0.001 A 
ATOM     25  C   UNL     1       3.096  -5.568  23.349  0.00  0.00    +0.008 A 
ENDBRANCH  17  20
ENDBRANCH  13  14
ENDBRANCH   8  13
ENDBRANCH   2   5
BRANCH   1  26
ATOM     26  C   UNL     1       6.760  -1.802  26.639  0.00  0.00    +0.096 C 
ATOM     27  C   UNL     1       6.377  -3.092  26.502  0.00  0.00    +0.036 C 
BRANCH  27  28
ATOM     28  C   UNL     1       5.162  -3.674  27.075  0.00  0.00    -0.022 A 
ATOM     29  C   UNL     1       3.894  -3.474  26.535  0.00  0.00    +0.019 A 
ATOM     30  C   UNL     1       2.769  -4.063  27.131  0.00  0.00    +0.018 A 
ATOM     31  C   UNL     1       2.902  -4.891  28.263  0.00  0.00    -0.027 A 
ATOM     32  C   UNL     1       4.190  -5.100  28.782  0.00  0.00    +0.005 A 
ATOM     33  C   UNL     1       5.303  -4.491  28.202  0.00  0.00    +0.008 A 
BRANCH  30  34
ATOM     34  C   UNL     1       1.462  -3.756  26.511  0.00  0.00    +0.259 C 
ATOM     35  O   UNL     1       1.333  -2.848  25.696  0.00  0.00    -0.296 OA
ENDBRANCH  30  34
BRANCH  31  36
ATOM     36  C   UNL     1       1.739  -5.565  28.955  0.00  0.00    +0.156 C 
BRANCH  36  37
ATOM     37  C   UNL     1       1.436  -6.945  28.416  0.00  0.00    +0.309 C 
ATOM     38  O   UNL     1       0.443  -7.203  27.748  0.00  0.00    -0.251 OA
BRANCH  37  39
ATOM     39  O   UNL     1       2.344  -7.887  28.751  0.00  0.00    -0.480 OA
ATOM     40  H   UNL     1       3.089  -7.534  29.302  0.00  0.00    +0.295 HD
ENDBRANCH  37  39
ENDBRANCH  36  37
ENDBRANCH  31  36
ENDBRANCH  27  28
BRANCH  26  43
ATOM     41  C   UNL     1       4.484   1.160  26.739  0.00  0.00    +0.109 C 
ATOM     42  C   UNL     1       5.275   0.033  26.128  0.00  0.00    +0.214 C 
ATOM     43  N   UNL     1       5.908  -0.784  27.058  0.00  0.00    -0.282 N 
ATOM     44  H   UNL     1       6.294  -0.240  27.827  0.00  0.00    +0.155 HD
ATOM     45  O   UNL     1       5.320  -0.110  24.909  0.00  0.00    -0.276 OA
ENDBRANCH  26  43
ENDBRANCH   1  26
TORSDOF 11
ENDMDL
MODEL 9
REMARK VINA RESULT:      -6.2      2.011      4.410
REMARK  Name = 
REMARK  12 active torsions:
REMARK  status: ('A' for Active; 'I' for Inactive)
REMARK    1  A    between atoms: C_1  and  C_2
REMARK    2  A    between atoms: N_4  and  C_5
REMARK    3  A    between atoms: C_5  and  C_19
REMARK    4  A    between atoms: C_6  and  C_7
REMARK    5  A    between atoms: C_10  and  C_11
REMARK    6  A    between atoms: C_11  and  C_12
REMARK    7  A    between atoms: C_12  and  O_13
REMARK    8  A    between atoms: C_15  and  C_16
REMARK    9  A    between atoms: N_21  and  C_22
REMARK   10  A    between atoms: N_28  and  C_29
REMARK   11  A    between atoms: C_29  and  C_30
REMARK   12  A    between atoms: C_33  and  C_36
REMARK                            x       y       z     vdW  Elec       q    Type
REMARK                         _______ _______ _______ _____ _____    ______ ____
ROOT
ATOM      1  C   UNL     1       7.618  -2.419  22.677  0.00  0.00    +0.259 C 
ATOM      2  N   UNL     1       7.858  -1.126  23.078  0.00  0.00    -0.299 N 
ATOM      3  H   UNL     1       7.449  -0.754  23.919  0.00  0.00    +0.150 HD
ATOM      4  O   UNL     1       7.906  -2.851  21.564  0.00  0.00    -0.269 OA
ENDROOT
BRANCH   2   5
ATOM      5  C   UNL     1       8.706  -0.208  22.311  0.00  0.00    +0.159 C 
ATOM      6  C   UNL     1       8.349   1.271  22.560  0.00  0.00    +0.236 C 
ATOM      7  O   UNL     1       8.493   2.119  21.680  0.00  0.00    -0.274 OA
ATOM      8  N   UNL     1       8.251   1.596  23.923  0.00  0.00    -0.296 N 
ATOM      9  C   UNL     1       9.443   2.225  24.482  0.00  0.00    +0.108 C 
ATOM     10  C   UNL     1      10.759   1.530  24.110  0.00  0.00    +0.019 C 
ATOM     11  C   UNL     1      10.665   0.004  24.019  0.00  0.00    +0.004 C 
ATOM     12  C   UNL     1      10.186  -0.477  22.637  0.00  0.00    +0.032 C 
BRANCH   8  13
ATOM     13  C   UNL     1       6.957   2.097  24.420  0.00  0.00    +0.143 C 
BRANCH  13  14
ATOM     14  C   UNL     1       6.187   1.182  25.350  0.00  0.00    -0.030 A 
ATOM     15  C   UNL     1       4.888   1.477  25.789  0.00  0.00    +0.006 A 
ATOM     16  C   UNL     1       4.157   0.551  26.562  0.00  0.00    +0.009 A 
ATOM     17  C   UNL     1       4.687  -0.705  26.899  0.00  0.00    -0.018 A 
ATOM     18  C   UNL     1       6.022  -0.934  26.534  0.00  0.00    +0.009 A 
ATOM     19  C   UNL     1       6.765  -0.003  25.801  0.00  0.00    +0.006 A 
BRANCH  17  20
ATOM     20  C   UNL     1       3.890  -1.796  27.523  0.00  0.00    -0.018 A 
ATOM     21  C   UNL     1       4.328  -2.456  28.686  0.00  0.00    +0.008 A 
ATOM     22  C   UNL     1       3.506  -3.365  29.365  0.00  0.00    +0.001 A 
ATOM     23  C   UNL     1       2.223  -3.636  28.900  0.00  0.00    +0.000 A 
ATOM     24  C   UNL     1       1.774  -3.024  27.736  0.00  0.00    +0.001 A 
ATOM     25  C   UNL     1       2.606  -2.132  27.050  0.00  0.00    +0.008 A 
ENDBRANCH  17  20
ENDBRANCH  13  14
ENDBRANCH   8  13
ENDBRANCH   2   5
BRANCH   1  26
ATOM     26  C   UNL     1       6.886  -3.314  23.651  0.00  0.00    +0.096 C 
ATOM     27  C   UNL     1       5.586  -3.105  23.961  0.00  0.00    +0.036 C 
BRANCH  27  28
ATOM     28  C   UNL     1       4.718  -4.070  24.638  0.00  0.00    -0.022 A 
ATOM     29  C   UNL     1       5.082  -4.731  25.808  0.00  0.00    +0.019 A 
ATOM     30  C   UNL     1       4.201  -5.643  26.410  0.00  0.00    +0.018 A 
ATOM     31  C   UNL     1       2.926  -5.883  25.862  0.00  0.00    -0.027 A 
ATOM     32  C   UNL     1       2.567  -5.192  24.694  0.00  0.00    +0.005 A 
ATOM     33  C   UNL     1       3.455  -4.306  24.084  0.00  0.00    +0.008 A 
BRANCH  30  34
ATOM     34  C   UNL     1       4.695  -6.327  27.624  0.00  0.00    +0.259 C 
ATOM     35  O   UNL     1       5.611  -7.142  27.578  0.00  0.00    -0.296 OA
ENDBRANCH  30  34
BRANCH  31  36
ATOM     36  C   UNL     1       1.922  -6.844  26.457  0.00  0.00    +0.156 C 
BRANCH  36  37
ATOM     37  C   UNL     1       1.787  -8.134  25.679  0.00  0.00    +0.309 C 
ATOM     38  O   UNL     1       0.715  -8.689  25.479  0.00  0.00    -0.251 OA
BRANCH  37  39
ATOM     39  O   UNL     1       2.957  -8.642  25.235  0.00  0.00    -0.480 OA
ATOM     40  H   UNL     1       2.867  -9.146  24.387  0.00  0.00    +0.295 HD
ENDBRANCH  37  39
ENDBRANCH  36  37
ENDBRANCH  31  36
ENDBRANCH  27  28
BRANCH  26  43
ATOM     41  C   UNL     1       9.489  -5.209  25.548  0.00  0.00    +0.109 C 
ATOM     42  C   UNL     1       8.663  -4.022  25.127  0.00  0.00    +0.214 C 
ATOM     43  N   UNL     1       7.661  -4.326  24.211  0.00  0.00    -0.282 N 
ATOM     44  H   UNL     1       7.983  -5.001  23.521  0.00  0.00    +0.155 HD
ATOM     45  O   UNL     1       8.891  -2.906  25.586  0.00  0.00    -0.276 OA
ENDBRANCH  26  43
ENDBRANCH   1  26
TORSDOF 11
ENDMDL
