MODEL 1
REMARK VINA RESULT:      -4.6      0.000      0.000
REMARK  Name = 
REMARK  4 active torsions:
REMARK  status: ('A' for Active; 'I' for Inactive)
REMARK    1  A    between atoms: C_2  and  C_3
REMARK    2  A    between atoms: C_2  and  C_4
REMARK    3  A    between atoms: C_2  and  C_11
REMARK    4  A    between atoms: C_4  and  C_5
REMARK                            x       y       z     vdW  Elec       q    Type
REMARK                         _______ _______ _______ _____ _____    ______ ____
ROOT
ATOM      1  C   UNL     1       9.530  -2.577  24.035  0.00  0.00    +0.051 A 
ATOM      2  N   UNL     1      10.074  -3.833  24.254  0.00  0.00    -0.230 NA
ATOM      3  C   UNL     1       9.418  -4.460  25.198  0.00  0.00    +0.156 A 
ATOM      4  N   UNL     1       9.733  -5.697  25.612  0.00  0.00    -0.338 N 
ATOM      5  H   UNL     1      10.331  -6.232  24.993  0.00  0.00    +0.144 HD
ATOM      6  H   UNL     1       9.032  -6.236  26.101  0.00  0.00    +0.144 HD
ATOM      7  S   UNL     1       8.098  -3.598  25.872  0.00  0.00    -0.061 S 
ATOM      8  C   UNL     1       8.443  -2.279  24.835  0.00  0.00    +0.071 A 
ENDROOT
BRANCH   1   9
ATOM      9  C   UNL     1      10.186  -1.666  23.045  0.00  0.00    +0.066 C 
BRANCH   9  10
ATOM     10  C   UNL     1       9.645  -0.231  23.026  0.00  0.00    +0.055 C 
ATOM     11  C   UNL     1       9.507   0.363  21.624  0.00  0.00    +0.015 C 
BRANCH  10  12
ATOM     12  C   UNL     1      10.569   0.676  23.819  0.00  0.00    +0.226 C 
ATOM     13  O   UNL     1      10.963   0.444  24.956  0.00  0.00    -0.301 OA
ENDBRANCH  10  12
ENDBRANCH   9  10
ENDBRANCH   1   9
TORSDOF 3
ENDMDL
MODEL 2
REMARK VINA RESULT:      -4.4      3.502      5.031
REMARK  Name = 
REMARK  4 active torsions:
REMARK  status: ('A' for Active; 'I' for Inactive)
REMARK    1  A    between atoms: C_2  and  C_3
REMARK    2  A    between atoms: C_2  and  C_4
REMARK    3  A    between atoms: C_2  and  C_11
REMARK    4  A    between atoms: C_4  and  C_5
REMARK                            x       y       z     vdW  Elec       q    Type
REMARK                         _______ _______ _______ _____ _____    ______ ____
ROOT
ATOM      1  C   UNL     1      10.166  -0.778  23.430  0.00  0.00    +0.051 A 
ATOM      2  N   UNL     1       9.997  -0.064  22.255  0.00  0.00    -0.230 NA
ATOM      3  C   UNL     1       9.989   1.223  22.496  0.00  0.00    +0.156 A 
ATOM      4  N   UNL     1       9.841   2.148  21.535  0.00  0.00    -0.338 N 
ATOM      5  H   UNL     1       9.995   1.829  20.586  0.00  0.00    +0.144 HD
ATOM      6  H   UNL     1      10.145   3.094  21.724  0.00  0.00    +0.144 HD
ATOM      7  S   UNL     1      10.203   1.664  24.139  0.00  0.00    -0.061 S 
ATOM      8  C   UNL     1      10.292   0.006  24.562  0.00  0.00    +0.071 A 
ENDROOT
BRANCH   1   9
ATOM      9  C   UNL     1      10.126  -2.273  23.381  0.00  0.00    +0.066 C 
BRANCH   9  10
ATOM     10  C   UNL     1       8.945  -2.916  24.120  0.00  0.00    +0.055 C 
ATOM     11  C   UNL     1       9.326  -4.135  24.960  0.00  0.00    +0.015 C 
BRANCH  10  12
ATOM     12  C   UNL     1       7.894  -3.359  23.118  0.00  0.00    +0.226 C 
ATOM     13  O   UNL     1       7.572  -2.725  22.120  0.00  0.00    -0.301 OA
ENDBRANCH  10  12
ENDBRANCH   9  10
ENDBRANCH   1   9
TORSDOF 3
ENDMDL
MODEL 3
REMARK VINA RESULT:      -4.3      4.347      5.642
REMARK  Name = 
REMARK  4 active torsions:
REMARK  status: ('A' for Active; 'I' for Inactive)
REMARK    1  A    between atoms: C_2  and  C_3
REMARK    2  A    between atoms: C_2  and  C_4
REMARK    3  A    between atoms: C_2  and  C_11
REMARK    4  A    between atoms: C_4  and  C_5
REMARK                            x       y       z     vdW  Elec       q    Type
REMARK                         _______ _______ _______ _____ _____    ______ ____
ROOT
ATOM      1  C   UNL     1       7.601  -3.159  23.074  0.00  0.00    +0.051 A 
ATOM      2  N   UNL     1       7.963  -2.312  22.038  0.00  0.00    -0.230 NA
ATOM      3  C   UNL     1       9.151  -1.805  22.252  0.00  0.00    +0.156 A 
ATOM      4  N   UNL     1       9.746  -0.951  21.404  0.00  0.00    -0.338 N 
ATOM      5  H   UNL     1       9.359  -0.914  20.469  0.00  0.00    +0.144 HD
ATOM      6  H   UNL     1      10.750  -0.840  21.457  0.00  0.00    +0.144 HD
ATOM      7  S   UNL     1       9.921  -2.319  23.694  0.00  0.00    -0.061 S 
ATOM      8  C   UNL     1       8.552  -3.278  24.071  0.00  0.00    +0.071 A 
ENDROOT
BRANCH   1   9
ATOM      9  C   UNL     1       6.242  -3.784  23.059  0.00  0.00    +0.066 C 
BRANCH   9  10
ATOM     10  C   UNL     1       6.232  -5.314  22.942  0.00  0.00    +0.055 C 
ATOM     11  C   UNL     1       6.905  -5.845  21.677  0.00  0.00    +0.015 C 
BRANCH  10  12
ATOM     12  C   UNL     1       4.800  -5.819  22.947  0.00  0.00    +0.226 C 
ATOM     13  O   UNL     1       3.816  -5.125  22.719  0.00  0.00    -0.301 OA
ENDBRANCH  10  12
ENDBRANCH   9  10
ENDBRANCH   1   9
TORSDOF 3
ENDMDL
MODEL 4
REMARK VINA RESULT:      -4.2      1.423      1.845
REMARK  Name = 
REMARK  4 active torsions:
REMARK  status: ('A' for Active; 'I' for Inactive)
REMARK    1  A    between atoms: C_2  and  C_3
REMARK    2  A    between atoms: C_2  and  C_4
REMARK    3  A    between atoms: C_2  and  C_11
REMARK    4  A    between atoms: C_4  and  C_5
REMARK                            x       y       z     vdW  Elec       q    Type
REMARK                         _______ _______ _______ _____ _____    ______ ____
ROOT
ATOM      1  C   UNL     1       8.504  -2.790  24.670  0.00  0.00    +0.051 A 
ATOM      2  N   UNL     1       9.491  -3.754  24.537  0.00  0.00    -0.230 NA
ATOM      3  C   UNL     1       9.374  -4.664  25.472  0.00  0.00    +0.156 A 
ATOM      4  N   UNL     1      10.201  -5.715  25.578  0.00  0.00    -0.338 N 
ATOM      5  H   UNL     1      10.759  -5.925  24.759  0.00  0.00    +0.144 HD
ATOM      6  H   UNL     1       9.891  -6.522  26.102  0.00  0.00    +0.144 HD
ATOM      7  S   UNL     1       8.068  -4.436  26.559  0.00  0.00    -0.061 S 
ATOM      8  C   UNL     1       7.639  -3.001  25.727  0.00  0.00    +0.071 A 
ENDROOT
BRANCH   1   9
ATOM      9  C   UNL     1       8.508  -1.616  23.742  0.00  0.00    +0.066 C 
BRANCH   9  10
ATOM     10  C   UNL     1       9.898  -1.154  23.286  0.00  0.00    +0.055 C 
ATOM     11  C   UNL     1      10.458   0.018  24.093  0.00  0.00    +0.015 C 
BRANCH  10  12
ATOM     12  C   UNL     1       9.845  -0.725  21.831  0.00  0.00    +0.226 C 
ATOM     13  O   UNL     1       9.591   0.412  21.449  0.00  0.00    -0.301 OA
ENDBRANCH  10  12
ENDBRANCH   9  10
ENDBRANCH   1   9
TORSDOF 3
ENDMDL
MODEL 5
REMARK VINA RESULT:      -4.2      2.078      2.270
REMARK  Name = 
REMARK  4 active torsions:
REMARK  status: ('A' for Active; 'I' for Inactive)
REMARK    1  A    between atoms: C_2  and  C_3
REMARK    2  A    between atoms: C_2  and  C_4
REMARK    3  A    between atoms: C_2  and  C_11
REMARK    4  A    between atoms: C_4  and  C_5
REMARK                            x       y       z     vdW  Elec       q    Type
REMARK                         _______ _______ _______ _____ _____    ______ ____
ROOT
ATOM      1  C   UNL     1       9.377  -2.068  22.973  0.00  0.00    +0.051 A 
ATOM      2  N   UNL     1       8.261  -2.349  22.200  0.00  0.00    -0.230 NA
ATOM      3  C   UNL     1       7.630  -3.396  22.668  0.00  0.00    +0.156 A 
ATOM      4  N   UNL     1       6.513  -3.888  22.109  0.00  0.00    -0.338 N 
ATOM      5  H   UNL     1       6.028  -3.271  21.469  0.00  0.00    +0.144 HD
ATOM      6  H   UNL     1       5.914  -4.480  22.669  0.00  0.00    +0.144 HD
ATOM      7  S   UNL     1       8.316  -4.102  24.071  0.00  0.00    -0.061 S 
ATOM      8  C   UNL     1       9.564  -2.929  24.038  0.00  0.00    +0.071 A 
ENDROOT
BRANCH   1   9
ATOM      9  C   UNL     1      10.281  -0.950  22.559  0.00  0.00    +0.066 C 
BRANCH   9  10
ATOM     10  C   UNL     1       9.825   0.449  22.994  0.00  0.00    +0.055 C 
ATOM     11  C   UNL     1       9.897   1.499  21.884  0.00  0.00    +0.015 C 
BRANCH  10  12
ATOM     12  C   UNL     1      10.688   0.936  24.144  0.00  0.00    +0.226 C 
ATOM     13  O   UNL     1      10.791   0.369  25.225  0.00  0.00    -0.301 OA
ENDBRANCH  10  12
ENDBRANCH   9  10
ENDBRANCH   1   9
TORSDOF 3
ENDMDL
MODEL 6
REMARK VINA RESULT:      -4.1      4.045      5.336
REMARK  Name = 
REMARK  4 active torsions:
REMARK  status: ('A' for Active; 'I' for Inactive)
REMARK    1  A    between atoms: C_2  and  C_3
REMARK    2  A    between atoms: C_2  and  C_4
REMARK    3  A    between atoms: C_2  and  C_11
REMARK    4  A    between atoms: C_4  and  C_5
REMARK                            x       y       z     vdW  Elec       q    Type
REMARK                         _______ _______ _______ _____ _____    ______ ____
ROOT
ATOM      1  C   UNL     1       9.176  -0.958  22.685  0.00  0.00    +0.051 A 
ATOM      2  N   UNL     1       9.427   0.030  21.746  0.00  0.00    -0.230 NA
ATOM      3  C   UNL     1       9.845   1.124  22.330  0.00  0.00    +0.156 A 
ATOM      4  N   UNL     1      10.162   2.240  21.655  0.00  0.00    -0.338 N 
ATOM      5  H   UNL     1      10.317   2.127  20.660  0.00  0.00    +0.144 HD
ATOM      6  H   UNL     1      10.754   2.925  22.106  0.00  0.00    +0.144 HD
ATOM      7  S   UNL     1       9.982   1.040  24.037  0.00  0.00    -0.061 S 
ATOM      8  C   UNL     1       9.421  -0.579  23.991  0.00  0.00    +0.071 A 
ENDROOT
BRANCH   1   9
ATOM      9  C   UNL     1       8.615  -2.268  22.227  0.00  0.00    +0.066 C 
BRANCH   9  10
ATOM     10  C   UNL     1       7.328  -2.707  22.936  0.00  0.00    +0.055 C 
ATOM     11  C   UNL     1       7.542  -3.782  24.002  0.00  0.00    +0.015 C 
BRANCH  10  12
ATOM     12  C   UNL     1       6.344  -3.258  21.920  0.00  0.00    +0.226 C 
ATOM     13  O   UNL     1       5.158  -3.471  22.143  0.00  0.00    -0.301 OA
ENDBRANCH  10  12
ENDBRANCH   9  10
ENDBRANCH   1   9
TORSDOF 3
ENDMDL
MODEL 7
REMARK VINA RESULT:      -4.1      3.623      4.933
REMARK  Name = 
REMARK  4 active torsions:
REMARK  status: ('A' for Active; 'I' for Inactive)
REMARK    1  A    between atoms: C_2  and  C_3
REMARK    2  A    between atoms: C_2  and  C_4
REMARK    3  A    between atoms: C_2  and  C_11
REMARK    4  A    between atoms: C_4  and  C_5
REMARK                            x       y       z     vdW  Elec       q    Type
REMARK                         _______ _______ _______ _____ _____    ______ ____
ROOT
ATOM      1  C   UNL     1       8.394  -0.166  23.525  0.00  0.00    +0.051 A 
ATOM      2  N   UNL     1       8.808   0.414  22.336  0.00  0.00    -0.230 NA
ATOM      3  C   UNL     1       9.567   1.455  22.572  0.00  0.00    +0.156 A 
ATOM      4  N   UNL     1      10.106   2.204  21.597  0.00  0.00    -0.338 N 
ATOM      5  H   UNL     1      10.121   1.787  20.674  0.00  0.00    +0.144 HD
ATOM      6  H   UNL     1      10.906   2.781  21.819  0.00  0.00    +0.144 HD
ATOM      7  S   UNL     1       9.851   1.797  24.228  0.00  0.00    -0.061 S 
ATOM      8  C   UNL     1       8.867   0.463  24.661  0.00  0.00    +0.071 A 
ENDROOT
BRANCH   1   9
ATOM      9  C   UNL     1       7.453  -1.328  23.475  0.00  0.00    +0.066 C 
BRANCH   9  10
ATOM     10  C   UNL     1       8.031  -2.606  22.853  0.00  0.00    +0.055 C 
ATOM     11  C   UNL     1       6.979  -3.529  22.239  0.00  0.00    +0.015 C 
BRANCH  10  12
ATOM     12  C   UNL     1       8.776  -3.400  23.911  0.00  0.00    +0.226 C 
ATOM     13  O   UNL     1       9.985  -3.339  24.104  0.00  0.00    -0.301 OA
ENDBRANCH  10  12
ENDBRANCH   9  10
ENDBRANCH   1   9
TORSDOF 3
ENDMDL
MODEL 8
REMARK VINA RESULT:      -4.1      4.080      4.935
REMARK  Name = 
REMARK  4 active torsions:
REMARK  status: ('A' for Active; 'I' for Inactive)
REMARK    1  A    between atoms: C_2  and  C_3
REMARK    2  A    between atoms: C_2  and  C_4
REMARK    3  A    between atoms: C_2  and  C_11
REMARK    4  A    between atoms: C_4  and  C_5
REMARK                            x       y       z     vdW  Elec       q    Type
REMARK                         _______ _______ _______ _____ _____    ______ ____
ROOT
ATOM      1  C   UNL     1       8.051  -4.468  24.302  0.00  0.00    +0.051 A 
ATOM      2  N   UNL     1       7.333  -5.240  25.201  0.00  0.00    -0.230 NA
ATOM      3  C   UNL     1       7.970  -5.327  26.342  0.00  0.00    +0.156 A 
ATOM      4  N   UNL     1       7.498  -6.017  27.393  0.00  0.00    -0.338 N 
ATOM      5  H   UNL     1       6.513  -6.252  27.363  0.00  0.00    +0.144 HD
ATOM      6  H   UNL     1       7.859  -5.802  28.313  0.00  0.00    +0.144 HD
ATOM      7  S   UNL     1       9.457  -4.478  26.421  0.00  0.00    -0.061 S 
ATOM      8  C   UNL     1       9.242  -3.972  24.798  0.00  0.00    +0.071 A 
ENDROOT
BRANCH   1   9
ATOM      9  C   UNL     1       7.530  -4.307  22.908  0.00  0.00    +0.066 C 
BRANCH   9  10
ATOM     10  C   UNL     1       6.270  -5.122  22.588  0.00  0.00    +0.055 C 
ATOM     11  C   UNL     1       6.312  -5.821  21.228  0.00  0.00    +0.015 C 
BRANCH  10  12
ATOM     12  C   UNL     1       5.054  -4.214  22.600  0.00  0.00    +0.226 C 
ATOM     13  O   UNL     1       3.923  -4.569  22.911  0.00  0.00    -0.301 OA
ENDBRANCH  10  12
ENDBRANCH   9  10
ENDBRANCH   1   9
TORSDOF 3
ENDMDL
MODEL 9
REMARK VINA RESULT:      -4.0      4.829      6.094
REMARK  Name = 
REMARK  4 active torsions:
REMARK  status: ('A' for Active; 'I' for Inactive)
REMARK    1  A    between atoms: C_2  and  C_3
REMARK    2  A    between atoms: C_2  and  C_4
REMARK    3  A    between atoms: C_2  and  C_11
REMARK    4  A    between atoms: C_4  and  C_5
REMARK                            x       y       z     vdW  Elec       q    Type
REMARK                         _______ _______ _______ _____ _____    ______ ____
ROOT
ATOM      1  C   UNL     1       9.776   2.278  24.059  0.00  0.00    +0.051 A 
ATOM      2  N   UNL     1      10.532   3.268  23.453  0.00  0.00    -0.230 NA
ATOM      3  C   UNL     1      10.052   4.453  23.739  0.00  0.00    +0.156 A 
ATOM      4  N   UNL     1      10.593   5.593  23.282  0.00  0.00    -0.338 N 
ATOM      5  H   UNL     1      11.537   5.522  22.922  0.00  0.00    +0.144 HD
ATOM      6  H   UNL     1      10.383   6.455  23.767  0.00  0.00    +0.144 HD
ATOM      7  S   UNL     1       8.678   4.460  24.764  0.00  0.00    -0.061 S 
ATOM      8  C   UNL     1       8.718   2.748  24.813  0.00  0.00    +0.071 A 
ENDROOT
BRANCH   1   9
ATOM      9  C   UNL     1      10.116   0.844  23.794  0.00  0.00    +0.066 C 
BRANCH   9  10
ATOM     10  C   UNL     1      10.094   0.434  22.316  0.00  0.00    +0.055 C 
ATOM     11  C   UNL     1       8.847   0.896  21.562  0.00  0.00    +0.015 C 
BRANCH  10  12
ATOM     12  C   UNL     1      10.164  -1.078  22.202  0.00  0.00    +0.226 C 
ATOM     13  O   UNL     1       9.525  -1.859  22.898  0.00  0.00    -0.301 OA
ENDBRANCH  10  12
ENDBRANCH   9  10
ENDBRANCH   1   9
TORSDOF 3
ENDMDL
