MODEL 1
REMARK VINA RESULT:      -7.6      0.000      0.000
REMARK  Name = 
REMARK  12 active torsions:
REMARK  status: ('A' for Active; 'I' for Inactive)
REMARK    1  A    between atoms: C_2  and  C_3
REMARK    2  A    between atoms: C_2  and  C_5
REMARK    3  A    between atoms: C_2  and  C_29
REMARK    4  A    between atoms: C_3  and  C_4
REMARK    5  A    between atoms: C_5  and  C_6
REMARK    6  A    between atoms: C_8  and  C_9
REMARK    7  A    between atoms: C_9  and  N_10
REMARK    8  A    between atoms: C_11  and  C_13
REMARK    9  A    between atoms: C_17  and  C_20
REMARK   10  A    between atoms: C_24  and  O_25
REMARK   11  A    between atoms: O_25  and  C_26
REMARK   12  A    between atoms: C_29  and  O_30
REMARK                            x       y       z     vdW  Elec       q    Type
REMARK                         _______ _______ _______ _____ _____    ______ ____
ROOT
ATOM      1  C   UNL     1       5.202  -5.421  24.773  0.00  0.00    -0.046 A 
ATOM      2  C   UNL     1       4.548  -6.285  25.658  0.00  0.00    +0.007 A 
ATOM      3  C   UNL     1       5.065  -6.550  26.928  0.00  0.00    +0.046 A 
ATOM      4  C   UNL     1       6.276  -5.990  27.332  0.00  0.00    +0.125 A 
ATOM      5  C   UNL     1       6.959  -5.113  26.468  0.00  0.00    +0.012 A 
ATOM      6  C   UNL     1       6.398  -4.823  25.205  0.00  0.00    +0.012 A 
ENDROOT
BRANCH   4   7
ATOM      7  O   UNL     1       6.884  -6.249  28.535  0.00  0.00    -0.495 OA
ATOM      8  C   UNL     1       6.045  -6.351  29.680  0.00  0.00    +0.277 C 
ENDBRANCH   4   7
BRANCH   1   9
ATOM      9  C   UNL     1       4.741  -5.213  23.339  0.00  0.00    +0.049 C 
BRANCH   9  10
ATOM     10  C   UNL     1       5.809  -4.746  22.335  0.00  0.00    +0.102 C 
BRANCH  10  11
ATOM     11  C   UNL     1       5.631  -3.311  21.805  0.00  0.00    +0.011 C 
ATOM     12  C   UNL     1       6.204  -2.182  22.644  0.00  0.00    +0.004 C 
ENDBRANCH  10  11
BRANCH  10  13
ATOM     13  C   UNL     1       6.049  -5.746  21.218  0.00  0.00    +0.308 C 
ATOM     14  O   UNL     1       5.937  -5.451  20.036  0.00  0.00    -0.251 OA
BRANCH  13  15
ATOM     15  O   UNL     1       6.352  -6.999  21.609  0.00  0.00    -0.480 OA
ATOM     16  H   UNL     1       7.152  -7.091  22.154  0.00  0.00    +0.295 HD
ENDBRANCH  13  15
ENDBRANCH  10  13
ENDBRANCH   9  10
ENDBRANCH   1   9
BRANCH   5  17
ATOM     17  C   UNL     1       8.293  -4.552  26.915  0.00  0.00    +0.143 C 
BRANCH  17  18
ATOM     18  N   UNL     1       8.649  -3.277  26.322  0.00  0.00    -0.307 N 
ATOM     19  H   UNL     1       8.331  -2.443  26.799  0.00  0.00    +0.149 HD
ATOM     20  C   UNL     1       9.353  -3.177  25.146  0.00  0.00    +0.247 C 
ATOM     21  O   UNL     1       9.782  -4.150  24.535  0.00  0.00    -0.270 OA
BRANCH  20  22
ATOM     22  C   UNL     1       9.586  -1.808  24.604  0.00  0.00    +0.072 A 
ATOM     23  C   UNL     1       9.856  -1.669  23.235  0.00  0.00    +0.016 A 
ATOM     24  C   UNL     1      10.042  -0.404  22.668  0.00  0.00    +0.013 A 
ATOM     25  C   UNL     1       9.958   0.752  23.463  0.00  0.00    +0.058 A 
ATOM     26  C   UNL     1       9.709   0.610  24.834  0.00  0.00    +0.051 A 
ATOM     27  C   UNL     1       9.527  -0.657  25.392  0.00  0.00    +0.136 A 
ATOM     28  F   UNL     1       9.285  -0.729  26.709  0.00  0.00    -0.205 F 
BRANCH  25  29
ATOM     29  C   UNL     1      10.126   2.116  22.838  0.00  0.00    +0.418 C 
ATOM     30  F   UNL     1      10.524   2.046  21.538  0.00  0.00    -0.166 F 
ATOM     31  F   UNL     1      11.057   2.873  23.479  0.00  0.00    -0.166 F 
ATOM     32  F   UNL     1       8.980   2.853  22.837  0.00  0.00    -0.166 F 
ENDBRANCH  25  29
ENDBRANCH  20  22
ENDBRANCH  17  18
ENDBRANCH   5  17
TORSDOF 10
ENDMDL
MODEL 2
REMARK VINA RESULT:      -7.3      4.756      8.833
REMARK  Name = 
REMARK  12 active torsions:
REMARK  status: ('A' for Active; 'I' for Inactive)
REMARK    1  A    between atoms: C_2  and  C_3
REMARK    2  A    between atoms: C_2  and  C_5
REMARK    3  A    between atoms: C_2  and  C_29
REMARK    4  A    between atoms: C_3  and  C_4
REMARK    5  A    between atoms: C_5  and  C_6
REMARK    6  A    between atoms: C_8  and  C_9
REMARK    7  A    between atoms: C_9  and  N_10
REMARK    8  A    between atoms: C_11  and  C_13
REMARK    9  A    between atoms: C_17  and  C_20
REMARK   10  A    between atoms: C_24  and  O_25
REMARK   11  A    between atoms: O_25  and  C_26
REMARK   12  A    between atoms: C_29  and  O_30
REMARK                            x       y       z     vdW  Elec       q    Type
REMARK                         _______ _______ _______ _____ _____    ______ ____
ROOT
ATOM      1  C   UNL     1       9.824   3.389  23.624  0.00  0.00    -0.046 A 
ATOM      2  C   UNL     1       8.615   4.062  23.419  0.00  0.00    +0.007 A 
ATOM      3  C   UNL     1       7.425   3.607  23.991  0.00  0.00    +0.046 A 
ATOM      4  C   UNL     1       7.406   2.440  24.753  0.00  0.00    +0.125 A 
ATOM      5  C   UNL     1       8.605   1.740  24.984  0.00  0.00    +0.012 A 
ATOM      6  C   UNL     1       9.805   2.240  24.433  0.00  0.00    +0.012 A 
ENDROOT
BRANCH   4   7
ATOM      7  O   UNL     1       6.272   1.891  25.297  0.00  0.00    -0.495 OA
ATOM      8  C   UNL     1       5.601   2.643  26.301  0.00  0.00    +0.277 C 
ENDBRANCH   4   7
BRANCH   1   9
ATOM      9  C   UNL     1      11.110   3.777  22.912  0.00  0.00    +0.049 C 
BRANCH   9  10
ATOM     10  C   UNL     1      11.891   4.964  23.501  0.00  0.00    +0.102 C 
BRANCH  10  11
ATOM     11  C   UNL     1      11.054   6.223  23.790  0.00  0.00    +0.011 C 
ATOM     12  C   UNL     1      10.767   6.550  25.245  0.00  0.00    +0.004 C 
ENDBRANCH  10  11
BRANCH  10  13
ATOM     13  C   UNL     1      13.159   5.281  22.728  0.00  0.00    +0.308 C 
ATOM     14  O   UNL     1      13.141   5.705  21.581  0.00  0.00    -0.251 OA
BRANCH  13  15
ATOM     15  O   UNL     1      14.315   5.024  23.369  0.00  0.00    -0.480 OA
ATOM     16  H   UNL     1      14.279   4.328  24.048  0.00  0.00    +0.295 HD
ENDBRANCH  13  15
ENDBRANCH  10  13
ENDBRANCH   9  10
ENDBRANCH   1   9
BRANCH   5  17
ATOM     17  C   UNL     1       8.549   0.452  25.779  0.00  0.00    +0.143 C 
BRANCH  17  18
ATOM     18  N   UNL     1       7.996  -0.683  25.066  0.00  0.00    -0.307 N 
ATOM     19  H   UNL     1       7.005  -0.854  25.172  0.00  0.00    +0.149 HD
ATOM     20  C   UNL     1       8.768  -1.526  24.301  0.00  0.00    +0.247 C 
ATOM     21  O   UNL     1       9.968  -1.356  24.118  0.00  0.00    -0.270 OA
BRANCH  20  22
ATOM     22  C   UNL     1       8.088  -2.699  23.682  0.00  0.00    +0.072 A 
ATOM     23  C   UNL     1       7.165  -2.468  22.650  0.00  0.00    +0.016 A 
ATOM     24  C   UNL     1       6.531  -3.535  22.007  0.00  0.00    +0.013 A 
ATOM     25  C   UNL     1       6.810  -4.861  22.383  0.00  0.00    +0.058 A 
ATOM     26  C   UNL     1       7.716  -5.089  23.426  0.00  0.00    +0.051 A 
ATOM     27  C   UNL     1       8.344  -4.017  24.064  0.00  0.00    +0.136 A 
ATOM     28  F   UNL     1       9.206  -4.298  25.052  0.00  0.00    -0.205 F 
BRANCH  25  29
ATOM     29  C   UNL     1       6.146  -6.008  21.661  0.00  0.00    +0.418 C 
ATOM     30  F   UNL     1       6.736  -7.204  21.933  0.00  0.00    -0.166 F 
ATOM     31  F   UNL     1       6.184  -5.866  20.308  0.00  0.00    -0.166 F 
ATOM     32  F   UNL     1       4.831  -6.159  21.984  0.00  0.00    -0.166 F 
ENDBRANCH  25  29
ENDBRANCH  20  22
ENDBRANCH  17  18
ENDBRANCH   5  17
TORSDOF 10
ENDMDL
MODEL 3
REMARK VINA RESULT:      -7.3      4.568      8.875
REMARK  Name = 
REMARK  12 active torsions:
REMARK  status: ('A' for Active; 'I' for Inactive)
REMARK    1  A    between atoms: C_2  and  C_3
REMARK    2  A    between atoms: C_2  and  C_5
REMARK    3  A    between atoms: C_2  and  C_29
REMARK    4  A    between atoms: C_3  and  C_4
REMARK    5  A    between atoms: C_5  and  C_6
REMARK    6  A    between atoms: C_8  and  C_9
REMARK    7  A    between atoms: C_9  and  N_10
REMARK    8  A    between atoms: C_11  and  C_13
REMARK    9  A    between atoms: C_17  and  C_20
REMARK   10  A    between atoms: C_24  and  O_25
REMARK   11  A    between atoms: O_25  and  C_26
REMARK   12  A    between atoms: C_29  and  O_30
REMARK                            x       y       z     vdW  Elec       q    Type
REMARK                         _______ _______ _______ _____ _____    ______ ____
ROOT
ATOM      1  C   UNL     1      10.237   2.841  23.825  0.00  0.00    -0.046 A 
ATOM      2  C   UNL     1       9.016   3.367  24.260  0.00  0.00    +0.007 A 
ATOM      3  C   UNL     1       8.119   2.598  25.006  0.00  0.00    +0.046 A 
ATOM      4  C   UNL     1       8.403   1.265  25.301  0.00  0.00    +0.125 A 
ATOM      5  C   UNL     1       9.625   0.705  24.882  0.00  0.00    +0.012 A 
ATOM      6  C   UNL     1      10.537   1.512  24.167  0.00  0.00    +0.012 A 
ENDROOT
BRANCH   4   7
ATOM      7  O   UNL     1       7.551   0.424  25.972  0.00  0.00    -0.495 OA
ATOM      8  C   UNL     1       7.093   0.846  27.251  0.00  0.00    +0.277 C 
ENDBRANCH   4   7
BRANCH   1   9
ATOM      9  C   UNL     1      11.176   3.603  22.902  0.00  0.00    +0.049 C 
BRANCH   9  10
ATOM     10  C   UNL     1      11.894   4.820  23.506  0.00  0.00    +0.102 C 
BRANCH  10  11
ATOM     11  C   UNL     1      10.991   6.026  23.827  0.00  0.00    +0.011 C 
ATOM     12  C   UNL     1      11.197   6.715  25.164  0.00  0.00    +0.004 C 
ENDBRANCH  10  11
BRANCH  10  13
ATOM     13  C   UNL     1      13.135   5.222  22.728  0.00  0.00    +0.308 C 
ATOM     14  O   UNL     1      13.080   5.690  21.599  0.00  0.00    -0.251 OA
BRANCH  13  15
ATOM     15  O   UNL     1      14.312   4.991  23.341  0.00  0.00    -0.480 OA
ATOM     16  H   UNL     1      14.435   5.428  24.202  0.00  0.00    +0.295 HD
ENDBRANCH  13  15
ENDBRANCH  10  13
ENDBRANCH   9  10
ENDBRANCH   1   9
BRANCH   5  17
ATOM     17  C   UNL     1       9.890  -0.757  25.179  0.00  0.00    +0.143 C 
BRANCH  17  18
ATOM     18  N   UNL     1       8.788  -1.649  24.879  0.00  0.00    -0.307 N 
ATOM     19  H   UNL     1       7.854  -1.312  25.079  0.00  0.00    +0.149 HD
ATOM     20  C   UNL     1       8.975  -2.917  24.380  0.00  0.00    +0.247 C 
ATOM     21  O   UNL     1      10.078  -3.371  24.098  0.00  0.00    -0.270 OA
BRANCH  20  22
ATOM     22  C   UNL     1       7.761  -3.760  24.187  0.00  0.00    +0.072 A 
ATOM     23  C   UNL     1       7.237  -4.440  25.297  0.00  0.00    +0.016 A 
ATOM     24  C   UNL     1       6.077  -5.212  25.181  0.00  0.00    +0.013 A 
ATOM     25  C   UNL     1       5.413  -5.317  23.947  0.00  0.00    +0.058 A 
ATOM     26  C   UNL     1       5.948  -4.655  22.835  0.00  0.00    +0.051 A 
ATOM     27  C   UNL     1       7.108  -3.888  22.959  0.00  0.00    +0.136 A 
ATOM     28  F   UNL     1       7.570  -3.272  21.861  0.00  0.00    -0.205 F 
BRANCH  25  29
ATOM     29  C   UNL     1       4.142  -6.124  23.837  0.00  0.00    +0.418 C 
ATOM     30  F   UNL     1       4.333  -7.438  24.139  0.00  0.00    -0.166 F 
ATOM     31  F   UNL     1       3.612  -6.097  22.584  0.00  0.00    -0.166 F 
ATOM     32  F   UNL     1       3.155  -5.690  24.670  0.00  0.00    -0.166 F 
ENDBRANCH  25  29
ENDBRANCH  20  22
ENDBRANCH  17  18
ENDBRANCH   5  17
TORSDOF 10
ENDMDL
MODEL 4
REMARK VINA RESULT:      -7.2      1.440      4.166
REMARK  Name = 
REMARK  12 active torsions:
REMARK  status: ('A' for Active; 'I' for Inactive)
REMARK    1  A    between atoms: C_2  and  C_3
REMARK    2  A    between atoms: C_2  and  C_5
REMARK    3  A    between atoms: C_2  and  C_29
REMARK    4  A    between atoms: C_3  and  C_4
REMARK    5  A    between atoms: C_5  and  C_6
REMARK    6  A    between atoms: C_8  and  C_9
REMARK    7  A    between atoms: C_9  and  N_10
REMARK    8  A    between atoms: C_11  and  C_13
REMARK    9  A    between atoms: C_17  and  C_20
REMARK   10  A    between atoms: C_24  and  O_25
REMARK   11  A    between atoms: O_25  and  C_26
REMARK   12  A    between atoms: C_29  and  O_30
REMARK                            x       y       z     vdW  Elec       q    Type
REMARK                         _______ _______ _______ _____ _____    ______ ____
ROOT
ATOM      1  C   UNL     1       4.185  -6.129  25.456  0.00  0.00    -0.046 A 
ATOM      2  C   UNL     1       3.313  -5.798  24.413  0.00  0.00    +0.007 A 
ATOM      3  C   UNL     1       3.793  -5.354  23.179  0.00  0.00    +0.046 A 
ATOM      4  C   UNL     1       5.161  -5.188  22.968  0.00  0.00    +0.125 A 
ATOM      5  C   UNL     1       6.067  -5.515  23.995  0.00  0.00    +0.012 A 
ATOM      6  C   UNL     1       5.564  -6.004  25.221  0.00  0.00    +0.012 A 
ENDROOT
BRANCH   4   7
ATOM      7  O   UNL     1       5.711  -4.697  21.811  0.00  0.00    -0.495 OA
ATOM      8  C   UNL     1       6.109  -5.645  20.827  0.00  0.00    +0.277 C 
ENDBRANCH   4   7
BRANCH   1   9
ATOM      9  C   UNL     1       3.697  -6.487  26.851  0.00  0.00    +0.049 C 
BRANCH   9  10
ATOM     10  C   UNL     1       4.301  -5.687  28.016  0.00  0.00    +0.102 C 
BRANCH  10  11
ATOM     11  C   UNL     1       4.458  -4.176  27.767  0.00  0.00    +0.011 C 
ATOM     12  C   UNL     1       4.037  -3.238  28.884  0.00  0.00    +0.004 C 
ENDBRANCH  10  11
BRANCH  10  13
ATOM     13  C   UNL     1       5.570  -6.313  28.568  0.00  0.00    +0.308 C 
ATOM     14  O   UNL     1       6.552  -5.649  28.875  0.00  0.00    -0.251 OA
BRANCH  13  15
ATOM     15  O   UNL     1       5.570  -7.657  28.660  0.00  0.00    -0.480 OA
ATOM     16  H   UNL     1       5.209  -8.134  27.892  0.00  0.00    +0.295 HD
ENDBRANCH  13  15
ENDBRANCH  10  13
ENDBRANCH   9  10
ENDBRANCH   1   9
BRANCH   5  17
ATOM     17  C   UNL     1       7.545  -5.285  23.755  0.00  0.00    +0.143 C 
BRANCH  17  18
ATOM     18  N   UNL     1       7.939  -3.893  23.663  0.00  0.00    -0.307 N 
ATOM     19  H   UNL     1       7.271  -3.252  23.255  0.00  0.00    +0.149 HD
ATOM     20  C   UNL     1       9.173  -3.443  24.069  0.00  0.00    +0.247 C 
ATOM     21  O   UNL     1      10.014  -4.168  24.589  0.00  0.00    -0.270 OA
BRANCH  20  22
ATOM     22  C   UNL     1       9.480  -2.001  23.848  0.00  0.00    +0.072 A 
ATOM     23  C   UNL     1       9.841  -1.585  22.558  0.00  0.00    +0.016 A 
ATOM     24  C   UNL     1      10.099  -0.238  22.287  0.00  0.00    +0.013 A 
ATOM     25  C   UNL     1       9.998   0.725  23.306  0.00  0.00    +0.058 A 
ATOM     26  C   UNL     1       9.657   0.306  24.598  0.00  0.00    +0.051 A 
ATOM     27  C   UNL     1       9.403  -1.042  24.860  0.00  0.00    +0.136 A 
ATOM     28  F   UNL     1       9.076  -1.383  26.115  0.00  0.00    -0.205 F 
BRANCH  25  29
ATOM     29  C   UNL     1      10.245   2.182  22.998  0.00  0.00    +0.418 C 
ATOM     30  F   UNL     1      10.605   2.386  21.702  0.00  0.00    -0.166 F 
ATOM     31  F   UNL     1      11.241   2.715  23.756  0.00  0.00    -0.166 F 
ATOM     32  F   UNL     1       9.153   2.970  23.210  0.00  0.00    -0.166 F 
ENDBRANCH  25  29
ENDBRANCH  20  22
ENDBRANCH  17  18
ENDBRANCH   5  17
TORSDOF 10
ENDMDL
MODEL 5
REMARK VINA RESULT:      -7.1      4.395      8.880
REMARK  Name = 
REMARK  12 active torsions:
REMARK  status: ('A' for Active; 'I' for Inactive)
REMARK    1  A    between atoms: C_2  and  C_3
REMARK    2  A    between atoms: C_2  and  C_5
REMARK    3  A    between atoms: C_2  and  C_29
REMARK    4  A    between atoms: C_3  and  C_4
REMARK    5  A    between atoms: C_5  and  C_6
REMARK    6  A    between atoms: C_8  and  C_9
REMARK    7  A    between atoms: C_9  and  N_10
REMARK    8  A    between atoms: C_11  and  C_13
REMARK    9  A    between atoms: C_17  and  C_20
REMARK   10  A    between atoms: C_24  and  O_25
REMARK   11  A    between atoms: O_25  and  C_26
REMARK   12  A    between atoms: C_29  and  O_30
REMARK                            x       y       z     vdW  Elec       q    Type
REMARK                         _______ _______ _______ _____ _____    ______ ____
ROOT
ATOM      1  C   UNL     1       9.119   2.786  23.788  0.00  0.00    -0.046 A 
ATOM      2  C   UNL     1       9.120   2.597  22.403  0.00  0.00    +0.007 A 
ATOM      3  C   UNL     1       9.388   1.346  21.841  0.00  0.00    +0.046 A 
ATOM      4  C   UNL     1       9.704   0.257  22.652  0.00  0.00    +0.125 A 
ATOM      5  C   UNL     1       9.708   0.411  24.051  0.00  0.00    +0.012 A 
ATOM      6  C   UNL     1       9.392   1.673  24.601  0.00  0.00    +0.012 A 
ENDROOT
BRANCH   4   7
ATOM      7  O   UNL     1      10.041  -0.986  22.179  0.00  0.00    -0.495 OA
ATOM      8  C   UNL     1       9.035  -1.713  21.483  0.00  0.00    +0.277 C 
ENDBRANCH   4   7
BRANCH   1   9
ATOM      9  C   UNL     1       8.963   4.156  24.429  0.00  0.00    +0.049 C 
BRANCH   9  10
ATOM     10  C   UNL     1       9.207   5.371  23.520  0.00  0.00    +0.102 C 
BRANCH  10  11
ATOM     11  C   UNL     1      10.184   6.424  24.076  0.00  0.00    +0.011 C 
ATOM     12  C   UNL     1      11.658   6.062  24.100  0.00  0.00    +0.004 C 
ENDBRANCH  10  11
BRANCH  10  13
ATOM     13  C   UNL     1       7.922   5.995  23.006  0.00  0.00    +0.308 C 
ATOM     14  O   UNL     1       6.949   6.182  23.724  0.00  0.00    -0.251 OA
BRANCH  13  15
ATOM     15  O   UNL     1       7.898   6.292  21.693  0.00  0.00    -0.480 OA
ATOM     16  H   UNL     1       7.245   5.806  21.160  0.00  0.00    +0.295 HD
ENDBRANCH  13  15
ENDBRANCH  10  13
ENDBRANCH   9  10
ENDBRANCH   1   9
BRANCH   5  17
ATOM     17  C   UNL     1      10.097  -0.776  24.908  0.00  0.00    +0.143 C 
BRANCH  17  18
ATOM     18  N   UNL     1       9.052  -1.765  25.091  0.00  0.00    -0.307 N 
ATOM     19  H   UNL     1       8.192  -1.451  25.522  0.00  0.00    +0.149 HD
ATOM     20  C   UNL     1       9.210  -3.084  24.738  0.00  0.00    +0.247 C 
ATOM     21  O   UNL     1      10.219  -3.517  24.193  0.00  0.00    -0.270 OA
BRANCH  20  22
ATOM     22  C   UNL     1       8.086  -4.013  25.050  0.00  0.00    +0.072 A 
ATOM     23  C   UNL     1       7.847  -4.343  26.392  0.00  0.00    +0.016 A 
ATOM     24  C   UNL     1       6.780  -5.177  26.744  0.00  0.00    +0.013 A 
ATOM     25  C   UNL     1       5.927  -5.697  25.755  0.00  0.00    +0.058 A 
ATOM     26  C   UNL     1       6.179  -5.382  24.414  0.00  0.00    +0.051 A 
ATOM     27  C   UNL     1       7.248  -4.550  24.072  0.00  0.00    +0.136 A 
ATOM     28  F   UNL     1       7.436  -4.280  22.772  0.00  0.00    -0.205 F 
BRANCH  25  29
ATOM     29  C   UNL     1       4.758  -6.568  26.145  0.00  0.00    +0.418 C 
ATOM     30  F   UNL     1       4.459  -7.494  25.193  0.00  0.00    -0.166 F 
ATOM     31  F   UNL     1       3.618  -5.853  26.349  0.00  0.00    -0.166 F 
ATOM     32  F   UNL     1       4.969  -7.270  27.294  0.00  0.00    -0.166 F 
ENDBRANCH  25  29
ENDBRANCH  20  22
ENDBRANCH  17  18
ENDBRANCH   5  17
TORSDOF 10
ENDMDL
MODEL 6
REMARK VINA RESULT:      -7.1      1.879      4.661
REMARK  Name = 
REMARK  12 active torsions:
REMARK  status: ('A' for Active; 'I' for Inactive)
REMARK    1  A    between atoms: C_2  and  C_3
REMARK    2  A    between atoms: C_2  and  C_5
REMARK    3  A    between atoms: C_2  and  C_29
REMARK    4  A    between atoms: C_3  and  C_4
REMARK    5  A    between atoms: C_5  and  C_6
REMARK    6  A    between atoms: C_8  and  C_9
REMARK    7  A    between atoms: C_9  and  N_10
REMARK    8  A    between atoms: C_11  and  C_13
REMARK    9  A    between atoms: C_17  and  C_20
REMARK   10  A    between atoms: C_24  and  O_25
REMARK   11  A    between atoms: O_25  and  C_26
REMARK   12  A    between atoms: C_29  and  O_30
REMARK                            x       y       z     vdW  Elec       q    Type
REMARK                         _______ _______ _______ _____ _____    ______ ____
ROOT
ATOM      1  C   UNL     1       6.453  -4.863  25.628  0.00  0.00    -0.046 A 
ATOM      2  C   UNL     1       5.358  -5.515  25.051  0.00  0.00    +0.007 A 
ATOM      3  C   UNL     1       5.162  -5.519  23.668  0.00  0.00    +0.046 A 
ATOM      4  C   UNL     1       6.037  -4.834  22.826  0.00  0.00    +0.125 A 
ATOM      5  C   UNL     1       7.152  -4.171  23.373  0.00  0.00    +0.012 A 
ATOM      6  C   UNL     1       7.356  -4.215  24.769  0.00  0.00    +0.012 A 
ENDROOT
BRANCH   4   7
ATOM      7  O   UNL     1       5.881  -4.735  21.466  0.00  0.00    -0.495 OA
ATOM      8  C   UNL     1       6.108  -5.911  20.698  0.00  0.00    +0.277 C 
ENDBRANCH   4   7
BRANCH   1   9
ATOM      9  C   UNL     1       6.625  -4.725  27.133  0.00  0.00    +0.049 C 
BRANCH   9  10
ATOM     10  C   UNL     1       5.465  -5.230  28.006  0.00  0.00    +0.102 C 
BRANCH  10  11
ATOM     11  C   UNL     1       4.690  -4.137  28.767  0.00  0.00    +0.011 C 
ATOM     12  C   UNL     1       4.200  -2.945  27.966  0.00  0.00    +0.004 C 
ENDBRANCH  10  11
BRANCH  10  13
ATOM     13  C   UNL     1       5.861  -6.386  28.907  0.00  0.00    +0.308 C 
ATOM     14  O   UNL     1       6.473  -6.225  29.954  0.00  0.00    -0.251 OA
BRANCH  13  15
ATOM     15  O   UNL     1       5.537  -7.615  28.459  0.00  0.00    -0.480 OA
ATOM     16  H   UNL     1       5.649  -8.341  29.097  0.00  0.00    +0.295 HD
ENDBRANCH  13  15
ENDBRANCH  10  13
ENDBRANCH   9  10
ENDBRANCH   1   9
BRANCH   5  17
ATOM     17  C   UNL     1       8.063  -3.399  22.441  0.00  0.00    +0.143 C 
BRANCH  17  18
ATOM     18  N   UNL     1       8.258  -2.006  22.793  0.00  0.00    -0.307 N 
ATOM     19  H   UNL     1       7.456  -1.507  23.156  0.00  0.00    +0.149 HD
ATOM     20  C   UNL     1       9.457  -1.358  22.618  0.00  0.00    +0.247 C 
ATOM     21  O   UNL     1      10.467  -1.916  22.203  0.00  0.00    -0.270 OA
BRANCH  20  22
ATOM     22  C   UNL     1       9.503   0.095  22.949  0.00  0.00    +0.072 A 
ATOM     23  C   UNL     1       9.144   1.018  21.955  0.00  0.00    +0.016 A 
ATOM     24  C   UNL     1       9.130   2.389  22.225  0.00  0.00    +0.013 A 
ATOM     25  C   UNL     1       9.473   2.868  23.502  0.00  0.00    +0.058 A 
ATOM     26  C   UNL     1       9.850   1.946  24.487  0.00  0.00    +0.051 A 
ATOM     27  C   UNL     1       9.864   0.578  24.208  0.00  0.00    +0.136 A 
ATOM     28  F   UNL     1      10.228  -0.256  25.193  0.00  0.00    -0.205 F 
BRANCH  25  29
ATOM     29  C   UNL     1       9.422   4.347  23.796  0.00  0.00    +0.418 C 
ATOM     30  F   UNL     1      10.621   4.959  23.595  0.00  0.00    -0.166 F 
ATOM     31  F   UNL     1       9.073   4.612  25.084  0.00  0.00    -0.166 F 
ATOM     32  F   UNL     1       8.526   5.020  23.020  0.00  0.00    -0.166 F 
ENDBRANCH  25  29
ENDBRANCH  20  22
ENDBRANCH  17  18
ENDBRANCH   5  17
TORSDOF 10
ENDMDL
MODEL 7
REMARK VINA RESULT:      -6.9      4.361      9.084
REMARK  Name = 
REMARK  12 active torsions:
REMARK  status: ('A' for Active; 'I' for Inactive)
REMARK    1  A    between atoms: C_2  and  C_3
REMARK    2  A    between atoms: C_2  and  C_5
REMARK    3  A    between atoms: C_2  and  C_29
REMARK    4  A    between atoms: C_3  and  C_4
REMARK    5  A    between atoms: C_5  and  C_6
REMARK    6  A    between atoms: C_8  and  C_9
REMARK    7  A    between atoms: C_9  and  N_10
REMARK    8  A    between atoms: C_11  and  C_13
REMARK    9  A    between atoms: C_17  and  C_20
REMARK   10  A    between atoms: C_24  and  O_25
REMARK   11  A    between atoms: O_25  and  C_26
REMARK   12  A    between atoms: C_29  and  O_30
REMARK                            x       y       z     vdW  Elec       q    Type
REMARK                         _______ _______ _______ _____ _____    ______ ____
ROOT
ATOM      1  C   UNL     1       9.374   2.956  23.597  0.00  0.00    -0.046 A 
ATOM      2  C   UNL     1       9.336   2.724  22.218  0.00  0.00    +0.007 A 
ATOM      3  C   UNL     1       9.529   1.445  21.692  0.00  0.00    +0.046 A 
ATOM      4  C   UNL     1       9.810   0.368  22.531  0.00  0.00    +0.125 A 
ATOM      5  C   UNL     1       9.852   0.565  23.924  0.00  0.00    +0.012 A 
ATOM      6  C   UNL     1       9.610   1.857  24.440  0.00  0.00    +0.012 A 
ENDROOT
BRANCH   4   7
ATOM      7  O   UNL     1      10.075  -0.905  22.092  0.00  0.00    -0.495 OA
ATOM      8  C   UNL     1       9.030  -1.591  21.414  0.00  0.00    +0.277 C 
ENDBRANCH   4   7
BRANCH   1   9
ATOM      9  C   UNL     1       9.301   4.352  24.196  0.00  0.00    +0.049 C 
BRANCH   9  10
ATOM     10  C   UNL     1      10.433   5.321  23.821  0.00  0.00    +0.102 C 
BRANCH  10  11
ATOM     11  C   UNL     1      11.800   4.664  23.552  0.00  0.00    +0.011 C 
ATOM     12  C   UNL     1      12.726   5.359  22.570  0.00  0.00    +0.004 C 
ENDBRANCH  10  11
BRANCH  10  13
ATOM     13  C   UNL     1      10.540   6.503  24.768  0.00  0.00    +0.308 C 
ATOM     14  O   UNL     1      11.605   6.867  25.250  0.00  0.00    -0.251 OA
BRANCH  13  15
ATOM     15  O   UNL     1       9.378   7.107  25.085  0.00  0.00    -0.480 OA
ATOM     16  H   UNL     1       9.455   7.934  25.593  0.00  0.00    +0.295 HD
ENDBRANCH  13  15
ENDBRANCH  10  13
ENDBRANCH   9  10
ENDBRANCH   1   9
BRANCH   5  17
ATOM     17  C   UNL     1      10.202  -0.613  24.811  0.00  0.00    +0.143 C 
BRANCH  17  18
ATOM     18  N   UNL     1       9.131  -1.572  25.000  0.00  0.00    -0.307 N 
ATOM     19  H   UNL     1       8.268  -1.226  25.399  0.00  0.00    +0.149 HD
ATOM     20  C   UNL     1       9.268  -2.906  24.695  0.00  0.00    +0.247 C 
ATOM     21  O   UNL     1      10.281  -3.378  24.190  0.00  0.00    -0.270 OA
BRANCH  20  22
ATOM     22  C   UNL     1       8.118  -3.800  25.009  0.00  0.00    +0.072 A 
ATOM     23  C   UNL     1       7.011  -3.791  24.146  0.00  0.00    +0.016 A 
ATOM     24  C   UNL     1       5.923  -4.640  24.372  0.00  0.00    +0.013 A 
ATOM     25  C   UNL     1       5.921  -5.520  25.468  0.00  0.00    +0.058 A 
ATOM     26  C   UNL     1       7.017  -5.512  26.339  0.00  0.00    +0.051 A 
ATOM     27  C   UNL     1       8.099  -4.660  26.108  0.00  0.00    +0.136 A 
ATOM     28  F   UNL     1       9.122  -4.702  26.974  0.00  0.00    -0.205 F 
BRANCH  25  29
ATOM     29  C   UNL     1       4.757  -6.457  25.685  0.00  0.00    +0.418 C 
ATOM     30  F   UNL     1       4.871  -7.168  26.840  0.00  0.00    -0.166 F 
ATOM     31  F   UNL     1       4.632  -7.374  24.687  0.00  0.00    -0.166 F 
ATOM     32  F   UNL     1       3.557  -5.817  25.757  0.00  0.00    -0.166 F 
ENDBRANCH  25  29
ENDBRANCH  20  22
ENDBRANCH  17  18
ENDBRANCH   5  17
TORSDOF 10
ENDMDL
MODEL 8
REMARK VINA RESULT:      -6.8      2.621      3.932
REMARK  Name = 
REMARK  12 active torsions:
REMARK  status: ('A' for Active; 'I' for Inactive)
REMARK    1  A    between atoms: C_2  and  C_3
REMARK    2  A    between atoms: C_2  and  C_5
REMARK    3  A    between atoms: C_2  and  C_29
REMARK    4  A    between atoms: C_3  and  C_4
REMARK    5  A    between atoms: C_5  and  C_6
REMARK    6  A    between atoms: C_8  and  C_9
REMARK    7  A    between atoms: C_9  and  N_10
REMARK    8  A    between atoms: C_11  and  C_13
REMARK    9  A    between atoms: C_17  and  C_20
REMARK   10  A    between atoms: C_24  and  O_25
REMARK   11  A    between atoms: O_25  and  C_26
REMARK   12  A    between atoms: C_29  and  O_30
REMARK                            x       y       z     vdW  Elec       q    Type
REMARK                         _______ _______ _______ _____ _____    ______ ____
ROOT
ATOM      1  C   UNL     1       4.439  -4.904  24.163  0.00  0.00    -0.046 A 
ATOM      2  C   UNL     1       5.189  -5.497  25.184  0.00  0.00    +0.007 A 
ATOM      3  C   UNL     1       6.570  -5.306  25.276  0.00  0.00    +0.046 A 
ATOM      4  C   UNL     1       7.245  -4.547  24.321  0.00  0.00    +0.125 A 
ATOM      5  C   UNL     1       6.521  -3.932  23.282  0.00  0.00    +0.012 A 
ATOM      6  C   UNL     1       5.120  -4.101  23.232  0.00  0.00    +0.012 A 
ENDROOT
BRANCH   4   7
ATOM      7  O   UNL     1       8.605  -4.363  24.302  0.00  0.00    -0.495 OA
ATOM      8  C   UNL     1       9.382  -5.151  25.196  0.00  0.00    +0.277 C 
ENDBRANCH   4   7
BRANCH   1   9
ATOM      9  C   UNL     1       2.961  -5.196  23.955  0.00  0.00    +0.049 C 
BRANCH   9  10
ATOM     10  C   UNL     1       2.588  -6.654  23.640  0.00  0.00    +0.102 C 
BRANCH  10  11
ATOM     11  C   UNL     1       1.534  -6.838  22.532  0.00  0.00    +0.011 C 
ATOM     12  C   UNL     1       1.093  -8.257  22.221  0.00  0.00    +0.004 C 
ENDBRANCH  10  11
BRANCH  10  13
ATOM     13  C   UNL     1       2.263  -7.463  24.883  0.00  0.00    +0.308 C 
ATOM     14  O   UNL     1       1.349  -7.167  25.641  0.00  0.00    -0.251 OA
BRANCH  13  15
ATOM     15  O   UNL     1       3.074  -8.510  25.129  0.00  0.00    -0.480 OA
ATOM     16  H   UNL     1       2.681  -9.391  25.000  0.00  0.00    +0.295 HD
ENDBRANCH  13  15
ENDBRANCH  10  13
ENDBRANCH   9  10
ENDBRANCH   1   9
BRANCH   5  17
ATOM     17  C   UNL     1       7.285  -3.149  22.234  0.00  0.00    +0.143 C 
BRANCH  17  18
ATOM     18  N   UNL     1       7.646  -1.800  22.623  0.00  0.00    -0.307 N 
ATOM     19  H   UNL     1       6.922  -1.234  23.049  0.00  0.00    +0.149 HD
ATOM     20  C   UNL     1       8.897  -1.274  22.403  0.00  0.00    +0.247 C 
ATOM     21  O   UNL     1       9.818  -1.918  21.913  0.00  0.00    -0.270 OA
BRANCH  20  22
ATOM     22  C   UNL     1       9.115   0.151  22.782  0.00  0.00    +0.072 A 
ATOM     23  C   UNL     1       8.508   1.148  22.004  0.00  0.00    +0.016 A 
ATOM     24  C   UNL     1       8.647   2.499  22.340  0.00  0.00    +0.013 A 
ATOM     25  C   UNL     1       9.396   2.880  23.467  0.00  0.00    +0.058 A 
ATOM     26  C   UNL     1      10.017   1.884  24.230  0.00  0.00    +0.051 A 
ATOM     27  C   UNL     1       9.876   0.538  23.887  0.00  0.00    +0.136 A 
ATOM     28  F   UNL     1      10.490  -0.370  24.659  0.00  0.00    -0.205 F 
BRANCH  25  29
ATOM     29  C   UNL     1       9.512   4.337  23.842  0.00  0.00    +0.418 C 
ATOM     30  F   UNL     1      10.781   4.809  23.707  0.00  0.00    -0.166 F 
ATOM     31  F   UNL     1       9.155   4.574  25.133  0.00  0.00    -0.166 F 
ATOM     32  F   UNL     1       8.728   5.153  23.082  0.00  0.00    -0.166 F 
ENDBRANCH  25  29
ENDBRANCH  20  22
ENDBRANCH  17  18
ENDBRANCH   5  17
TORSDOF 10
ENDMDL
MODEL 9
REMARK VINA RESULT:      -6.8      2.165      4.410
REMARK  Name = 
REMARK  12 active torsions:
REMARK  status: ('A' for Active; 'I' for Inactive)
REMARK    1  A    between atoms: C_2  and  C_3
REMARK    2  A    between atoms: C_2  and  C_5
REMARK    3  A    between atoms: C_2  and  C_29
REMARK    4  A    between atoms: C_3  and  C_4
REMARK    5  A    between atoms: C_5  and  C_6
REMARK    6  A    between atoms: C_8  and  C_9
REMARK    7  A    between atoms: C_9  and  N_10
REMARK    8  A    between atoms: C_11  and  C_13
REMARK    9  A    between atoms: C_17  and  C_20
REMARK   10  A    between atoms: C_24  and  O_25
REMARK   11  A    between atoms: O_25  and  C_26
REMARK   12  A    between atoms: C_29  and  O_30
REMARK                            x       y       z     vdW  Elec       q    Type
REMARK                         _______ _______ _______ _____ _____    ______ ____
ROOT
ATOM      1  C   UNL     1       5.845  -5.826  26.224  0.00  0.00    -0.046 A 
ATOM      2  C   UNL     1       5.128  -5.918  25.027  0.00  0.00    +0.007 A 
ATOM      3  C   UNL     1       5.688  -5.513  23.813  0.00  0.00    +0.046 A 
ATOM      4  C   UNL     1       6.968  -4.963  23.771  0.00  0.00    +0.125 A 
ATOM      5  C   UNL     1       7.719  -4.859  24.957  0.00  0.00    +0.012 A 
ATOM      6  C   UNL     1       7.152  -5.315  26.167  0.00  0.00    +0.012 A 
ENDROOT
BRANCH   4   7
ATOM      7  O   UNL     1       7.565  -4.483  22.633  0.00  0.00    -0.495 OA
ATOM      8  C   UNL     1       6.876  -3.466  21.915  0.00  0.00    +0.277 C 
ENDBRANCH   4   7
BRANCH   1   9
ATOM      9  C   UNL     1       5.223  -6.132  27.578  0.00  0.00    +0.049 C 
BRANCH   9  10
ATOM     10  C   UNL     1       3.714  -5.873  27.715  0.00  0.00    +0.102 C 
BRANCH  10  11
ATOM     11  C   UNL     1       3.328  -4.453  28.169  0.00  0.00    +0.011 C 
ATOM     12  C   UNL     1       4.459  -3.487  28.471  0.00  0.00    +0.004 C 
ENDBRANCH  10  11
BRANCH  10  13
ATOM     13  C   UNL     1       2.999  -6.946  28.516  0.00  0.00    +0.308 C 
ATOM     14  O   UNL     1       1.788  -7.112  28.461  0.00  0.00    -0.251 OA
BRANCH  13  15
ATOM     15  O   UNL     1       3.776  -7.683  29.333  0.00  0.00    -0.480 OA
ATOM     16  H   UNL     1       4.702  -7.792  29.053  0.00  0.00    +0.295 HD
ENDBRANCH  13  15
ENDBRANCH  10  13
ENDBRANCH   9  10
ENDBRANCH   1   9
BRANCH   5  17
ATOM     17  C   UNL     1       9.090  -4.218  24.890  0.00  0.00    +0.143 C 
BRANCH  17  18
ATOM     18  N   UNL     1       9.086  -2.769  24.864  0.00  0.00    -0.307 N 
ATOM     19  H   UNL     1       8.543  -2.297  25.576  0.00  0.00    +0.149 HD
ATOM     20  C   UNL     1       9.751  -2.043  23.904  0.00  0.00    +0.247 C 
ATOM     21  O   UNL     1      10.440  -2.557  23.031  0.00  0.00    -0.270 OA
BRANCH  20  22
ATOM     22  C   UNL     1       9.603  -0.560  23.946  0.00  0.00    +0.072 A 
ATOM     23  C   UNL     1      10.743   0.218  24.198  0.00  0.00    +0.016 A 
ATOM     24  C   UNL     1      10.668   1.614  24.208  0.00  0.00    +0.013 A 
ATOM     25  C   UNL     1       9.446   2.263  23.961  0.00  0.00    +0.058 A 
ATOM     26  C   UNL     1       8.305   1.485  23.729  0.00  0.00    +0.051 A 
ATOM     27  C   UNL     1       8.388   0.091  23.724  0.00  0.00    +0.136 A 
ATOM     28  F   UNL     1       7.263  -0.600  23.490  0.00  0.00    -0.205 F 
BRANCH  25  29
ATOM     29  C   UNL     1       9.380   3.771  23.938  0.00  0.00    +0.418 C 
ATOM     30  F   UNL     1      10.573   4.339  23.612  0.00  0.00    -0.166 F 
ATOM     31  F   UNL     1       9.028   4.296  25.143  0.00  0.00    -0.166 F 
ATOM     32  F   UNL     1       8.478   4.258  23.041  0.00  0.00    -0.166 F 
ENDBRANCH  25  29
ENDBRANCH  20  22
ENDBRANCH  17  18
ENDBRANCH   5  17
TORSDOF 10
ENDMDL
