MODEL 1
REMARK VINA RESULT:      -6.7      0.000      0.000
REMARK  Name = 
REMARK  2 active torsions:
REMARK  status: ('A' for Active; 'I' for Inactive)
REMARK    1  A    between atoms: O_1  and  C_2
REMARK    2  A    between atoms: C_5  and  N_8
REMARK                            x       y       z     vdW  Elec       q    Type
REMARK                         _______ _______ _______ _____ _____    ______ ____
ROOT
ATOM      1  N   UNL     1       8.811  -2.135  22.571  0.00  0.00    -0.242 NA
ATOM      2  C   UNL     1       7.571  -2.382  22.840  0.00  0.00    +0.135 C 
ATOM      3  C   UNL     1       6.974  -3.699  22.589  0.00  0.00    +0.027 A 
ATOM      4  C   UNL     1       5.654  -3.644  23.023  0.00  0.00    +0.043 A 
ATOM      5  C   UNL     1       4.822  -4.741  22.930  0.00  0.00    +0.024 A 
ATOM      6  C   UNL     1       5.358  -5.910  22.375  0.00  0.00    +0.002 A 
ATOM      7  C   UNL     1       6.697  -5.958  21.930  0.00  0.00    +0.001 A 
ATOM      8  N   UNL     1       5.343  -2.385  23.522  0.00  0.00    -0.280 N 
ATOM      9  H   UNL     1       4.444  -2.092  23.876  0.00  0.00    +0.155 HD
ATOM     10  C   UNL     1       7.525  -4.838  22.040  0.00  0.00    +0.012 A 
ATOM     11  C   UNL     1       6.435  -1.538  23.456  0.00  0.00    +0.267 C 
ATOM     12  O   UNL     1       6.465  -0.377  23.797  0.00  0.00    -0.268 OA
ENDROOT
BRANCH   1  16
ATOM     13  C   UNL     1      10.467   1.682  23.130  0.00  0.00    +0.117 A 
ATOM     14  C   UNL     1      10.595   0.748  24.151  0.00  0.00    +0.047 A 
ATOM     15  C   UNL     1      10.083  -0.545  23.984  0.00  0.00    +0.031 A 
ATOM     16  C   UNL     1       9.483  -0.927  22.783  0.00  0.00    +0.065 A 
ATOM     17  C   UNL     1       9.383   0.032  21.763  0.00  0.00    +0.031 A 
ATOM     18  C   UNL     1       9.865   1.334  21.930  0.00  0.00    +0.047 A 
BRANCH  13  19
ATOM     19  O   UNL     1      10.924   2.946  23.359  0.00  0.00    -0.507 OA
ATOM     20  H   UNL     1      10.340   3.373  24.008  0.00  0.00    +0.292 HD
ENDBRANCH  13  19
ENDBRANCH   1  16
TORSDOF 2
ENDMDL
MODEL 2
REMARK VINA RESULT:      -6.6      3.241      6.409
REMARK  Name = 
REMARK  2 active torsions:
REMARK  status: ('A' for Active; 'I' for Inactive)
REMARK    1  A    between atoms: O_1  and  C_2
REMARK    2  A    between atoms: C_5  and  N_8
REMARK                            x       y       z     vdW  Elec       q    Type
REMARK                         _______ _______ _______ _____ _____    ______ ____
ROOT
ATOM      1  N   UNL     1       8.265  -2.346  24.228  0.00  0.00    -0.242 NA
ATOM      2  C   UNL     1       8.774  -1.199  24.542  0.00  0.00    +0.135 C 
ATOM      3  C   UNL     1       9.102  -0.195  23.523  0.00  0.00    +0.027 A 
ATOM      4  C   UNL     1       9.586   0.926  24.188  0.00  0.00    +0.043 A 
ATOM      5  C   UNL     1       9.974   2.056  23.498  0.00  0.00    +0.024 A 
ATOM      6  C   UNL     1       9.867   2.028  22.102  0.00  0.00    +0.002 A 
ATOM      7  C   UNL     1       9.380   0.885  21.432  0.00  0.00    +0.001 A 
ATOM      8  N   UNL     1       9.614   0.720  25.562  0.00  0.00    -0.280 N 
ATOM      9  H   UNL     1       9.944   1.376  26.254  0.00  0.00    +0.155 HD
ATOM     10  C   UNL     1       8.986  -0.248  22.150  0.00  0.00    +0.012 A 
ATOM     11  C   UNL     1       9.145  -0.540  25.887  0.00  0.00    +0.267 C 
ATOM     12  O   UNL     1       9.068  -1.014  26.999  0.00  0.00    -0.268 OA
ENDROOT
BRANCH   1  16
ATOM     13  C   UNL     1       7.514  -5.304  27.110  0.00  0.00    +0.117 A 
ATOM     14  C   UNL     1       6.517  -4.377  26.838  0.00  0.00    +0.047 A 
ATOM     15  C   UNL     1       6.722  -3.396  25.859  0.00  0.00    +0.031 A 
ATOM     16  C   UNL     1       7.902  -3.364  25.115  0.00  0.00    +0.065 A 
ATOM     17  C   UNL     1       8.886  -4.325  25.400  0.00  0.00    +0.031 A 
ATOM     18  C   UNL     1       8.702  -5.290  26.395  0.00  0.00    +0.047 A 
BRANCH  13  19
ATOM     19  O   UNL     1       7.296  -6.201  28.114  0.00  0.00    -0.507 OA
ATOM     20  H   UNL     1       7.554  -7.084  27.801  0.00  0.00    +0.292 HD
ENDBRANCH  13  19
ENDBRANCH   1  16
TORSDOF 2
ENDMDL
MODEL 3
REMARK VINA RESULT:      -6.6      2.082      6.442
REMARK  Name = 
REMARK  2 active torsions:
REMARK  status: ('A' for Active; 'I' for Inactive)
REMARK    1  A    between atoms: O_1  and  C_2
REMARK    2  A    between atoms: C_5  and  N_8
REMARK                            x       y       z     vdW  Elec       q    Type
REMARK                         _______ _______ _______ _____ _____    ______ ____
ROOT
ATOM      1  N   UNL     1       7.439  -2.266  22.327  0.00  0.00    -0.242 NA
ATOM      2  C   UNL     1       8.152  -1.703  23.247  0.00  0.00    +0.135 C 
ATOM      3  C   UNL     1       8.895  -0.462  22.997  0.00  0.00    +0.027 A 
ATOM      4  C   UNL     1       9.516  -0.104  24.188  0.00  0.00    +0.043 A 
ATOM      5  C   UNL     1      10.288   1.036  24.280  0.00  0.00    +0.024 A 
ATOM      6  C   UNL     1      10.428   1.814  23.124  0.00  0.00    +0.002 A 
ATOM      7  C   UNL     1       9.800   1.443  21.915  0.00  0.00    +0.001 A 
ATOM      8  N   UNL     1       9.247  -1.028  25.190  0.00  0.00    -0.280 N 
ATOM      9  H   UNL     1       9.601  -1.000  26.135  0.00  0.00    +0.155 HD
ATOM     10  C   UNL     1       9.016   0.289  21.845  0.00  0.00    +0.012 A 
ATOM     11  C   UNL     1       8.430  -2.043  24.726  0.00  0.00    +0.267 C 
ATOM     12  O   UNL     1       8.042  -3.000  25.360  0.00  0.00    -0.268 OA
ENDROOT
BRANCH   1  16
ATOM     13  C   UNL     1       5.459  -5.906  22.999  0.00  0.00    +0.117 A 
ATOM     14  C   UNL     1       4.755  -4.724  23.192  0.00  0.00    +0.047 A 
ATOM     15  C   UNL     1       5.376  -3.493  22.946  0.00  0.00    +0.031 A 
ATOM     16  C   UNL     1       6.684  -3.435  22.461  0.00  0.00    +0.065 A 
ATOM     17  C   UNL     1       7.364  -4.646  22.259  0.00  0.00    +0.031 A 
ATOM     18  C   UNL     1       6.763  -5.879  22.530  0.00  0.00    +0.047 A 
BRANCH  13  19
ATOM     19  O   UNL     1       4.836  -7.078  23.312  0.00  0.00    -0.507 OA
ATOM     20  H   UNL     1       4.509  -7.482  22.491  0.00  0.00    +0.292 HD
ENDBRANCH  13  19
ENDBRANCH   1  16
TORSDOF 2
ENDMDL
MODEL 4
REMARK VINA RESULT:      -6.5      3.049      6.500
REMARK  Name = 
REMARK  2 active torsions:
REMARK  status: ('A' for Active; 'I' for Inactive)
REMARK    1  A    between atoms: O_1  and  C_2
REMARK    2  A    between atoms: C_5  and  N_8
REMARK                            x       y       z     vdW  Elec       q    Type
REMARK                         _______ _______ _______ _____ _____    ______ ____
ROOT
ATOM      1  N   UNL     1       7.005  -2.271  24.343  0.00  0.00    -0.242 NA
ATOM      2  C   UNL     1       8.102  -1.863  23.795  0.00  0.00    +0.135 C 
ATOM      3  C   UNL     1       8.183  -0.577  23.091  0.00  0.00    +0.027 A 
ATOM      4  C   UNL     1       9.496  -0.423  22.661  0.00  0.00    +0.043 A 
ATOM      5  C   UNL     1       9.896   0.703  21.970  0.00  0.00    +0.024 A 
ATOM      6  C   UNL     1       8.926   1.680  21.714  0.00  0.00    +0.002 A 
ATOM      7  C   UNL     1       7.593   1.515  22.148  0.00  0.00    +0.001 A 
ATOM      8  N   UNL     1      10.272  -1.519  23.017  0.00  0.00    -0.280 N 
ATOM      9  H   UNL     1      11.249  -1.652  22.799  0.00  0.00    +0.155 HD
ATOM     10  C   UNL     1       7.210   0.371  22.852  0.00  0.00    +0.012 A 
ATOM     11  C   UNL     1       9.524  -2.456  23.707  0.00  0.00    +0.267 C 
ATOM     12  O   UNL     1       9.918  -3.521  24.128  0.00  0.00    -0.268 OA
ENDROOT
BRANCH   1  16
ATOM     13  C   UNL     1       6.211  -5.641  26.716  0.00  0.00    +0.117 A 
ATOM     14  C   UNL     1       5.949  -5.714  25.354  0.00  0.00    +0.047 A 
ATOM     15  C   UNL     1       6.232  -4.619  24.528  0.00  0.00    +0.031 A 
ATOM     16  C   UNL     1       6.822  -3.465  25.047  0.00  0.00    +0.065 A 
ATOM     17  C   UNL     1       7.092  -3.427  26.424  0.00  0.00    +0.031 A 
ATOM     18  C   UNL     1       6.786  -4.503  27.262  0.00  0.00    +0.047 A 
BRANCH  13  19
ATOM     19  O   UNL     1       5.861  -6.706  27.492  0.00  0.00    -0.507 OA
ATOM     20  H   UNL     1       6.077  -6.499  28.417  0.00  0.00    +0.292 HD
ENDBRANCH  13  19
ENDBRANCH   1  16
TORSDOF 2
ENDMDL
MODEL 5
REMARK VINA RESULT:      -6.4      1.742      2.373
REMARK  Name = 
REMARK  2 active torsions:
REMARK  status: ('A' for Active; 'I' for Inactive)
REMARK    1  A    between atoms: O_1  and  C_2
REMARK    2  A    between atoms: C_5  and  N_8
REMARK                            x       y       z     vdW  Elec       q    Type
REMARK                         _______ _______ _______ _____ _____    ______ ____
ROOT
ATOM      1  N   UNL     1       7.456  -0.637  22.790  0.00  0.00    -0.242 NA
ATOM      2  C   UNL     1       7.780  -1.817  23.206  0.00  0.00    +0.135 C 
ATOM      3  C   UNL     1       6.830  -2.936  23.170  0.00  0.00    +0.027 A 
ATOM      4  C   UNL     1       7.497  -4.060  23.644  0.00  0.00    +0.043 A 
ATOM      5  C   UNL     1       6.869  -5.286  23.723  0.00  0.00    +0.024 A 
ATOM      6  C   UNL     1       5.531  -5.352  23.314  0.00  0.00    +0.002 A 
ATOM      7  C   UNL     1       4.857  -4.206  22.841  0.00  0.00    +0.001 A 
ATOM      8  N   UNL     1       8.805  -3.753  24.001  0.00  0.00    -0.280 N 
ATOM      9  H   UNL     1       9.480  -4.394  24.390  0.00  0.00    +0.155 HD
ATOM     10  C   UNL     1       5.513  -2.975  22.761  0.00  0.00    +0.012 A 
ATOM     11  C   UNL     1       9.082  -2.416  23.778  0.00  0.00    +0.267 C 
ATOM     12  O   UNL     1      10.127  -1.851  24.010  0.00  0.00    -0.268 OA
ENDROOT
BRANCH   1  16
ATOM     13  C   UNL     1      10.119   2.598  23.056  0.00  0.00    +0.117 A 
ATOM     14  C   UNL     1      10.076   1.871  21.873  0.00  0.00    +0.047 A 
ATOM     15  C   UNL     1       9.176   0.806  21.739  0.00  0.00    +0.031 A 
ATOM     16  C   UNL     1       8.283   0.490  22.764  0.00  0.00    +0.065 A 
ATOM     17  C   UNL     1       8.337   1.254  23.941  0.00  0.00    +0.031 A 
ATOM     18  C   UNL     1       9.251   2.300  24.096  0.00  0.00    +0.047 A 
BRANCH  13  19
ATOM     19  O   UNL     1      11.052   3.585  23.166  0.00  0.00    -0.507 OA
ATOM     20  H   UNL     1      10.669   4.412  22.829  0.00  0.00    +0.292 HD
ENDBRANCH  13  19
ENDBRANCH   1  16
TORSDOF 2
ENDMDL
MODEL 6
REMARK VINA RESULT:      -6.4      3.180      6.492
REMARK  Name = 
REMARK  2 active torsions:
REMARK  status: ('A' for Active; 'I' for Inactive)
REMARK    1  A    between atoms: O_1  and  C_2
REMARK    2  A    between atoms: C_5  and  N_8
REMARK                            x       y       z     vdW  Elec       q    Type
REMARK                         _______ _______ _______ _____ _____    ______ ____
ROOT
ATOM      1  N   UNL     1       8.454  -1.672  25.525  0.00  0.00    -0.242 NA
ATOM      2  C   UNL     1       8.613  -1.368  24.279  0.00  0.00    +0.135 C 
ATOM      3  C   UNL     1       9.211  -0.093  23.865  0.00  0.00    +0.027 A 
ATOM      4  C   UNL     1       9.275  -0.097  22.476  0.00  0.00    +0.043 A 
ATOM      5  C   UNL     1       9.804   0.970  21.779  0.00  0.00    +0.024 A 
ATOM      6  C   UNL     1      10.267   2.060  22.526  0.00  0.00    +0.002 A 
ATOM      7  C   UNL     1      10.194   2.062  23.935  0.00  0.00    +0.001 A 
ATOM      8  N   UNL     1       8.747  -1.273  21.954  0.00  0.00    -0.280 N 
ATOM      9  H   UNL     1       8.662  -1.502  20.975  0.00  0.00    +0.155 HD
ATOM     10  C   UNL     1       9.662   0.968  24.622  0.00  0.00    +0.012 A 
ATOM     11  C   UNL     1       8.312  -2.114  22.962  0.00  0.00    +0.267 C 
ATOM     12  O   UNL     1       7.791  -3.198  22.818  0.00  0.00    -0.268 OA
ENDROOT
BRANCH   1  16
ATOM     13  C   UNL     1       7.148  -5.244  27.302  0.00  0.00    +0.117 A 
ATOM     14  C   UNL     1       6.269  -4.170  27.250  0.00  0.00    +0.047 A 
ATOM     15  C   UNL     1       6.661  -2.974  26.635  0.00  0.00    +0.031 A 
ATOM     16  C   UNL     1       7.913  -2.858  26.028  0.00  0.00    +0.065 A 
ATOM     17  C   UNL     1       8.774  -3.966  26.081  0.00  0.00    +0.031 A 
ATOM     18  C   UNL     1       8.403  -5.155  26.717  0.00  0.00    +0.047 A 
BRANCH  13  19
ATOM     19  O   UNL     1       6.748  -6.367  27.964  0.00  0.00    -0.507 OA
ATOM     20  H   UNL     1       6.908  -6.238  28.914  0.00  0.00    +0.292 HD
ENDBRANCH  13  19
ENDBRANCH   1  16
TORSDOF 2
ENDMDL
MODEL 7
REMARK VINA RESULT:      -6.3      2.722      6.325
REMARK  Name = 
REMARK  2 active torsions:
REMARK  status: ('A' for Active; 'I' for Inactive)
REMARK    1  A    between atoms: O_1  and  C_2
REMARK    2  A    between atoms: C_5  and  N_8
REMARK                            x       y       z     vdW  Elec       q    Type
REMARK                         _______ _______ _______ _____ _____    ______ ____
ROOT
ATOM      1  N   UNL     1       7.494  -3.593  23.655  0.00  0.00    -0.242 NA
ATOM      2  C   UNL     1       7.159  -2.346  23.587  0.00  0.00    +0.135 C 
ATOM      3  C   UNL     1       7.972  -1.367  22.856  0.00  0.00    +0.027 A 
ATOM      4  C   UNL     1       7.320  -0.142  22.943  0.00  0.00    +0.043 A 
ATOM      5  C   UNL     1       7.835   0.988  22.341  0.00  0.00    +0.024 A 
ATOM      6  C   UNL     1       9.043   0.854  21.645  0.00  0.00    +0.002 A 
ATOM      7  C   UNL     1       9.704  -0.391  21.566  0.00  0.00    +0.001 A 
ATOM      8  N   UNL     1       6.153  -0.247  23.689  0.00  0.00    -0.280 N 
ATOM      9  H   UNL     1       5.519   0.507  23.911  0.00  0.00    +0.155 HD
ATOM     10  C   UNL     1       9.162  -1.525  22.176  0.00  0.00    +0.012 A 
ATOM     11  C   UNL     1       5.960  -1.543  24.133  0.00  0.00    +0.267 C 
ATOM     12  O   UNL     1       5.045  -1.939  24.820  0.00  0.00    -0.268 OA
ENDROOT
BRANCH   1  16
ATOM     13  C   UNL     1       5.267  -6.357  25.896  0.00  0.00    +0.117 A 
ATOM     14  C   UNL     1       4.972  -6.208  24.547  0.00  0.00    +0.047 A 
ATOM     15  C   UNL     1       5.717  -5.318  23.763  0.00  0.00    +0.031 A 
ATOM     16  C   UNL     1       6.789  -4.608  24.307  0.00  0.00    +0.065 A 
ATOM     17  C   UNL     1       7.074  -4.793  25.670  0.00  0.00    +0.031 A 
ATOM     18  C   UNL     1       6.319  -5.656  26.468  0.00  0.00    +0.047 A 
BRANCH  13  19
ATOM     19  O   UNL     1       4.476  -7.186  26.635  0.00  0.00    -0.507 OA
ATOM     20  H   UNL     1       4.857  -7.264  27.525  0.00  0.00    +0.292 HD
ENDBRANCH  13  19
ENDBRANCH   1  16
TORSDOF 2
ENDMDL
MODEL 8
REMARK VINA RESULT:      -6.2      1.951      2.402
REMARK  Name = 
REMARK  2 active torsions:
REMARK  status: ('A' for Active; 'I' for Inactive)
REMARK    1  A    between atoms: O_1  and  C_2
REMARK    2  A    between atoms: C_5  and  N_8
REMARK                            x       y       z     vdW  Elec       q    Type
REMARK                         _______ _______ _______ _____ _____    ______ ____
ROOT
ATOM      1  N   UNL     1       6.858  -2.046  22.808  0.00  0.00    -0.242 NA
ATOM      2  C   UNL     1       6.876  -2.894  23.784  0.00  0.00    +0.135 C 
ATOM      3  C   UNL     1       5.947  -4.029  23.837  0.00  0.00    +0.027 A 
ATOM      4  C   UNL     1       6.254  -4.761  24.979  0.00  0.00    +0.043 A 
ATOM      5  C   UNL     1       5.556  -5.906  25.306  0.00  0.00    +0.024 A 
ATOM      6  C   UNL     1       4.523  -6.298  24.445  0.00  0.00    +0.002 A 
ATOM      7  C   UNL     1       4.212  -5.548  23.291  0.00  0.00    +0.001 A 
ATOM      8  N   UNL     1       7.302  -4.177  25.681  0.00  0.00    -0.280 N 
ATOM      9  H   UNL     1       7.691  -4.509  26.552  0.00  0.00    +0.155 HD
ATOM     10  C   UNL     1       4.935  -4.395  22.974  0.00  0.00    +0.012 A 
ATOM     11  C   UNL     1       7.753  -3.035  25.045  0.00  0.00    +0.267 C 
ATOM     12  O   UNL     1       8.639  -2.303  25.426  0.00  0.00    -0.268 OA
ENDROOT
BRANCH   1  16
ATOM     13  C   UNL     1       9.405   1.173  21.928  0.00  0.00    +0.117 A 
ATOM     14  C   UNL     1       8.214   1.433  22.593  0.00  0.00    +0.047 A 
ATOM     15  C   UNL     1       7.356   0.379  22.930  0.00  0.00    +0.031 A 
ATOM     16  C   UNL     1       7.703  -0.944  22.650  0.00  0.00    +0.065 A 
ATOM     17  C   UNL     1       8.921  -1.178  21.992  0.00  0.00    +0.031 A 
ATOM     18  C   UNL     1       9.771  -0.131  21.625  0.00  0.00    +0.047 A 
BRANCH  13  19
ATOM     19  O   UNL     1      10.179   2.234  21.563  0.00  0.00    -0.507 OA
ATOM     20  H   UNL     1      11.032   2.167  22.023  0.00  0.00    +0.292 HD
ENDBRANCH  13  19
ENDBRANCH   1  16
TORSDOF 2
ENDMDL
MODEL 9
REMARK VINA RESULT:      -6.2      2.726      6.832
REMARK  Name = 
REMARK  2 active torsions:
REMARK  status: ('A' for Active; 'I' for Inactive)
REMARK    1  A    between atoms: O_1  and  C_2
REMARK    2  A    between atoms: C_5  and  N_8
REMARK                            x       y       z     vdW  Elec       q    Type
REMARK                         _______ _______ _______ _____ _____    ______ ____
ROOT
ATOM      1  N   UNL     1       6.402  -2.576  24.617  0.00  0.00    -0.242 NA
ATOM      2  C   UNL     1       7.661  -2.360  24.412  0.00  0.00    +0.135 C 
ATOM      3  C   UNL     1       8.241  -1.016  24.519  0.00  0.00    +0.027 A 
ATOM      4  C   UNL     1       9.606  -1.134  24.283  0.00  0.00    +0.043 A 
ATOM      5  C   UNL     1      10.439  -0.035  24.323  0.00  0.00    +0.024 A 
ATOM      6  C   UNL     1       9.854   1.206  24.605  0.00  0.00    +0.002 A 
ATOM      7  C   UNL     1       8.466   1.322  24.838  0.00  0.00    +0.001 A 
ATOM      8  N   UNL     1       9.955  -2.453  24.014  0.00  0.00    -0.280 N 
ATOM      9  H   UNL     1      10.880  -2.789  23.791  0.00  0.00    +0.155 HD
ATOM     10  C   UNL     1       7.641   0.195  24.799  0.00  0.00    +0.012 A 
ATOM     11  C   UNL     1       8.848  -3.281  24.063  0.00  0.00    +0.267 C 
ATOM     12  O   UNL     1       8.834  -4.474  23.854  0.00  0.00    -0.268 OA
ENDROOT
BRANCH   1  16
ATOM     13  C   UNL     1       4.694  -6.377  24.116  0.00  0.00    +0.117 A 
ATOM     14  C   UNL     1       5.208  -6.042  25.362  0.00  0.00    +0.047 A 
ATOM     15  C   UNL     1       5.756  -4.770  25.572  0.00  0.00    +0.031 A 
ATOM     16  C   UNL     1       5.751  -3.811  24.557  0.00  0.00    +0.065 A 
ATOM     17  C   UNL     1       5.209  -4.173  23.314  0.00  0.00    +0.031 A 
ATOM     18  C   UNL     1       4.685  -5.449  23.085  0.00  0.00    +0.047 A 
BRANCH  13  19
ATOM     19  O   UNL     1       4.228  -7.646  23.937  0.00  0.00    -0.507 OA
ATOM     20  H   UNL     1       3.931  -7.740  23.017  0.00  0.00    +0.292 HD
ENDBRANCH  13  19
ENDBRANCH   1  16
TORSDOF 2
ENDMDL
