MODEL 1
REMARK VINA RESULT:      -6.5      0.000      0.000
REMARK  Name = 
REMARK  3 active torsions:
REMARK  status: ('A' for Active; 'I' for Inactive)
REMARK    1  A    between atoms: C_7  and  C_8
REMARK    2  A    between atoms: N_10  and  C_11
REMARK    3  A    between atoms: C_12  and  C_13
REMARK                            x       y       z     vdW  Elec       q    Type
REMARK                         _______ _______ _______ _____ _____    ______ ____
ROOT
ATOM      1  C   UNL     1       8.703   1.455  24.428  0.00  0.00    +0.251 C 
ATOM      2  N   UNL     1       9.470   0.576  25.178  0.00  0.00    -0.275 N 
ATOM      3  H   UNL     1      10.061   0.948  25.913  0.00  0.00    +0.156 HD
ATOM      4  O   UNL     1       7.678   1.136  23.831  0.00  0.00    -0.270 OA
ENDROOT
BRANCH   2   5
ATOM      5  C   UNL     1       9.075  -0.746  25.278  0.00  0.00    +0.090 A 
ATOM      6  S   UNL     1       8.286  -1.143  26.735  0.00  0.00    -0.077 S 
ATOM      7  C   UNL     1       7.890  -2.697  26.154  0.00  0.00    -0.004 A 
ATOM      8  C   UNL     1       7.019  -3.650  26.917  0.00  0.00    +0.043 C 
ATOM      9  C   UNL     1       7.183  -5.081  26.378  0.00  0.00    +0.005 C 
ATOM     10  C   UNL     1       7.168  -5.120  24.843  0.00  0.00    +0.005 C 
ATOM     11  C   UNL     1       8.319  -4.296  24.248  0.00  0.00    +0.037 C 
ATOM     12  C   UNL     1       8.454  -2.959  24.918  0.00  0.00    -0.018 A 
ATOM     13  C   UNL     1       9.181  -1.826  24.425  0.00  0.00    +0.084 A 
BRANCH  13  14
ATOM     14  C   UNL     1       9.985  -1.849  23.239  0.00  0.00    +0.102 C 
ATOM     15  N   UNL     1      10.568  -1.812  22.235  0.00  0.00    -0.191 NA
ENDBRANCH  13  14
ENDBRANCH   2   5
BRANCH   1  18
ATOM     16  F   UNL     1      10.927   2.614  22.944  0.00  0.00    -0.205 F 
ATOM     17  C   UNL     1      10.158   3.414  23.697  0.00  0.00    +0.135 A 
ATOM     18  C   UNL     1       9.089   2.895  24.432  0.00  0.00    +0.072 A 
ATOM     19  C   UNL     1       8.318   3.780  25.210  0.00  0.00    +0.016 A 
ATOM     20  C   UNL     1       8.620   5.141  25.256  0.00  0.00    +0.001 A 
ATOM     21  C   UNL     1       9.688   5.640  24.517  0.00  0.00    +0.003 A 
ATOM     22  C   UNL     1      10.456   4.776  23.735  0.00  0.00    +0.039 A 
ENDBRANCH   1  18
TORSDOF 3
ENDMDL
MODEL 2
REMARK VINA RESULT:      -6.4      2.661      3.536
REMARK  Name = 
REMARK  3 active torsions:
REMARK  status: ('A' for Active; 'I' for Inactive)
REMARK    1  A    between atoms: C_7  and  C_8
REMARK    2  A    between atoms: N_10  and  C_11
REMARK    3  A    between atoms: C_12  and  C_13
REMARK                            x       y       z     vdW  Elec       q    Type
REMARK                         _______ _______ _______ _____ _____    ______ ____
ROOT
ATOM      1  C   UNL     1       8.714  -1.486  23.883  0.00  0.00    +0.251 C 
ATOM      2  N   UNL     1       7.438  -1.514  24.426  0.00  0.00    -0.275 N 
ATOM      3  H   UNL     1       6.824  -0.723  24.271  0.00  0.00    +0.156 HD
ATOM      4  O   UNL     1       9.378  -2.488  23.634  0.00  0.00    -0.270 OA
ENDROOT
BRANCH   2   5
ATOM      5  C   UNL     1       6.854  -2.736  24.708  0.00  0.00    +0.090 A 
ATOM      6  S   UNL     1       7.132  -3.309  26.287  0.00  0.00    -0.077 S 
ATOM      7  C   UNL     1       6.040  -4.600  26.064  0.00  0.00    -0.004 A 
ATOM      8  C   UNL     1       5.654  -5.536  27.170  0.00  0.00    +0.043 C 
ATOM      9  C   UNL     1       5.019  -6.815  26.598  0.00  0.00    +0.005 C 
ATOM     10  C   UNL     1       4.001  -6.504  25.492  0.00  0.00    +0.005 C 
ATOM     11  C   UNL     1       4.658  -5.779  24.310  0.00  0.00    +0.037 C 
ATOM     12  C   UNL     1       5.563  -4.670  24.767  0.00  0.00    -0.018 A 
ATOM     13  C   UNL     1       6.073  -3.598  23.965  0.00  0.00    +0.084 A 
BRANCH  13  14
ATOM     14  C   UNL     1       5.865  -3.491  22.550  0.00  0.00    +0.102 C 
ATOM     15  N   UNL     1       5.629  -3.476  21.413  0.00  0.00    -0.191 NA
ENDBRANCH  13  14
ENDBRANCH   2   5
BRANCH   1  18
ATOM     16  F   UNL     1       9.231  -0.623  21.148  0.00  0.00    -0.205 F 
ATOM     17  C   UNL     1       9.497   0.218  22.158  0.00  0.00    +0.135 A 
ATOM     18  C   UNL     1       9.272  -0.162  23.483  0.00  0.00    +0.072 A 
ATOM     19  C   UNL     1       9.574   0.759  24.505  0.00  0.00    +0.016 A 
ATOM     20  C   UNL     1      10.094   2.018  24.203  0.00  0.00    +0.001 A 
ATOM     21  C   UNL     1      10.310   2.380  22.876  0.00  0.00    +0.003 A 
ATOM     22  C   UNL     1      10.008   1.479  21.853  0.00  0.00    +0.039 A 
ENDBRANCH   1  18
TORSDOF 3
ENDMDL
MODEL 3
REMARK VINA RESULT:      -6.4      2.616      7.336
REMARK  Name = 
REMARK  3 active torsions:
REMARK  status: ('A' for Active; 'I' for Inactive)
REMARK    1  A    between atoms: C_7  and  C_8
REMARK    2  A    between atoms: N_10  and  C_11
REMARK    3  A    between atoms: C_12  and  C_13
REMARK                            x       y       z     vdW  Elec       q    Type
REMARK                         _______ _______ _______ _____ _____    ______ ____
ROOT
ATOM      1  C   UNL     1       8.236  -1.101  22.596  0.00  0.00    +0.251 C 
ATOM      2  N   UNL     1       7.655  -0.177  23.452  0.00  0.00    -0.275 N 
ATOM      3  H   UNL     1       7.328  -0.490  24.360  0.00  0.00    +0.156 HD
ATOM      4  O   UNL     1       9.022  -0.807  21.699  0.00  0.00    -0.270 OA
ENDROOT
BRANCH   2   5
ATOM      5  C   UNL     1       7.969   1.163  23.310  0.00  0.00    +0.090 A 
ATOM      6  S   UNL     1       6.805   2.079  22.469  0.00  0.00    -0.077 S 
ATOM      7  C   UNL     1       7.617   3.535  22.833  0.00  0.00    -0.004 A 
ATOM      8  C   UNL     1       7.059   4.883  22.486  0.00  0.00    +0.043 C 
ATOM      9  C   UNL     1       8.163   5.953  22.538  0.00  0.00    +0.005 C 
ATOM     10  C   UNL     1       9.044   5.807  23.787  0.00  0.00    +0.005 C 
ATOM     11  C   UNL     1       9.755   4.447  23.819  0.00  0.00    +0.037 C 
ATOM     12  C   UNL     1       8.822   3.320  23.479  0.00  0.00    -0.018 A 
ATOM     13  C   UNL     1       9.043   1.925  23.722  0.00  0.00    +0.084 A 
BRANCH  13  14
ATOM     14  C   UNL     1      10.265   1.391  24.247  0.00  0.00    +0.102 C 
ATOM     15  N   UNL     1      11.228   0.871  24.638  0.00  0.00    -0.191 NA
ENDBRANCH  13  14
ENDBRANCH   2   5
BRANCH   1  18
ATOM     16  F   UNL     1       9.586  -2.751  24.583  0.00  0.00    -0.205 F 
ATOM     17  C   UNL     1       8.633  -3.302  23.816  0.00  0.00    +0.135 A 
ATOM     18  C   UNL     1       7.970  -2.546  22.846  0.00  0.00    +0.072 A 
ATOM     19  C   UNL     1       6.982  -3.177  22.065  0.00  0.00    +0.016 A 
ATOM     20  C   UNL     1       6.678  -4.526  22.249  0.00  0.00    +0.001 A 
ATOM     21  C   UNL     1       7.348  -5.262  23.222  0.00  0.00    +0.003 A 
ATOM     22  C   UNL     1       8.325  -4.648  24.007  0.00  0.00    +0.039 A 
ENDBRANCH   1  18
TORSDOF 3
ENDMDL
MODEL 4
REMARK VINA RESULT:      -6.4      2.715      3.750
REMARK  Name = 
REMARK  3 active torsions:
REMARK  status: ('A' for Active; 'I' for Inactive)
REMARK    1  A    between atoms: C_7  and  C_8
REMARK    2  A    between atoms: N_10  and  C_11
REMARK    3  A    between atoms: C_12  and  C_13
REMARK                            x       y       z     vdW  Elec       q    Type
REMARK                         _______ _______ _______ _____ _____    ______ ____
ROOT
ATOM      1  C   UNL     1       8.665  -1.656  23.847  0.00  0.00    +0.251 C 
ATOM      2  N   UNL     1       7.362  -1.660  24.323  0.00  0.00    -0.275 N 
ATOM      3  H   UNL     1       6.740  -0.907  24.053  0.00  0.00    +0.156 HD
ATOM      4  O   UNL     1       9.362  -2.661  23.742  0.00  0.00    -0.270 OA
ENDROOT
BRANCH   2   5
ATOM      5  C   UNL     1       6.790  -2.860  24.705  0.00  0.00    +0.090 A 
ATOM      6  S   UNL     1       7.012  -3.265  26.344  0.00  0.00    -0.077 S 
ATOM      7  C   UNL     1       5.954  -4.596  26.210  0.00  0.00    -0.004 A 
ATOM      8  C   UNL     1       5.539  -5.424  27.390  0.00  0.00    +0.043 C 
ATOM      9  C   UNL     1       4.953  -6.769  26.926  0.00  0.00    +0.005 C 
ATOM     10  C   UNL     1       3.976  -6.594  25.755  0.00  0.00    +0.005 C 
ATOM     11  C   UNL     1       4.668  -5.977  24.532  0.00  0.00    +0.037 C 
ATOM     12  C   UNL     1       5.532  -4.807  24.910  0.00  0.00    -0.018 A 
ATOM     13  C   UNL     1       6.056  -3.810  24.023  0.00  0.00    +0.084 A 
BRANCH  13  14
ATOM     14  C   UNL     1       5.905  -3.852  22.598  0.00  0.00    +0.102 C 
ATOM     15  N   UNL     1       5.693  -3.847  21.456  0.00  0.00    -0.191 NA
ENDBRANCH  13  14
ENDBRANCH   2   5
BRANCH   1  18
ATOM     16  F   UNL     1      10.450   0.121  25.313  0.00  0.00    -0.205 F 
ATOM     17  C   UNL     1      10.078   0.453  24.067  0.00  0.00    +0.135 A 
ATOM     18  C   UNL     1       9.215  -0.368  23.336  0.00  0.00    +0.072 A 
ATOM     19  C   UNL     1       8.853   0.032  22.035  0.00  0.00    +0.016 A 
ATOM     20  C   UNL     1       9.335   1.222  21.492  0.00  0.00    +0.001 A 
ATOM     21  C   UNL     1      10.195   2.026  22.235  0.00  0.00    +0.003 A 
ATOM     22  C   UNL     1      10.568   1.639  23.523  0.00  0.00    +0.039 A 
ENDBRANCH   1  18
TORSDOF 3
ENDMDL
MODEL 5
REMARK VINA RESULT:      -6.2      3.308      7.786
REMARK  Name = 
REMARK  3 active torsions:
REMARK  status: ('A' for Active; 'I' for Inactive)
REMARK    1  A    between atoms: C_7  and  C_8
REMARK    2  A    between atoms: N_10  and  C_11
REMARK    3  A    between atoms: C_12  and  C_13
REMARK                            x       y       z     vdW  Elec       q    Type
REMARK                         _______ _______ _______ _____ _____    ______ ____
ROOT
ATOM      1  C   UNL     1       7.285  -3.942  24.646  0.00  0.00    +0.251 C 
ATOM      2  N   UNL     1       6.774  -2.663  24.485  0.00  0.00    -0.275 N 
ATOM      3  H   UNL     1       5.919  -2.414  24.969  0.00  0.00    +0.156 HD
ATOM      4  O   UNL     1       8.466  -4.237  24.482  0.00  0.00    -0.270 OA
ENDROOT
BRANCH   2   5
ATOM      5  C   UNL     1       7.630  -1.638  24.122  0.00  0.00    +0.090 A 
ATOM      6  S   UNL     1       7.803  -1.418  22.442  0.00  0.00    -0.077 S 
ATOM      7  C   UNL     1       8.703   0.012  22.673  0.00  0.00    -0.004 A 
ATOM      8  C   UNL     1       9.132   0.892  21.537  0.00  0.00    +0.043 C 
ATOM      9  C   UNL     1      10.259   1.840  21.984  0.00  0.00    +0.005 C 
ATOM     10  C   UNL     1       9.966   2.473  23.351  0.00  0.00    +0.005 C 
ATOM     11  C   UNL     1       9.832   1.409  24.448  0.00  0.00    +0.037 C 
ATOM     12  C   UNL     1       8.976   0.256  24.007  0.00  0.00    -0.018 A 
ATOM     13  C   UNL     1       8.378  -0.736  24.852  0.00  0.00    +0.084 A 
BRANCH  13  14
ATOM     14  C   UNL     1       8.605  -0.823  26.265  0.00  0.00    +0.102 C 
ATOM     15  N   UNL     1       8.880  -0.921  27.388  0.00  0.00    -0.191 NA
ENDBRANCH  13  14
ENDBRANCH   2   5
BRANCH   1  18
ATOM     16  F   UNL     1       7.054  -4.809  27.420  0.00  0.00    -0.205 F 
ATOM     17  C   UNL     1       6.276  -5.383  26.490  0.00  0.00    +0.135 A 
ATOM     18  C   UNL     1       6.365  -5.002  25.148  0.00  0.00    +0.072 A 
ATOM     19  C   UNL     1       5.528  -5.642  24.214  0.00  0.00    +0.016 A 
ATOM     20  C   UNL     1       4.638  -6.639  24.614  0.00  0.00    +0.001 A 
ATOM     21  C   UNL     1       4.563  -7.004  25.956  0.00  0.00    +0.003 A 
ATOM     22  C   UNL     1       5.381  -6.373  26.894  0.00  0.00    +0.039 A 
ENDBRANCH   1  18
TORSDOF 3
ENDMDL
MODEL 6
REMARK VINA RESULT:      -6.1      2.912      4.065
REMARK  Name = 
REMARK  3 active torsions:
REMARK  status: ('A' for Active; 'I' for Inactive)
REMARK    1  A    between atoms: C_7  and  C_8
REMARK    2  A    between atoms: N_10  and  C_11
REMARK    3  A    between atoms: C_12  and  C_13
REMARK                            x       y       z     vdW  Elec       q    Type
REMARK                         _______ _______ _______ _____ _____    ______ ____
ROOT
ATOM      1  C   UNL     1       7.490  -0.935  23.763  0.00  0.00    +0.251 C 
ATOM      2  N   UNL     1       7.725  -2.260  23.430  0.00  0.00    -0.275 N 
ATOM      3  H   UNL     1       8.679  -2.561  23.264  0.00  0.00    +0.156 HD
ATOM      4  O   UNL     1       6.501  -0.545  24.377  0.00  0.00    -0.270 OA
ENDROOT
BRANCH   2   5
ATOM      5  C   UNL     1       6.804  -3.222  23.806  0.00  0.00    +0.090 A 
ATOM      6  S   UNL     1       5.464  -3.369  22.766  0.00  0.00    -0.077 S 
ATOM      7  C   UNL     1       4.911  -4.755  23.593  0.00  0.00    -0.004 A 
ATOM      8  C   UNL     1       3.741  -5.566  23.123  0.00  0.00    +0.043 C 
ATOM      9  C   UNL     1       3.218  -6.465  24.257  0.00  0.00    +0.005 C 
ATOM     10  C   UNL     1       4.361  -7.165  25.006  0.00  0.00    +0.005 C 
ATOM     11  C   UNL     1       5.311  -6.151  25.659  0.00  0.00    +0.037 C 
ATOM     12  C   UNL     1       5.664  -5.032  24.721  0.00  0.00    -0.018 A 
ATOM     13  C   UNL     1       6.750  -4.107  24.864  0.00  0.00    +0.084 A 
BRANCH  13  14
ATOM     14  C   UNL     1       7.612  -4.060  26.009  0.00  0.00    +0.102 C 
ATOM     15  N   UNL     1       8.385  -4.025  26.874  0.00  0.00    -0.191 NA
ENDBRANCH  13  14
ENDBRANCH   2   5
BRANCH   1  18
ATOM     16  F   UNL     1       9.640  -0.124  25.557  0.00  0.00    -0.205 F 
ATOM     17  C   UNL     1       9.574   0.417  24.331  0.00  0.00    +0.135 A 
ATOM     18  C   UNL     1       8.553   0.062  23.446  0.00  0.00    +0.072 A 
ATOM     19  C   UNL     1       8.529   0.665  22.174  0.00  0.00    +0.016 A 
ATOM     20  C   UNL     1       9.495   1.603  21.808  0.00  0.00    +0.001 A 
ATOM     21  C   UNL     1      10.506   1.943  22.703  0.00  0.00    +0.003 A 
ATOM     22  C   UNL     1      10.546   1.348  23.965  0.00  0.00    +0.039 A 
ENDBRANCH   1  18
TORSDOF 3
ENDMDL
MODEL 7
REMARK VINA RESULT:      -6.1      2.346      7.339
REMARK  Name = 
REMARK  3 active torsions:
REMARK  status: ('A' for Active; 'I' for Inactive)
REMARK    1  A    between atoms: C_7  and  C_8
REMARK    2  A    between atoms: N_10  and  C_11
REMARK    3  A    between atoms: C_12  and  C_13
REMARK                            x       y       z     vdW  Elec       q    Type
REMARK                         _______ _______ _______ _____ _____    ______ ____
ROOT
ATOM      1  C   UNL     1       8.209  -0.543  23.326  0.00  0.00    +0.251 C 
ATOM      2  N   UNL     1       8.602   0.099  24.491  0.00  0.00    -0.275 N 
ATOM      3  H   UNL     1       8.891  -0.462  25.284  0.00  0.00    +0.156 HD
ATOM      4  O   UNL     1       8.245  -0.028  22.211  0.00  0.00    -0.270 OA
ENDROOT
BRANCH   2   5
ATOM      5  C   UNL     1       9.073   1.397  24.417  0.00  0.00    +0.090 A 
ATOM      6  S   UNL     1      10.690   1.540  23.903  0.00  0.00    -0.077 S 
ATOM      7  C   UNL     1      10.562   3.238  23.807  0.00  0.00    -0.004 A 
ATOM      8  C   UNL     1      11.659   4.104  23.262  0.00  0.00    +0.043 C 
ATOM      9  C   UNL     1      11.450   5.568  23.686  0.00  0.00    +0.005 C 
ATOM     10  C   UNL     1       9.991   6.012  23.513  0.00  0.00    +0.005 C 
ATOM     11  C   UNL     1       9.040   5.171  24.376  0.00  0.00    +0.037 C 
ATOM     12  C   UNL     1       9.347   3.704  24.277  0.00  0.00    -0.018 A 
ATOM     13  C   UNL     1       8.491   2.623  24.671  0.00  0.00    +0.084 A 
BRANCH  13  14
ATOM     14  C   UNL     1       7.228   2.804  25.325  0.00  0.00    +0.102 C 
ATOM     15  N   UNL     1       6.192   2.854  25.848  0.00  0.00    -0.191 NA
ENDBRANCH  13  14
ENDBRANCH   2   5
BRANCH   1  18
ATOM     16  F   UNL     1      10.006  -2.754  23.943  0.00  0.00    -0.205 F 
ATOM     17  C   UNL     1       8.706  -3.009  23.728  0.00  0.00    +0.135 A 
ATOM     18  C   UNL     1       7.816  -1.978  23.420  0.00  0.00    +0.072 A 
ATOM     19  C   UNL     1       6.464  -2.305  23.198  0.00  0.00    +0.016 A 
ATOM     20  C   UNL     1       6.025  -3.626  23.275  0.00  0.00    +0.001 A 
ATOM     21  C   UNL     1       6.927  -4.640  23.585  0.00  0.00    +0.003 A 
ATOM     22  C   UNL     1       8.268  -4.331  23.814  0.00  0.00    +0.039 A 
ENDBRANCH   1  18
TORSDOF 3
ENDMDL
MODEL 8
REMARK VINA RESULT:      -6.1      2.044      2.318
REMARK  Name = 
REMARK  3 active torsions:
REMARK  status: ('A' for Active; 'I' for Inactive)
REMARK    1  A    between atoms: C_7  and  C_8
REMARK    2  A    between atoms: N_10  and  C_11
REMARK    3  A    between atoms: C_12  and  C_13
REMARK                            x       y       z     vdW  Elec       q    Type
REMARK                         _______ _______ _______ _____ _____    ______ ____
ROOT
ATOM      1  C   UNL     1       8.956   1.309  24.417  0.00  0.00    +0.251 C 
ATOM      2  N   UNL     1       7.960   0.854  23.566  0.00  0.00    -0.275 N 
ATOM      3  H   UNL     1       7.804   1.343  22.692  0.00  0.00    +0.156 HD
ATOM      4  O   UNL     1       9.518   0.608  25.255  0.00  0.00    -0.270 OA
ENDROOT
BRANCH   2   5
ATOM      5  C   UNL     1       7.561  -0.468  23.643  0.00  0.00    +0.090 A 
ATOM      6  S   UNL     1       6.092  -0.721  24.466  0.00  0.00    -0.077 S 
ATOM      7  C   UNL     1       6.069  -2.367  24.021  0.00  0.00    -0.004 A 
ATOM      8  C   UNL     1       4.911  -3.272  24.320  0.00  0.00    +0.043 C 
ATOM      9  C   UNL     1       5.332  -4.746  24.198  0.00  0.00    +0.005 C 
ATOM     10  C   UNL     1       6.173  -4.999  22.939  0.00  0.00    +0.005 C 
ATOM     11  C   UNL     1       7.469  -4.177  22.952  0.00  0.00    +0.037 C 
ATOM     12  C   UNL     1       7.222  -2.753  23.361  0.00  0.00    -0.018 A 
ATOM     13  C   UNL     1       8.112  -1.644  23.176  0.00  0.00    +0.084 A 
BRANCH  13  14
ATOM     14  C   UNL     1       9.441  -1.767  22.650  0.00  0.00    +0.102 C 
ATOM     15  N   UNL     1      10.549  -1.827  22.307  0.00  0.00    -0.191 NA
ENDBRANCH  13  14
ENDBRANCH   2   5
BRANCH   1  18
ATOM     16  F   UNL     1       7.593   3.714  25.338  0.00  0.00    -0.205 F 
ATOM     17  C   UNL     1       8.766   3.834  24.700  0.00  0.00    +0.135 A 
ATOM     18  C   UNL     1       9.445   2.705  24.234  0.00  0.00    +0.072 A 
ATOM     19  C   UNL     1      10.671   2.890  23.565  0.00  0.00    +0.016 A 
ATOM     20  C   UNL     1      11.191   4.168  23.364  0.00  0.00    +0.001 A 
ATOM     21  C   UNL     1      10.501   5.281  23.837  0.00  0.00    +0.003 A 
ATOM     22  C   UNL     1       9.288   5.112  24.507  0.00  0.00    +0.039 A 
ENDBRANCH   1  18
TORSDOF 3
ENDMDL
MODEL 9
REMARK VINA RESULT:      -6.0      2.477      3.391
REMARK  Name = 
REMARK  3 active torsions:
REMARK  status: ('A' for Active; 'I' for Inactive)
REMARK    1  A    between atoms: C_7  and  C_8
REMARK    2  A    between atoms: N_10  and  C_11
REMARK    3  A    between atoms: C_12  and  C_13
REMARK                            x       y       z     vdW  Elec       q    Type
REMARK                         _______ _______ _______ _____ _____    ______ ____
ROOT
ATOM      1  C   UNL     1       9.357   1.948  24.010  0.00  0.00    +0.251 C 
ATOM      2  N   UNL     1       8.319   1.636  23.144  0.00  0.00    -0.275 N 
ATOM      3  H   UNL     1       8.230   2.158  22.280  0.00  0.00    +0.156 HD
ATOM      4  O   UNL     1       9.822   1.166  24.836  0.00  0.00    -0.270 OA
ENDROOT
BRANCH   2   5
ATOM      5  C   UNL     1       7.761   0.371  23.191  0.00  0.00    +0.090 A 
ATOM      6  S   UNL     1       8.546  -0.788  22.220  0.00  0.00    -0.077 S 
ATOM      7  C   UNL     1       7.598  -2.048  22.872  0.00  0.00    -0.004 A 
ATOM      8  C   UNL     1       7.834  -3.492  22.544  0.00  0.00    +0.043 C 
ATOM      9  C   UNL     1       6.602  -4.337  22.914  0.00  0.00    +0.005 C 
ATOM     10  C   UNL     1       6.047  -3.965  24.297  0.00  0.00    +0.005 C 
ATOM     11  C   UNL     1       5.599  -2.498  24.347  0.00  0.00    +0.037 C 
ATOM     12  C   UNL     1       6.613  -1.582  23.724  0.00  0.00    -0.018 A 
ATOM     13  C   UNL     1       6.688  -0.158  23.878  0.00  0.00    +0.084 A 
BRANCH  13  14
ATOM     14  C   UNL     1       5.714   0.619  24.587  0.00  0.00    +0.102 C 
ATOM     15  N   UNL     1       4.909   1.297  25.078  0.00  0.00    -0.191 NA
ENDBRANCH  13  14
ENDBRANCH   2   5
BRANCH   1  18
ATOM     16  F   UNL     1       8.113   4.523  24.572  0.00  0.00    -0.205 F 
ATOM     17  C   UNL     1       9.386   4.491  24.149  0.00  0.00    +0.135 A 
ATOM     18  C   UNL     1      10.014   3.277  23.860  0.00  0.00    +0.072 A 
ATOM     19  C   UNL     1      11.350   3.303  23.414  0.00  0.00    +0.016 A 
ATOM     20  C   UNL     1      12.028   4.512  23.255  0.00  0.00    +0.001 A 
ATOM     21  C   UNL     1      11.386   5.712  23.550  0.00  0.00    +0.003 A 
ATOM     22  C   UNL     1      10.065   5.700  23.999  0.00  0.00    +0.039 A 
ENDBRANCH   1  18
TORSDOF 3
ENDMDL
