MODEL 1
REMARK VINA RESULT:      -6.4      0.000      0.000
REMARK  Name = 
REMARK  4 active torsions:
REMARK  status: ('A' for Active; 'I' for Inactive)
REMARK    1  A    between atoms: O5*_1  and  C5*_2
REMARK    2  A    between atoms: C5*_2  and  C4*_3
REMARK    3  A    between atoms: C1*_6  and  N_12
REMARK    4  A    between atoms: C3*_9  and  O3*_11
REMARK                            x       y       z     vdW  Elec       q    Type
REMARK                         _______ _______ _______ _____ _____    ______ ____
ROOT
ATOM      1  C4* UNL     1      10.071  -0.870  23.470  0.00  0.00    +0.175 C 
ATOM      2  C3* UNL     1       8.931  -1.185  22.506  0.00  0.00    +0.150 C 
ATOM      3  C2* UNL     1       8.498  -2.595  22.869  0.00  0.00    +0.088 C 
ATOM      4  C1* UNL     1       9.387  -2.967  24.051  0.00  0.00    +0.226 C 
ATOM      5  O4* UNL     1       9.873  -1.734  24.602  0.00  0.00    -0.348 OA
ENDROOT
BRANCH   4   6
ATOM      6  N   UNL     1       8.714  -3.763  25.069  0.00  0.00    -0.273 N 
ATOM      7  C   UNL     1       9.360  -4.909  25.509  0.00  0.00    +0.331 A 
ATOM      8  O   UNL     1      10.438  -5.303  25.070  0.00  0.00    -0.246 OA
ATOM      9  N   UNL     1       8.719  -5.608  26.496  0.00  0.00    -0.274 N 
ATOM     10  H   UNL     1       9.199  -6.414  26.863  0.00  0.00    +0.173 HD
ATOM     11  C   UNL     1       7.536  -5.269  27.092  0.00  0.00    +0.267 A 
ATOM     12  O   UNL     1       7.097  -5.922  28.036  0.00  0.00    -0.267 OA
ATOM     13  C   UNL     1       6.843  -4.079  26.525  0.00  0.00    +0.094 A 
ATOM     14  I   UNL     1       5.017  -3.518  27.252  0.00  0.00    -0.037 I 
ATOM     15  C   UNL     1       7.468  -3.402  25.553  0.00  0.00    +0.113 A 
ENDBRANCH   4   6
BRANCH   2  16
ATOM     16  O3* UNL     1       9.380  -1.113  21.157  0.00  0.00    -0.389 OA
ATOM     17  H3* UNL     1      10.345  -0.986  21.177  0.00  0.00    +0.210 HD
ENDBRANCH   2  16
BRANCH   1  18
ATOM     18  C5* UNL     1      10.130   0.594  23.903  0.00  0.00    +0.190 C 
BRANCH  18  19
ATOM     19  O5* UNL     1      10.608   0.724  25.242  0.00  0.00    -0.392 OA
ATOM     20  H5* UNL     1       9.990   1.318  25.702  0.00  0.00    +0.210 HD
ENDBRANCH  18  19
ENDBRANCH   1  18
TORSDOF 4
ENDMDL
MODEL 2
REMARK VINA RESULT:      -6.0      3.049      5.854
REMARK  Name = 
REMARK  4 active torsions:
REMARK  status: ('A' for Active; 'I' for Inactive)
REMARK    1  A    between atoms: O5*_1  and  C5*_2
REMARK    2  A    between atoms: C5*_2  and  C4*_3
REMARK    3  A    between atoms: C1*_6  and  N_12
REMARK    4  A    between atoms: C3*_9  and  O3*_11
REMARK                            x       y       z     vdW  Elec       q    Type
REMARK                         _______ _______ _______ _____ _____    ______ ____
ROOT
ATOM      1  C4* UNL     1       7.582  -5.015  25.637  0.00  0.00    +0.175 C 
ATOM      2  C3* UNL     1       9.091  -4.796  25.699  0.00  0.00    +0.150 C 
ATOM      3  C2* UNL     1       9.377  -3.778  24.609  0.00  0.00    +0.088 C 
ATOM      4  C1* UNL     1       8.004  -3.447  24.035  0.00  0.00    +0.226 C 
ATOM      5  O4* UNL     1       7.043  -3.829  25.029  0.00  0.00    -0.348 OA
ENDROOT
BRANCH   4   6
ATOM      6  N   UNL     1       7.840  -2.047  23.663  0.00  0.00    -0.273 N 
ATOM      7  C   UNL     1       6.657  -1.693  23.032  0.00  0.00    +0.331 A 
ATOM      8  O   UNL     1       5.766  -2.486  22.744  0.00  0.00    -0.246 OA
ATOM      9  N   UNL     1       6.521  -0.363  22.736  0.00  0.00    -0.274 N 
ATOM     10  H   UNL     1       5.645  -0.079  22.325  0.00  0.00    +0.173 HD
ATOM     11  C   UNL     1       7.417   0.629  23.025  0.00  0.00    +0.267 A 
ATOM     12  O   UNL     1       7.149   1.806  22.796  0.00  0.00    -0.267 OA
ATOM     13  C   UNL     1       8.705   0.182  23.624  0.00  0.00    +0.094 A 
ATOM     14  I   UNL     1      10.177   1.545  24.013  0.00  0.00    -0.037 I 
ATOM     15  C   UNL     1       8.841  -1.121  23.904  0.00  0.00    +0.113 A 
ENDBRANCH   4   6
BRANCH   2  16
ATOM     16  O3* UNL     1       9.785  -6.016  25.463  0.00  0.00    -0.389 OA
ATOM     17  H3* UNL     1       9.808  -6.506  26.304  0.00  0.00    +0.210 HD
ENDBRANCH   2  16
BRANCH   1  18
ATOM     18  C5* UNL     1       6.937  -5.275  26.998  0.00  0.00    +0.190 C 
BRANCH  18  19
ATOM     19  O5* UNL     1       7.732  -6.152  27.794  0.00  0.00    -0.392 OA
ATOM     20  H5* UNL     1       8.651  -5.840  27.721  0.00  0.00    +0.210 HD
ENDBRANCH  18  19
ENDBRANCH   1  18
TORSDOF 4
ENDMDL
MODEL 3
REMARK VINA RESULT:      -5.7      3.711      5.612
REMARK  Name = 
REMARK  4 active torsions:
REMARK  status: ('A' for Active; 'I' for Inactive)
REMARK    1  A    between atoms: O5*_1  and  C5*_2
REMARK    2  A    between atoms: C5*_2  and  C4*_3
REMARK    3  A    between atoms: C1*_6  and  N_12
REMARK    4  A    between atoms: C3*_9  and  O3*_11
REMARK                            x       y       z     vdW  Elec       q    Type
REMARK                         _______ _______ _______ _____ _____    ______ ____
ROOT
ATOM      1  C4* UNL     1       6.448  -4.992  22.921  0.00  0.00    +0.175 C 
ATOM      2  C3* UNL     1       5.365  -3.982  22.550  0.00  0.00    +0.150 C 
ATOM      3  C2* UNL     1       5.665  -2.765  23.406  0.00  0.00    +0.088 C 
ATOM      4  C1* UNL     1       6.931  -3.143  24.167  0.00  0.00    +0.226 C 
ATOM      5  O4* UNL     1       7.543  -4.214  23.434  0.00  0.00    -0.348 OA
ENDROOT
BRANCH   4   6
ATOM      6  N   UNL     1       7.863  -2.039  24.352  0.00  0.00    -0.273 N 
ATOM      7  C   UNL     1       8.463  -1.916  25.597  0.00  0.00    +0.331 A 
ATOM      8  O   UNL     1       8.230  -2.655  26.549  0.00  0.00    -0.246 OA
ATOM      9  N   UNL     1       9.365  -0.893  25.720  0.00  0.00    -0.274 N 
ATOM     10  H   UNL     1       9.848  -0.821  26.601  0.00  0.00    +0.173 HD
ATOM     11  C   UNL     1       9.738  -0.018  24.737  0.00  0.00    +0.267 A 
ATOM     12  O   UNL     1      10.628   0.806  24.934  0.00  0.00    -0.267 OA
ATOM     13  C   UNL     1       9.002  -0.141  23.448  0.00  0.00    +0.094 A 
ATOM     14  I   UNL     1       9.386   1.169  21.926  0.00  0.00    -0.037 I 
ATOM     15  C   UNL     1       8.114  -1.135  23.333  0.00  0.00    +0.113 A 
ENDBRANCH   4   6
BRANCH   2  16
ATOM     16  O3* UNL     1       4.072  -4.508  22.833  0.00  0.00    -0.389 OA
ATOM     17  H3* UNL     1       3.708  -4.850  21.998  0.00  0.00    +0.210 HD
ENDBRANCH   2  16
BRANCH   1  18
ATOM     18  C5* UNL     1       6.900  -5.871  21.755  0.00  0.00    +0.190 C 
BRANCH  18  19
ATOM     19  O5* UNL     1       5.787  -6.383  21.023  0.00  0.00    -0.392 OA
ATOM     20  H5* UNL     1       5.869  -7.352  21.032  0.00  0.00    +0.210 HD
ENDBRANCH  18  19
ENDBRANCH   1  18
TORSDOF 4
ENDMDL
MODEL 4
REMARK VINA RESULT:      -5.7      2.742      3.235
REMARK  Name = 
REMARK  4 active torsions:
REMARK  status: ('A' for Active; 'I' for Inactive)
REMARK    1  A    between atoms: O5*_1  and  C5*_2
REMARK    2  A    between atoms: C5*_2  and  C4*_3
REMARK    3  A    between atoms: C1*_6  and  N_12
REMARK    4  A    between atoms: C3*_9  and  O3*_11
REMARK                            x       y       z     vdW  Elec       q    Type
REMARK                         _______ _______ _______ _____ _____    ______ ____
ROOT
ATOM      1  C4* UNL     1       8.847   0.541  23.090  0.00  0.00    +0.175 C 
ATOM      2  C3* UNL     1      10.171  -0.112  23.475  0.00  0.00    +0.150 C 
ATOM      3  C2* UNL     1       9.786  -1.232  24.424  0.00  0.00    +0.088 C 
ATOM      4  C1* UNL     1       8.263  -1.175  24.475  0.00  0.00    +0.226 C 
ATOM      5  O4* UNL     1       7.842  -0.466  23.301  0.00  0.00    -0.348 OA
ENDROOT
BRANCH   4   6
ATOM      6  N   UNL     1       7.624  -2.483  24.551  0.00  0.00    -0.273 N 
ATOM      7  C   UNL     1       7.141  -2.882  25.788  0.00  0.00    +0.331 A 
ATOM      8  O   UNL     1       7.249  -2.219  26.816  0.00  0.00    -0.246 OA
ATOM      9  N   UNL     1       6.509  -4.096  25.812  0.00  0.00    -0.274 N 
ATOM     10  H   UNL     1       6.106  -4.378  26.691  0.00  0.00    +0.173 HD
ATOM     11  C   UNL     1       6.294  -4.920  24.741  0.00  0.00    +0.267 A 
ATOM     12  O   UNL     1       5.631  -5.948  24.861  0.00  0.00    -0.267 OA
ATOM     13  C   UNL     1       6.907  -4.484  23.456  0.00  0.00    +0.094 A 
ATOM     14  I   UNL     1       6.752  -5.669  21.798  0.00  0.00    -0.037 I 
ATOM     15  C   UNL     1       7.533  -3.300  23.437  0.00  0.00    +0.113 A 
ENDBRANCH   4   6
BRANCH   2  16
ATOM     16  O3* UNL     1      11.030   0.831  24.107  0.00  0.00    -0.389 OA
ATOM     17  H3* UNL     1      11.938   0.639  23.816  0.00  0.00    +0.210 HD
ENDBRANCH   2  16
BRANCH   1  18
ATOM     18  C5* UNL     1       8.806   1.062  21.653  0.00  0.00    +0.190 C 
BRANCH  18  19
ATOM     19  O5* UNL     1       9.855   1.999  21.408  0.00  0.00    -0.392 OA
ATOM     20  H5* UNL     1       9.521   2.870  21.684  0.00  0.00    +0.210 HD
ENDBRANCH  18  19
ENDBRANCH   1  18
TORSDOF 4
ENDMDL
MODEL 5
REMARK VINA RESULT:      -5.6      2.636      5.713
REMARK  Name = 
REMARK  4 active torsions:
REMARK  status: ('A' for Active; 'I' for Inactive)
REMARK    1  A    between atoms: O5*_1  and  C5*_2
REMARK    2  A    between atoms: C5*_2  and  C4*_3
REMARK    3  A    between atoms: C1*_6  and  N_12
REMARK    4  A    between atoms: C3*_9  and  O3*_11
REMARK                            x       y       z     vdW  Elec       q    Type
REMARK                         _______ _______ _______ _____ _____    ______ ____
ROOT
ATOM      1  C4* UNL     1       7.709  -4.865  24.524  0.00  0.00    +0.175 C 
ATOM      2  C3* UNL     1       9.031  -4.648  25.254  0.00  0.00    +0.150 C 
ATOM      3  C2* UNL     1       9.709  -3.521  24.495  0.00  0.00    +0.088 C 
ATOM      4  C1* UNL     1       8.703  -3.136  23.416  0.00  0.00    +0.226 C 
ATOM      5  O4* UNL     1       7.427  -3.624  23.855  0.00  0.00    -0.348 OA
ENDROOT
BRANCH   4   6
ATOM      6  N   UNL     1       8.648  -1.706  23.140  0.00  0.00    -0.273 N 
ATOM      7  C   UNL     1       9.639  -1.178  22.328  0.00  0.00    +0.331 A 
ATOM      8  O   UNL     1      10.568  -1.831  21.860  0.00  0.00    -0.246 OA
ATOM      9  N   UNL     1       9.531   0.160  22.056  0.00  0.00    -0.274 N 
ATOM     10  H   UNL     1      10.213   0.550  21.425  0.00  0.00    +0.173 HD
ATOM     11  C   UNL     1       8.537   0.997  22.485  0.00  0.00    +0.267 A 
ATOM     12  O   UNL     1       8.489   2.163  22.102  0.00  0.00    -0.267 OA
ATOM     13  C   UNL     1       7.547   0.398  23.423  0.00  0.00    +0.094 A 
ATOM     14  I   UNL     1       6.068   1.559  24.223  0.00  0.00    -0.037 I 
ATOM     15  C   UNL     1       7.661  -0.908  23.695  0.00  0.00    +0.113 A 
ENDBRANCH   4   6
BRANCH   2  16
ATOM     16  O3* UNL     1       9.817  -5.834  25.231  0.00  0.00    -0.389 OA
ATOM     17  H3* UNL     1       9.378  -6.486  25.803  0.00  0.00    +0.210 HD
ENDBRANCH   2  16
BRANCH   1  18
ATOM     18  C5* UNL     1       6.554  -5.267  25.440  0.00  0.00    +0.190 C 
BRANCH  18  19
ATOM     19  O5* UNL     1       7.015  -6.016  26.564  0.00  0.00    -0.392 OA
ATOM     20  H5* UNL     1       7.094  -5.389  27.304  0.00  0.00    +0.210 HD
ENDBRANCH  18  19
ENDBRANCH   1  18
TORSDOF 4
ENDMDL
MODEL 6
REMARK VINA RESULT:      -5.6      3.453      6.049
REMARK  Name = 
REMARK  4 active torsions:
REMARK  status: ('A' for Active; 'I' for Inactive)
REMARK    1  A    between atoms: O5*_1  and  C5*_2
REMARK    2  A    between atoms: C5*_2  and  C4*_3
REMARK    3  A    between atoms: C1*_6  and  N_12
REMARK    4  A    between atoms: C3*_9  and  O3*_11
REMARK                            x       y       z     vdW  Elec       q    Type
REMARK                         _______ _______ _______ _____ _____    ______ ____
ROOT
ATOM      1  C4* UNL     1       6.998  -4.894  22.704  0.00  0.00    +0.175 C 
ATOM      2  C3* UNL     1       6.121  -4.304  23.805  0.00  0.00    +0.150 C 
ATOM      3  C2* UNL     1       6.898  -3.104  24.314  0.00  0.00    +0.088 C 
ATOM      4  C1* UNL     1       8.142  -3.060  23.433  0.00  0.00    +0.226 C 
ATOM      5  O4* UNL     1       7.832  -3.813  22.252  0.00  0.00    -0.348 OA
ENDROOT
BRANCH   4   6
ATOM      6  N   UNL     1       8.578  -1.712  23.091  0.00  0.00    -0.273 N 
ATOM      7  C   UNL     1       9.928  -1.527  22.836  0.00  0.00    +0.331 A 
ATOM      8  O   UNL     1      10.772  -2.417  22.913  0.00  0.00    -0.246 OA
ATOM      9  N   UNL     1      10.294  -0.258  22.477  0.00  0.00    -0.274 N 
ATOM     10  H   UNL     1      11.263  -0.117  22.237  0.00  0.00    +0.173 HD
ATOM     11  C   UNL     1       9.459   0.815  22.325  0.00  0.00    +0.267 A 
ATOM     12  O   UNL     1       9.884   1.889  21.907  0.00  0.00    -0.267 OA
ATOM     13  C   UNL     1       8.035   0.583  22.694  0.00  0.00    +0.094 A 
ATOM     14  I   UNL     1       6.696   2.125  22.613  0.00  0.00    -0.037 I 
ATOM     15  C   UNL     1       7.681  -0.657  23.054  0.00  0.00    +0.113 A 
ENDBRANCH   4   6
BRANCH   2  16
ATOM     16  O3* UNL     1       5.905  -5.258  24.838  0.00  0.00    -0.389 OA
ATOM     17  H3* UNL     1       4.963  -5.216  25.082  0.00  0.00    +0.210 HD
ENDBRANCH   2  16
BRANCH   1  18
ATOM     18  C5* UNL     1       6.211  -5.501  21.542  0.00  0.00    +0.190 C 
BRANCH  18  19
ATOM     19  O5* UNL     1       5.110  -6.280  22.008  0.00  0.00    -0.392 OA
ATOM     20  H5* UNL     1       5.473  -7.137  22.288  0.00  0.00    +0.210 HD
ENDBRANCH  18  19
ENDBRANCH   1  18
TORSDOF 4
ENDMDL
MODEL 7
REMARK VINA RESULT:      -5.5      2.713      5.908
REMARK  Name = 
REMARK  4 active torsions:
REMARK  status: ('A' for Active; 'I' for Inactive)
REMARK    1  A    between atoms: O5*_1  and  C5*_2
REMARK    2  A    between atoms: C5*_2  and  C4*_3
REMARK    3  A    between atoms: C1*_6  and  N_12
REMARK    4  A    between atoms: C3*_9  and  O3*_11
REMARK                            x       y       z     vdW  Elec       q    Type
REMARK                         _______ _______ _______ _____ _____    ______ ____
ROOT
ATOM      1  C4* UNL     1       6.311  -4.897  26.109  0.00  0.00    +0.175 C 
ATOM      2  C3* UNL     1       7.552  -4.722  26.980  0.00  0.00    +0.150 C 
ATOM      3  C2* UNL     1       8.636  -4.270  26.017  0.00  0.00    +0.088 C 
ATOM      4  C1* UNL     1       7.925  -4.167  24.672  0.00  0.00    +0.226 C 
ATOM      5  O4* UNL     1       6.523  -4.062  24.958  0.00  0.00    -0.348 OA
ENDROOT
BRANCH   4   6
ATOM      6  N   UNL     1       8.374  -3.052  23.849  0.00  0.00    -0.273 N 
ATOM      7  C   UNL     1       8.043  -3.083  22.503  0.00  0.00    +0.331 A 
ATOM      8  O   UNL     1       7.429  -4.001  21.965  0.00  0.00    -0.246 OA
ATOM      9  N   UNL     1       8.444  -1.998  21.770  0.00  0.00    -0.274 N 
ATOM     10  H   UNL     1       8.166  -1.979  20.801  0.00  0.00    +0.173 HD
ATOM     11  C   UNL     1       9.105  -0.898  22.244  0.00  0.00    +0.267 A 
ATOM     12  O   UNL     1       9.334   0.062  21.512  0.00  0.00    -0.267 OA
ATOM     13  C   UNL     1       9.510  -0.955  23.676  0.00  0.00    +0.094 A 
ATOM     14  I   UNL     1      10.594   0.575  24.490  0.00  0.00    -0.037 I 
ATOM     15  C   UNL     1       9.125  -2.021  24.388  0.00  0.00    +0.113 A 
ENDBRANCH   4   6
BRANCH   2  16
ATOM     16  O3* UNL     1       7.899  -5.949  27.611  0.00  0.00    -0.389 OA
ATOM     17  H3* UNL     1       7.128  -6.239  28.130  0.00  0.00    +0.210 HD
ENDBRANCH   2  16
BRANCH   1  18
ATOM     18  C5* UNL     1       5.004  -4.536  26.814  0.00  0.00    +0.190 C 
BRANCH  18  19
ATOM     19  O5* UNL     1       4.994  -4.997  28.165  0.00  0.00    -0.392 OA
ATOM     20  H5* UNL     1       5.228  -5.941  28.140  0.00  0.00    +0.210 HD
ENDBRANCH  18  19
ENDBRANCH   1  18
TORSDOF 4
ENDMDL
MODEL 8
REMARK VINA RESULT:      -5.5      3.153      5.645
REMARK  Name = 
REMARK  4 active torsions:
REMARK  status: ('A' for Active; 'I' for Inactive)
REMARK    1  A    between atoms: O5*_1  and  C5*_2
REMARK    2  A    between atoms: C5*_2  and  C4*_3
REMARK    3  A    between atoms: C1*_6  and  N_12
REMARK    4  A    between atoms: C3*_9  and  O3*_11
REMARK                            x       y       z     vdW  Elec       q    Type
REMARK                         _______ _______ _______ _____ _____    ______ ____
ROOT
ATOM      1  C4* UNL     1       7.957  -4.599  24.722  0.00  0.00    +0.175 C 
ATOM      2  C3* UNL     1       7.686  -4.946  23.261  0.00  0.00    +0.150 C 
ATOM      3  C2* UNL     1       7.460  -3.607  22.583  0.00  0.00    +0.088 C 
ATOM      4  C1* UNL     1       7.671  -2.583  23.693  0.00  0.00    +0.226 C 
ATOM      5  O4* UNL     1       8.431  -3.242  24.717  0.00  0.00    -0.348 OA
ENDROOT
BRANCH   4   6
ATOM      6  N   UNL     1       8.334  -1.362  23.255  0.00  0.00    -0.273 N 
ATOM      7  C   UNL     1       9.705  -1.422  23.054  0.00  0.00    +0.331 A 
ATOM      8  O   UNL     1      10.388  -2.423  23.254  0.00  0.00    -0.246 OA
ATOM      9  N   UNL     1      10.287  -0.268  22.602  0.00  0.00    -0.274 N 
ATOM     10  H   UNL     1      11.274  -0.308  22.400  0.00  0.00    +0.173 HD
ATOM     11  C   UNL     1       9.645   0.905  22.312  0.00  0.00    +0.267 A 
ATOM     12  O   UNL     1      10.256   1.852  21.822  0.00  0.00    -0.267 OA
ATOM     13  C   UNL     1       8.190   0.940  22.626  0.00  0.00    +0.094 A 
ATOM     14  I   UNL     1       7.126   2.662  22.339  0.00  0.00    -0.037 I 
ATOM     15  C   UNL     1       7.625  -0.186  23.078  0.00  0.00    +0.113 A 
ENDBRANCH   4   6
BRANCH   2  16
ATOM     16  O3* UNL     1       6.540  -5.783  23.149  0.00  0.00    -0.389 OA
ATOM     17  H3* UNL     1       6.639  -6.502  23.797  0.00  0.00    +0.210 HD
ENDBRANCH   2  16
BRANCH   1  18
ATOM     18  C5* UNL     1       8.962  -5.527  25.404  0.00  0.00    +0.190 C 
BRANCH  18  19
ATOM     19  O5* UNL     1      10.300  -5.231  25.004  0.00  0.00    -0.392 OA
ATOM     20  H5* UNL     1      10.636  -4.562  25.626  0.00  0.00    +0.210 HD
ENDBRANCH  18  19
ENDBRANCH   1  18
TORSDOF 4
ENDMDL
MODEL 9
REMARK VINA RESULT:      -5.5      2.171      2.866
REMARK  Name = 
REMARK  4 active torsions:
REMARK  status: ('A' for Active; 'I' for Inactive)
REMARK    1  A    between atoms: O5*_1  and  C5*_2
REMARK    2  A    between atoms: C5*_2  and  C4*_3
REMARK    3  A    between atoms: C1*_6  and  N_12
REMARK    4  A    between atoms: C3*_9  and  O3*_11
REMARK                            x       y       z     vdW  Elec       q    Type
REMARK                         _______ _______ _______ _____ _____    ______ ____
ROOT
ATOM      1  C4* UNL     1       9.688   2.068  23.819  0.00  0.00    +0.175 C 
ATOM      2  C3* UNL     1       9.347   1.714  22.374  0.00  0.00    +0.150 C 
ATOM      3  C2* UNL     1       9.323   0.196  22.345  0.00  0.00    +0.088 C 
ATOM      4  C1* UNL     1       9.601  -0.211  23.788  0.00  0.00    +0.226 C 
ATOM      5  O4* UNL     1       9.290   0.929  24.602  0.00  0.00    -0.348 OA
ENDROOT
BRANCH   4   6
ATOM      6  N   UNL     1       8.853  -1.383  24.227  0.00  0.00    -0.273 N 
ATOM      7  C   UNL     1       9.462  -2.619  24.071  0.00  0.00    +0.331 A 
ATOM      8  O   UNL     1      10.566  -2.784  23.561  0.00  0.00    -0.246 OA
ATOM      9  N   UNL     1       8.748  -3.692  24.534  0.00  0.00    -0.274 N 
ATOM     10  H   UNL     1       9.197  -4.592  24.476  0.00  0.00    +0.173 HD
ATOM     11  C   UNL     1       7.525  -3.650  25.146  0.00  0.00    +0.267 A 
ATOM     12  O   UNL     1       7.017  -4.670  25.606  0.00  0.00    -0.267 OA
ATOM     13  C   UNL     1       6.880  -2.310  25.210  0.00  0.00    +0.094 A 
ATOM     14  I   UNL     1       5.008  -2.116  26.007  0.00  0.00    -0.037 I 
ATOM     15  C   UNL     1       7.576  -1.263  24.749  0.00  0.00    +0.113 A 
ENDBRANCH   4   6
BRANCH   2  16
ATOM     16  O3* UNL     1      10.329   2.234  21.485  0.00  0.00    -0.389 OA
ATOM     17  H3* UNL     1       9.865   2.768  20.818  0.00  0.00    +0.210 HD
ENDBRANCH   2  16
BRANCH   1  18
ATOM     18  C5* UNL     1       9.010   3.342  24.322  0.00  0.00    +0.190 C 
BRANCH  18  19
ATOM     19  O5* UNL     1       8.868   4.306  23.279  0.00  0.00    -0.392 OA
ATOM     20  H5* UNL     1       9.454   4.022  22.555  0.00  0.00    +0.210 HD
ENDBRANCH  18  19
ENDBRANCH   1  18
TORSDOF 4
ENDMDL
