MODEL 1
REMARK VINA RESULT:      -6.7      0.000      0.000
REMARK  Name = 
REMARK  24 active torsions:
REMARK  status: ('A' for Active; 'I' for Inactive)
REMARK    1  A    between atoms: C_1  and  N_2
REMARK    2  A    between atoms: N_2  and  C_3
REMARK    3  A    between atoms: N_2  and  C_4
REMARK    4  A    between atoms: C_9  and  C_10
REMARK    5  A    between atoms: N_20  and  C_21
REMARK    6  A    between atoms: C_21  and  C_22
REMARK    7  A    between atoms: C_22  and  O_24
REMARK    8  A    between atoms: C_22  and  C_25
REMARK    9  A    between atoms: C_25  and  O_27
REMARK   10  A    between atoms: C_25  and  C_28
REMARK   11  A    between atoms: C_28  and  O_30
REMARK   12  A    between atoms: C_28  and  C_31
REMARK   13  A    between atoms: C_31  and  O_32
REMARK   14  A    between atoms: O_32  and  P_33
REMARK   15  A    between atoms: P_33  and  O_34
REMARK   16  A    between atoms: P_33  and  O_36
REMARK   17  A    between atoms: O_36  and  P_37
REMARK   18  A    between atoms: P_37  and  O_38
REMARK   19  A    between atoms: P_37  and  O_40
REMARK   20  A    between atoms: O_40  and  C_41
REMARK   21  A    between atoms: C_41  and  C_42
REMARK   22  A    between atoms: C_45  and  N_53
REMARK   23  A    between atoms: C_47  and  O_49
REMARK   24  A    between atoms: C_50  and  O_52
REMARK                            x       y       z     vdW  Elec       q    Type
REMARK                         _______ _______ _______ _____ _____    ______ ____
ROOT
ATOM      1  O   UNL     1       7.332   2.224  24.641  0.00  0.00    -0.284 OA
ENDROOT
BRANCH   1   2
ATOM      2  P   UNL     1       7.029   0.682  25.117  0.00  0.00    +0.483 P 
ATOM      3  O   UNL     1       7.569   0.510  26.539  0.00  0.00    -0.227 OA
BRANCH   2   4
ATOM      4  O   UNL     1       5.533   1.208  25.809  0.00  0.00    -0.302 OA
ATOM      5  H   UNL     1       5.146   1.791  25.126  0.00  0.00    +0.222 HD
ENDBRANCH   2   4
BRANCH   2   6
ATOM      6  O   UNL     1       8.525   0.157  24.425  0.00  0.00    -0.186 OA
BRANCH   6   7
ATOM      7  P   UNL     1       7.926  -0.257  22.925  0.00  0.00    +0.483 P 
ATOM      8  O   UNL     1       8.693   0.376  21.799  0.00  0.00    -0.227 OA
BRANCH   7   9
ATOM      9  O   UNL     1       6.443   0.339  22.895  0.00  0.00    -0.302 OA
ATOM     10  H   UNL     1       5.929  -0.161  22.231  0.00  0.00    +0.222 HD
ENDBRANCH   7   9
BRANCH   7  11
ATOM     11  O   UNL     1       7.669  -1.855  22.599  0.00  0.00    -0.284 OA
BRANCH  11  12
ATOM     12  C   UNL     1       8.449  -2.670  23.524  0.00  0.00    +0.206 C 
BRANCH  12  13
ATOM     13  C   UNL     1       8.319  -4.195  23.766  0.00  0.00    +0.178 C 
ATOM     14  C   UNL     1       8.904  -4.803  25.035  0.00  0.00    +0.178 C 
ATOM     15  C   UNL     1       7.698  -5.160  25.893  0.00  0.00    +0.195 C 
ATOM     16  C   UNL     1       6.492  -4.784  25.020  0.00  0.00    +0.253 C 
ATOM     17  O   UNL     1       6.962  -4.642  23.673  0.00  0.00    -0.346 OA
BRANCH  16  18
ATOM     18  N   UNL     1       5.432  -5.771  25.061  0.00  0.00    -0.286 N 
ATOM     19  C   UNL     1       4.528  -5.880  26.082  0.00  0.00    +0.167 A 
ATOM     20  N   UNL     1       4.469  -5.141  27.203  0.00  0.00    -0.216 NA
ATOM     21  C   UNL     1       3.415  -5.520  27.959  0.00  0.00    +0.225 A 
ATOM     22  N   UNL     1       2.521  -6.505  27.722  0.00  0.00    -0.219 NA
ATOM     23  C   UNL     1       2.656  -7.242  26.596  0.00  0.00    +0.147 A 
ATOM     24  N   UNL     1       1.752  -8.269  26.360  0.00  0.00    -0.341 N 
ATOM     25  H   UNL     1       1.704  -8.544  25.385  0.00  0.00    +0.144 HD
ATOM     26  H   UNL     1       0.880  -8.137  26.855  0.00  0.00    +0.144 HD
ATOM     27  C   UNL     1       3.695  -6.921  25.708  0.00  0.00    +0.147 A 
ATOM     28  N   UNL     1       4.071  -7.436  24.485  0.00  0.00    -0.231 NA
ATOM     29  C   UNL     1       5.113  -6.716  24.123  0.00  0.00    +0.203 A 
ENDBRANCH  16  18
BRANCH  15  30
ATOM     30  O   UNL     1       7.723  -4.414  27.110  0.00  0.00    -0.385 OA
ATOM     31  H   UNL     1       8.641  -4.456  27.449  0.00  0.00    +0.210 HD
ENDBRANCH  15  30
BRANCH  14  32
ATOM     32  O   UNL     1       9.615  -6.017  24.701  0.00  0.00    -0.386 OA
ATOM     33  H   UNL     1      10.535  -5.804  24.459  0.00  0.00    +0.210 HD
ENDBRANCH  14  32
ENDBRANCH  12  13
ENDBRANCH  11  12
ENDBRANCH   7  11
ENDBRANCH   6   7
ENDBRANCH   2   6
ENDBRANCH   1   2
BRANCH   1  34
ATOM     34  C   UNL     1       8.684   2.697  24.657  0.00  0.00    +0.206 C 
BRANCH  34  35
ATOM     35  C   UNL     1       8.853   3.612  23.445  0.00  0.00    +0.172 C 
BRANCH  35  36
ATOM     36  O   UNL     1       9.761   2.983  22.522  0.00  0.00    -0.387 OA
ATOM     37  H   UNL     1       9.520   2.038  22.524  0.00  0.00    +0.210 HD
ENDBRANCH  35  36
BRANCH  35  38
ATOM     38  C   UNL     1       7.523   3.960  22.733  0.00  0.00    +0.175 C 
BRANCH  38  39
ATOM     39  O   UNL     1       7.286   3.063  21.640  0.00  0.00    -0.387 OA
ATOM     40  H   UNL     1       7.778   2.239  21.807  0.00  0.00    +0.210 HD
ENDBRANCH  38  39
BRANCH  38  41
ATOM     41  C   UNL     1       7.568   5.424  22.239  0.00  0.00    +0.165 C 
BRANCH  41  42
ATOM     42  O   UNL     1       8.836   5.986  22.610  0.00  0.00    -0.387 OA
ATOM     43  H   UNL     1       9.417   5.238  22.831  0.00  0.00    +0.210 HD
ENDBRANCH  41  42
BRANCH  41  44
ATOM     44  C   UNL     1       6.434   6.285  22.829  0.00  0.00    +0.158 C 
BRANCH  44  53
ATOM     45  C   UNL     1       2.592   4.342  22.053  0.00  0.00    +0.034 A 
ATOM     46  C   UNL     1       1.988   3.631  23.117  0.00  0.00    -0.027 A 
ATOM     47  C   UNL     1       0.676   2.894  23.056  0.00  0.00    +0.046 C 
ATOM     48  C   UNL     1       2.606   3.586  24.386  0.00  0.00    +0.035 A 
ATOM     49  C   UNL     1       3.823   4.221  24.648  0.00  0.00    +0.089 A 
ATOM     50  N   UNL     1       4.337   4.113  25.948  0.00  0.00    -0.237 NA
ATOM     51  C   UNL     1       5.466   4.692  26.220  0.00  0.00    +0.171 A 
ATOM     52  C   UNL     1       6.238   5.477  25.191  0.00  0.00    +0.170 A 
ATOM     53  N   UNL     1       5.710   5.566  23.901  0.00  0.00    -0.319 N 
ATOM     54  N   UNL     1       7.352   6.041  25.543  0.00  0.00    -0.173 NA
ATOM     55  C   UNL     1       7.864   5.969  26.804  0.00  0.00    +0.351 A 
ATOM     56  O   UNL     1       8.956   6.443  27.097  0.00  0.00    -0.245 OA
ATOM     57  N   UNL     1       7.160   5.332  27.788  0.00  0.00    -0.272 N 
ATOM     58  H   UNL     1       7.615   5.284  28.691  0.00  0.00    +0.174 HD
ATOM     59  C   UNL     1       6.032   4.597  27.614  0.00  0.00    +0.282 A 
ATOM     60  O   UNL     1       5.526   3.916  28.488  0.00  0.00    -0.265 OA
ATOM     61  C   UNL     1       4.473   4.942  23.620  0.00  0.00    +0.071 A 
ATOM     62  C   UNL     1       3.828   4.979  22.369  0.00  0.00    +0.051 A 
BRANCH  45  64
ATOM     63  C   UNL     1       1.736   5.786  20.211  0.00  0.00    +0.129 C 
ATOM     64  N   UNL     1       2.081   4.467  20.756  0.00  0.00    -0.336 N 
ATOM     65  C   UNL     1       1.943   3.361  19.818  0.00  0.00    +0.129 C 
ENDBRANCH  45  64
ENDBRANCH  44  53
ENDBRANCH  41  44
ENDBRANCH  38  41
ENDBRANCH  35  38
ENDBRANCH  34  35
ENDBRANCH   1  34
TORSDOF 21
ENDMDL
MODEL 2
REMARK VINA RESULT:      -6.7      2.729      4.540
REMARK  Name = 
REMARK  24 active torsions:
REMARK  status: ('A' for Active; 'I' for Inactive)
REMARK    1  A    between atoms: C_1  and  N_2
REMARK    2  A    between atoms: N_2  and  C_3
REMARK    3  A    between atoms: N_2  and  C_4
REMARK    4  A    between atoms: C_9  and  C_10
REMARK    5  A    between atoms: N_20  and  C_21
REMARK    6  A    between atoms: C_21  and  C_22
REMARK    7  A    between atoms: C_22  and  O_24
REMARK    8  A    between atoms: C_22  and  C_25
REMARK    9  A    between atoms: C_25  and  O_27
REMARK   10  A    between atoms: C_25  and  C_28
REMARK   11  A    between atoms: C_28  and  O_30
REMARK   12  A    between atoms: C_28  and  C_31
REMARK   13  A    between atoms: C_31  and  O_32
REMARK   14  A    between atoms: O_32  and  P_33
REMARK   15  A    between atoms: P_33  and  O_34
REMARK   16  A    between atoms: P_33  and  O_36
REMARK   17  A    between atoms: O_36  and  P_37
REMARK   18  A    between atoms: P_37  and  O_38
REMARK   19  A    between atoms: P_37  and  O_40
REMARK   20  A    between atoms: O_40  and  C_41
REMARK   21  A    between atoms: C_41  and  C_42
REMARK   22  A    between atoms: C_45  and  N_53
REMARK   23  A    between atoms: C_47  and  O_49
REMARK   24  A    between atoms: C_50  and  O_52
REMARK                            x       y       z     vdW  Elec       q    Type
REMARK                         _______ _______ _______ _____ _____    ______ ____
ROOT
ATOM      1  O   UNL     1       7.735   2.376  25.990  0.00  0.00    -0.284 OA
ENDROOT
BRANCH   1   2
ATOM      2  P   UNL     1       6.671   2.283  27.238  0.00  0.00    +0.483 P 
ATOM      3  O   UNL     1       7.230   1.295  28.265  0.00  0.00    -0.227 OA
BRANCH   2   4
ATOM      4  O   UNL     1       7.544   3.536  28.052  0.00  0.00    -0.302 OA
ATOM      5  H   UNL     1       8.387   3.112  28.309  0.00  0.00    +0.222 HD
ENDBRANCH   2   4
BRANCH   2   6
ATOM      6  O   UNL     1       5.798   1.032  26.423  0.00  0.00    -0.186 OA
BRANCH   6   7
ATOM      7  P   UNL     1       4.378   1.175  27.284  0.00  0.00    +0.483 P 
ATOM      8  O   UNL     1       3.163   1.199  26.400  0.00  0.00    -0.227 OA
BRANCH   7   9
ATOM      9  O   UNL     1       4.476   2.597  28.008  0.00  0.00    -0.302 OA
ATOM     10  H   UNL     1       4.747   2.446  28.935  0.00  0.00    +0.222 HD
ENDBRANCH   7   9
BRANCH   7  11
ATOM     11  O   UNL     1       4.126   0.151  28.554  0.00  0.00    -0.284 OA
BRANCH  11  12
ATOM     12  C   UNL     1       3.112  -0.833  28.190  0.00  0.00    +0.206 C 
BRANCH  12  13
ATOM     13  C   UNL     1       3.340  -2.196  27.490  0.00  0.00    +0.178 C 
ATOM     14  C   UNL     1       3.212  -2.289  25.974  0.00  0.00    +0.178 C 
ATOM     15  C   UNL     1       4.637  -2.458  25.467  0.00  0.00    +0.195 C 
ATOM     16  C   UNL     1       5.486  -2.512  26.746  0.00  0.00    +0.253 C 
ATOM     17  O   UNL     1       4.599  -2.779  27.841  0.00  0.00    -0.346 OA
BRANCH  16  18
ATOM     18  N   UNL     1       6.518  -3.528  26.700  0.00  0.00    -0.286 N 
ATOM     19  C   UNL     1       7.598  -3.483  25.862  0.00  0.00    +0.167 A 
ATOM     20  N   UNL     1       7.882  -2.541  24.946  0.00  0.00    -0.216 NA
ATOM     21  C   UNL     1       9.054  -2.821  24.334  0.00  0.00    +0.225 A 
ATOM     22  N   UNL     1       9.871  -3.881  24.525  0.00  0.00    -0.219 NA
ATOM     23  C   UNL     1       9.511  -4.817  25.433  0.00  0.00    +0.147 A 
ATOM     24  N   UNL     1      10.337  -5.918  25.616  0.00  0.00    -0.341 N 
ATOM     25  H   UNL     1      10.193  -6.383  26.506  0.00  0.00    +0.144 HD
ATOM     26  H   UNL     1      11.289  -5.739  25.327  0.00  0.00    +0.144 HD
ATOM     27  C   UNL     1       8.327  -4.621  26.162  0.00  0.00    +0.147 A 
ATOM     28  N   UNL     1       7.717  -5.346  27.164  0.00  0.00    -0.231 NA
ATOM     29  C   UNL     1       6.636  -4.655  27.468  0.00  0.00    +0.203 A 
ENDBRANCH  16  18
BRANCH  15  30
ATOM     30  O   UNL     1       4.999  -1.351  24.640  0.00  0.00    -0.385 OA
ATOM     31  H   UNL     1       4.210  -0.774  24.581  0.00  0.00    +0.210 HD
ENDBRANCH  15  30
BRANCH  14  32
ATOM     32  O   UNL     1       2.452  -3.470  25.629  0.00  0.00    -0.386 OA
ATOM     33  H   UNL     1       1.525  -3.225  25.451  0.00  0.00    +0.210 HD
ENDBRANCH  14  32
ENDBRANCH  12  13
ENDBRANCH  11  12
ENDBRANCH   7  11
ENDBRANCH   6   7
ENDBRANCH   2   6
ENDBRANCH   1   2
BRANCH   1  34
ATOM     34  C   UNL     1       8.167   1.163  25.362  0.00  0.00    +0.206 C 
BRANCH  34  35
ATOM     35  C   UNL     1       8.108   1.395  23.853  0.00  0.00    +0.172 C 
BRANCH  35  36
ATOM     36  O   UNL     1       8.131   0.115  23.194  0.00  0.00    -0.387 OA
ATOM     37  H   UNL     1       8.467  -0.514  23.859  0.00  0.00    +0.210 HD
ENDBRANCH  35  36
BRANCH  35  38
ATOM     38  C   UNL     1       6.876   2.211  23.392  0.00  0.00    +0.175 C 
BRANCH  38  39
ATOM     39  O   UNL     1       5.728   1.363  23.261  0.00  0.00    -0.387 OA
ATOM     40  H   UNL     1       6.022   0.499  22.922  0.00  0.00    +0.210 HD
ENDBRANCH  38  39
BRANCH  38  41
ATOM     41  C   UNL     1       7.193   2.915  22.052  0.00  0.00    +0.165 C 
BRANCH  41  42
ATOM     42  O   UNL     1       8.598   2.778  21.793  0.00  0.00    -0.387 OA
ATOM     43  H   UNL     1       8.886   3.609  21.377  0.00  0.00    +0.210 HD
ENDBRANCH  41  42
BRANCH  41  44
ATOM     44  C   UNL     1       6.818   4.410  22.064  0.00  0.00    +0.158 C 
BRANCH  44  53
ATOM     45  C   UNL     1       3.160   4.782  24.433  0.00  0.00    +0.034 A 
ATOM     46  C   UNL     1       3.279   5.276  25.754  0.00  0.00    -0.027 A 
ATOM     47  C   UNL     1       2.149   5.476  26.729  0.00  0.00    +0.046 C 
ATOM     48  C   UNL     1       4.541   5.656  26.262  0.00  0.00    +0.035 A 
ATOM     49  C   UNL     1       5.712   5.559  25.505  0.00  0.00    +0.089 A 
ATOM     50  N   UNL     1       6.906   5.973  26.112  0.00  0.00    -0.237 NA
ATOM     51  C   UNL     1       8.009   5.893  25.433  0.00  0.00    +0.171 A 
ATOM     52  C   UNL     1       8.049   5.378  24.018  0.00  0.00    +0.170 A 
ATOM     53  N   UNL     1       6.848   4.966  23.434  0.00  0.00    -0.319 N 
ATOM     54  N   UNL     1       9.188   5.344  23.397  0.00  0.00    -0.173 NA
ATOM     55  C   UNL     1      10.359   5.758  23.958  0.00  0.00    +0.351 A 
ATOM     56  O   UNL     1      11.437   5.645  23.383  0.00  0.00    -0.245 OA
ATOM     57  N   UNL     1      10.358   6.303  25.211  0.00  0.00    -0.272 N 
ATOM     58  H   UNL     1      11.267   6.556  25.580  0.00  0.00    +0.174 HD
ATOM     59  C   UNL     1       9.302   6.342  26.064  0.00  0.00    +0.282 A 
ATOM     60  O   UNL     1       9.385   6.691  27.228  0.00  0.00    -0.265 OA
ATOM     61  C   UNL     1       5.652   5.069  24.179  0.00  0.00    +0.071 A 
ATOM     62  C   UNL     1       4.379   4.709  23.697  0.00  0.00    +0.051 A 
BRANCH  45  64
ATOM     63  C   UNL     1       1.365   5.197  22.754  0.00  0.00    +0.129 C 
ATOM     64  N   UNL     1       1.971   4.380  23.812  0.00  0.00    -0.336 N 
ATOM     65  C   UNL     1       1.300   3.113  24.069  0.00  0.00    +0.129 C 
ENDBRANCH  45  64
ENDBRANCH  44  53
ENDBRANCH  41  44
ENDBRANCH  38  41
ENDBRANCH  35  38
ENDBRANCH  34  35
ENDBRANCH   1  34
TORSDOF 21
ENDMDL
MODEL 3
REMARK VINA RESULT:      -6.5      3.622      6.669
REMARK  Name = 
REMARK  24 active torsions:
REMARK  status: ('A' for Active; 'I' for Inactive)
REMARK    1  A    between atoms: C_1  and  N_2
REMARK    2  A    between atoms: N_2  and  C_3
REMARK    3  A    between atoms: N_2  and  C_4
REMARK    4  A    between atoms: C_9  and  C_10
REMARK    5  A    between atoms: N_20  and  C_21
REMARK    6  A    between atoms: C_21  and  C_22
REMARK    7  A    between atoms: C_22  and  O_24
REMARK    8  A    between atoms: C_22  and  C_25
REMARK    9  A    between atoms: C_25  and  O_27
REMARK   10  A    between atoms: C_25  and  C_28
REMARK   11  A    between atoms: C_28  and  O_30
REMARK   12  A    between atoms: C_28  and  C_31
REMARK   13  A    between atoms: C_31  and  O_32
REMARK   14  A    between atoms: O_32  and  P_33
REMARK   15  A    between atoms: P_33  and  O_34
REMARK   16  A    between atoms: P_33  and  O_36
REMARK   17  A    between atoms: O_36  and  P_37
REMARK   18  A    between atoms: P_37  and  O_38
REMARK   19  A    between atoms: P_37  and  O_40
REMARK   20  A    between atoms: O_40  and  C_41
REMARK   21  A    between atoms: C_41  and  C_42
REMARK   22  A    between atoms: C_45  and  N_53
REMARK   23  A    between atoms: C_47  and  O_49
REMARK   24  A    between atoms: C_50  and  O_52
REMARK                            x       y       z     vdW  Elec       q    Type
REMARK                         _______ _______ _______ _____ _____    ______ ____
ROOT
ATOM      1  O   UNL     1       2.801  -1.757  26.323  0.00  0.00    -0.284 OA
ENDROOT
BRANCH   1   2
ATOM      2  P   UNL     1       2.472  -3.362  26.205  0.00  0.00    +0.483 P 
ATOM      3  O   UNL     1       3.442  -4.113  27.121  0.00  0.00    -0.227 OA
BRANCH   2   4
ATOM      4  O   UNL     1       1.395  -3.222  27.553  0.00  0.00    -0.302 OA
ATOM      5  H   UNL     1       0.615  -2.760  27.188  0.00  0.00    +0.222 HD
ENDBRANCH   2   4
BRANCH   2   6
ATOM      6  O   UNL     1       3.547  -3.501  24.858  0.00  0.00    -0.186 OA
BRANCH   6   7
ATOM      7  P   UNL     1       3.131  -5.054  24.419  0.00  0.00    +0.483 P 
ATOM      8  O   UNL     1       2.722  -5.161  22.977  0.00  0.00    -0.227 OA
BRANCH   7   9
ATOM      9  O   UNL     1       1.852  -5.406  25.311  0.00  0.00    -0.302 OA
ATOM     10  H   UNL     1       2.160  -5.598  26.219  0.00  0.00    +0.222 HD
ENDBRANCH   7   9
BRANCH   7  11
ATOM     11  O   UNL     1       4.171  -6.279  24.798  0.00  0.00    -0.284 OA
BRANCH  11  12
ATOM     12  C   UNL     1       5.545  -5.816  24.637  0.00  0.00    +0.206 C 
BRANCH  12  13
ATOM     13  C   UNL     1       6.419  -5.091  25.691  0.00  0.00    +0.178 C 
ATOM     14  C   UNL     1       7.738  -5.715  26.126  0.00  0.00    +0.178 C 
ATOM     15  C   UNL     1       8.815  -4.843  25.496  0.00  0.00    +0.195 C 
ATOM     16  C   UNL     1       8.028  -3.731  24.786  0.00  0.00    +0.253 C 
ATOM     17  O   UNL     1       6.697  -3.737  25.320  0.00  0.00    -0.346 OA
BRANCH  16  18
ATOM     18  N   UNL     1       8.615  -2.418  24.964  0.00  0.00    -0.286 N 
ATOM     19  C   UNL     1       9.133  -1.669  23.944  0.00  0.00    +0.167 A 
ATOM     20  N   UNL     1       9.215  -2.002  22.644  0.00  0.00    -0.216 NA
ATOM     21  C   UNL     1       9.757  -0.989  21.933  0.00  0.00    +0.225 A 
ATOM     22  N   UNL     1      10.209   0.204  22.379  0.00  0.00    -0.219 NA
ATOM     23  C   UNL     1      10.137   0.466  23.705  0.00  0.00    +0.147 A 
ATOM     24  N   UNL     1      10.620   1.683  24.169  0.00  0.00    -0.341 N 
ATOM     25  H   UNL     1      10.243   1.944  25.073  0.00  0.00    +0.144 HD
ATOM     26  H   UNL     1      10.643   2.390  23.446  0.00  0.00    +0.144 HD
ATOM     27  C   UNL     1       9.559  -0.497  24.546  0.00  0.00    +0.147 A 
ATOM     28  N   UNL     1       9.303  -0.519  25.901  0.00  0.00    -0.231 NA
ATOM     29  C   UNL     1       8.729  -1.686  26.115  0.00  0.00    +0.203 A 
ENDBRANCH  16  18
BRANCH  15  30
ATOM     30  O   UNL     1       9.592  -5.609  24.575  0.00  0.00    -0.385 OA
ATOM     31  H   UNL     1       9.323  -5.328  23.676  0.00  0.00    +0.210 HD
ENDBRANCH  15  30
BRANCH  14  32
ATOM     32  O   UNL     1       7.856  -5.634  27.565  0.00  0.00    -0.386 OA
ATOM     33  H   UNL     1       8.610  -5.063  27.802  0.00  0.00    +0.210 HD
ENDBRANCH  14  32
ENDBRANCH  12  13
ENDBRANCH  11  12
ENDBRANCH   7  11
ENDBRANCH   6   7
ENDBRANCH   2   6
ENDBRANCH   1   2
BRANCH   1  34
ATOM     34  C   UNL     1       3.535  -1.286  27.458  0.00  0.00    +0.206 C 
BRANCH  34  35
ATOM     35  C   UNL     1       4.877  -0.769  26.941  0.00  0.00    +0.172 C 
BRANCH  35  36
ATOM     36  O   UNL     1       4.674  -0.206  25.632  0.00  0.00    -0.387 OA
ATOM     37  H   UNL     1       4.110   0.578  25.770  0.00  0.00    +0.210 HD
ENDBRANCH  35  36
BRANCH  35  38
ATOM     38  C   UNL     1       5.548   0.271  27.871  0.00  0.00    +0.175 C 
BRANCH  38  39
ATOM     39  O   UNL     1       4.593   0.819  28.789  0.00  0.00    -0.387 OA
ATOM     40  H   UNL     1       3.726   0.415  28.608  0.00  0.00    +0.210 HD
ENDBRANCH  38  39
BRANCH  38  41
ATOM     41  C   UNL     1       6.191   1.389  27.019  0.00  0.00    +0.165 C 
BRANCH  41  42
ATOM     42  O   UNL     1       7.597   1.423  27.307  0.00  0.00    -0.387 OA
ATOM     43  H   UNL     1       7.912   0.503  27.262  0.00  0.00    +0.210 HD
ENDBRANCH  41  42
BRANCH  41  44
ATOM     44  C   UNL     1       5.578   2.776  27.297  0.00  0.00    +0.158 C 
BRANCH  44  53
ATOM     45  C   UNL     1       7.595   5.344  24.387  0.00  0.00    +0.034 A 
ATOM     46  C   UNL     1       6.856   5.762  23.254  0.00  0.00    -0.027 A 
ATOM     47  C   UNL     1       7.363   6.640  22.142  0.00  0.00    +0.046 C 
ATOM     48  C   UNL     1       5.506   5.375  23.102  0.00  0.00    +0.035 A 
ATOM     49  C   UNL     1       4.848   4.571  24.037  0.00  0.00    +0.089 A 
ATOM     50  N   UNL     1       3.505   4.258  23.784  0.00  0.00    -0.237 NA
ATOM     51  C   UNL     1       2.869   3.513  24.634  0.00  0.00    +0.171 A 
ATOM     52  C   UNL     1       3.521   2.979  25.884  0.00  0.00    +0.170 A 
ATOM     53  N   UNL     1       4.862   3.299  26.113  0.00  0.00    -0.319 N 
ATOM     54  N   UNL     1       2.815   2.253  26.695  0.00  0.00    -0.173 NA
ATOM     55  C   UNL     1       1.504   1.950  26.482  0.00  0.00    +0.351 A 
ATOM     56  O   UNL     1       0.877   1.199  27.220  0.00  0.00    -0.245 OA
ATOM     57  N   UNL     1       0.852   2.475  25.402  0.00  0.00    -0.272 N 
ATOM     58  H   UNL     1      -0.110   2.180  25.284  0.00  0.00    +0.174 HD
ATOM     59  C   UNL     1       1.422   3.171  24.385  0.00  0.00    +0.282 A 
ATOM     60  O   UNL     1       0.835   3.483  23.365  0.00  0.00    -0.265 OA
ATOM     61  C   UNL     1       5.540   4.122  25.186  0.00  0.00    +0.071 A 
ATOM     62  C   UNL     1       6.880   4.533  25.317  0.00  0.00    +0.051 A 
BRANCH  45  64
ATOM     63  C   UNL     1       9.289   6.446  25.847  0.00  0.00    +0.129 C 
ATOM     64  N   UNL     1       8.931   5.663  24.657  0.00  0.00    -0.336 N 
ATOM     65  C   UNL     1      10.062   5.184  23.875  0.00  0.00    +0.129 C 
ENDBRANCH  45  64
ENDBRANCH  44  53
ENDBRANCH  41  44
ENDBRANCH  38  41
ENDBRANCH  35  38
ENDBRANCH  34  35
ENDBRANCH   1  34
TORSDOF 21
ENDMDL
MODEL 4
REMARK VINA RESULT:      -6.5      3.556      6.334
REMARK  Name = 
REMARK  24 active torsions:
REMARK  status: ('A' for Active; 'I' for Inactive)
REMARK    1  A    between atoms: C_1  and  N_2
REMARK    2  A    between atoms: N_2  and  C_3
REMARK    3  A    between atoms: N_2  and  C_4
REMARK    4  A    between atoms: C_9  and  C_10
REMARK    5  A    between atoms: N_20  and  C_21
REMARK    6  A    between atoms: C_21  and  C_22
REMARK    7  A    between atoms: C_22  and  O_24
REMARK    8  A    between atoms: C_22  and  C_25
REMARK    9  A    between atoms: C_25  and  O_27
REMARK   10  A    between atoms: C_25  and  C_28
REMARK   11  A    between atoms: C_28  and  O_30
REMARK   12  A    between atoms: C_28  and  C_31
REMARK   13  A    between atoms: C_31  and  O_32
REMARK   14  A    between atoms: O_32  and  P_33
REMARK   15  A    between atoms: P_33  and  O_34
REMARK   16  A    between atoms: P_33  and  O_36
REMARK   17  A    between atoms: O_36  and  P_37
REMARK   18  A    between atoms: P_37  and  O_38
REMARK   19  A    between atoms: P_37  and  O_40
REMARK   20  A    between atoms: O_40  and  C_41
REMARK   21  A    between atoms: C_41  and  C_42
REMARK   22  A    between atoms: C_45  and  N_53
REMARK   23  A    between atoms: C_47  and  O_49
REMARK   24  A    between atoms: C_50  and  O_52
REMARK                            x       y       z     vdW  Elec       q    Type
REMARK                         _______ _______ _______ _____ _____    ______ ____
ROOT
ATOM      1  O   UNL     1       2.748  -2.206  28.524  0.00  0.00    -0.284 OA
ENDROOT
BRANCH   1   2
ATOM      2  P   UNL     1       3.629  -3.549  28.867  0.00  0.00    +0.483 P 
ATOM      3  O   UNL     1       5.024  -3.367  28.264  0.00  0.00    -0.227 OA
BRANCH   2   4
ATOM      4  O   UNL     1       4.211  -2.779  30.304  0.00  0.00    -0.302 OA
ATOM      5  H   UNL     1       3.722  -1.933  30.336  0.00  0.00    +0.222 HD
ENDBRANCH   2   4
BRANCH   2   6
ATOM      6  O   UNL     1       3.046  -4.318  27.432  0.00  0.00    -0.186 OA
BRANCH   6   7
ATOM      7  P   UNL     1       3.497  -5.872  27.831  0.00  0.00    +0.483 P 
ATOM      8  O   UNL     1       2.372  -6.857  27.693  0.00  0.00    -0.227 OA
BRANCH   7   9
ATOM      9  O   UNL     1       3.892  -5.803  29.378  0.00  0.00    -0.302 OA
ATOM     10  H   UNL     1       4.548  -5.086  29.491  0.00  0.00    +0.222 HD
ENDBRANCH   7   9
BRANCH   7  11
ATOM     11  O   UNL     1       4.867  -6.489  27.146  0.00  0.00    -0.284 OA
BRANCH  11  12
ATOM     12  C   UNL     1       4.522  -7.182  25.909  0.00  0.00    +0.206 C 
BRANCH  12  13
ATOM     13  C   UNL     1       4.601  -6.621  24.468  0.00  0.00    +0.178 C 
ATOM     14  C   UNL     1       3.414  -5.857  23.896  0.00  0.00    +0.178 C 
ATOM     15  C   UNL     1       3.863  -4.403  23.856  0.00  0.00    +0.195 C 
ATOM     16  C   UNL     1       5.314  -4.444  24.356  0.00  0.00    +0.253 C 
ATOM     17  O   UNL     1       5.761  -5.804  24.271  0.00  0.00    -0.346 OA
BRANCH  16  18
ATOM     18  N   UNL     1       6.203  -3.594  23.590  0.00  0.00    -0.286 N 
ATOM     19  C   UNL     1       7.548  -3.496  23.815  0.00  0.00    +0.167 A 
ATOM     20  N   UNL     1       8.266  -4.125  24.762  0.00  0.00    -0.216 NA
ATOM     21  C   UNL     1       9.574  -3.804  24.648  0.00  0.00    +0.225 A 
ATOM     22  N   UNL     1      10.161  -2.963  23.769  0.00  0.00    -0.219 NA
ATOM     23  C   UNL     1       9.380  -2.328  22.864  0.00  0.00    +0.147 A 
ATOM     24  N   UNL     1       9.976  -1.446  21.973  0.00  0.00    -0.341 N 
ATOM     25  H   UNL     1       9.417  -1.275  21.144  0.00  0.00    +0.144 HD
ATOM     26  H   UNL     1      10.962  -1.634  21.845  0.00  0.00    +0.144 HD
ATOM     27  C   UNL     1       8.004  -2.606  22.858  0.00  0.00    +0.147 A 
ATOM     28  N   UNL     1       6.967  -2.170  22.059  0.00  0.00    -0.231 NA
ATOM     29  C   UNL     1       5.901  -2.790  22.524  0.00  0.00    +0.203 A 
ENDBRANCH  16  18
BRANCH  15  30
ATOM     30  O   UNL     1       3.033  -3.610  24.706  0.00  0.00    -0.385 OA
ATOM     31  H   UNL     1       2.946  -2.734  24.278  0.00  0.00    +0.210 HD
ENDBRANCH  15  30
BRANCH  14  32
ATOM     32  O   UNL     1       3.162  -6.304  22.544  0.00  0.00    -0.386 OA
ATOM     33  H   UNL     1       2.482  -5.741  22.131  0.00  0.00    +0.210 HD
ENDBRANCH  14  32
ENDBRANCH  12  13
ENDBRANCH  11  12
ENDBRANCH   7  11
ENDBRANCH   6   7
ENDBRANCH   2   6
ENDBRANCH   1   2
BRANCH   1  34
ATOM     34  C   UNL     1       3.259  -1.274  27.563  0.00  0.00    +0.206 C 
BRANCH  34  35
ATOM     35  C   UNL     1       3.800  -0.077  28.344  0.00  0.00    +0.172 C 
BRANCH  35  36
ATOM     36  O   UNL     1       5.206  -0.279  28.572  0.00  0.00    -0.387 OA
ATOM     37  H   UNL     1       5.547   0.583  28.877  0.00  0.00    +0.210 HD
ENDBRANCH  35  36
BRANCH  35  38
ATOM     38  C   UNL     1       3.562   1.285  27.646  0.00  0.00    +0.175 C 
BRANCH  38  39
ATOM     39  O   UNL     1       2.537   1.170  26.651  0.00  0.00    -0.387 OA
ATOM     40  H   UNL     1       2.870   0.606  25.931  0.00  0.00    +0.210 HD
ENDBRANCH  38  39
BRANCH  38  41
ATOM     41  C   UNL     1       4.884   1.781  27.016  0.00  0.00    +0.165 C 
BRANCH  41  42
ATOM     42  O   UNL     1       5.025   3.179  27.307  0.00  0.00    -0.387 OA
ATOM     43  H   UNL     1       5.969   3.391  27.203  0.00  0.00    +0.210 HD
ENDBRANCH  41  42
BRANCH  41  44
ATOM     44  C   UNL     1       4.931   1.568  25.490  0.00  0.00    +0.158 C 
BRANCH  44  53
ATOM     45  C   UNL     1       5.233   5.190  23.055  0.00  0.00    +0.034 A 
ATOM     46  C   UNL     1       6.517   5.566  22.591  0.00  0.00    -0.027 A 
ATOM     47  C   UNL     1       6.834   6.772  21.747  0.00  0.00    +0.046 C 
ATOM     48  C   UNL     1       7.644   4.770  22.892  0.00  0.00    +0.035 A 
ATOM     49  C   UNL     1       7.553   3.600  23.652  0.00  0.00    +0.089 A 
ATOM     50  N   UNL     1       8.739   2.888  23.879  0.00  0.00    -0.237 NA
ATOM     51  C   UNL     1       8.685   1.799  24.582  0.00  0.00    +0.171 A 
ATOM     52  C   UNL     1       7.395   1.273  25.156  0.00  0.00    +0.170 A 
ATOM     53  N   UNL     1       6.226   2.002  24.922  0.00  0.00    -0.319 N 
ATOM     54  N   UNL     1       7.418   0.168  25.836  0.00  0.00    -0.173 NA
ATOM     55  C   UNL     1       8.553  -0.554  26.054  0.00  0.00    +0.351 A 
ATOM     56  O   UNL     1       8.567  -1.554  26.764  0.00  0.00    -0.245 OA
ATOM     57  N   UNL     1       9.732  -0.155  25.489  0.00  0.00    -0.272 N 
ATOM     58  H   UNL     1      10.542  -0.716  25.722  0.00  0.00    +0.174 HD
ATOM     59  C   UNL     1       9.947   1.013  24.831  0.00  0.00    +0.282 A 
ATOM     60  O   UNL     1      11.048   1.401  24.482  0.00  0.00    -0.265 OA
ATOM     61  C   UNL     1       6.296   3.180  24.144  0.00  0.00    +0.071 A 
ATOM     62  C   UNL     1       5.189   3.987  23.820  0.00  0.00    +0.051 A 
BRANCH  45  64
ATOM     63  C   UNL     1       3.060   5.388  21.850  0.00  0.00    +0.129 C 
ATOM     64  N   UNL     1       4.041   5.886  22.822  0.00  0.00    -0.336 N 
ATOM     65  C   UNL     1       3.624   7.068  23.563  0.00  0.00    +0.129 C 
ENDBRANCH  45  64
ENDBRANCH  44  53
ENDBRANCH  41  44
ENDBRANCH  38  41
ENDBRANCH  35  38
ENDBRANCH  34  35
ENDBRANCH   1  34
TORSDOF 21
ENDMDL
MODEL 5
REMARK VINA RESULT:      -6.5      2.925      5.344
REMARK  Name = 
REMARK  24 active torsions:
REMARK  status: ('A' for Active; 'I' for Inactive)
REMARK    1  A    between atoms: C_1  and  N_2
REMARK    2  A    between atoms: N_2  and  C_3
REMARK    3  A    between atoms: N_2  and  C_4
REMARK    4  A    between atoms: C_9  and  C_10
REMARK    5  A    between atoms: N_20  and  C_21
REMARK    6  A    between atoms: C_21  and  C_22
REMARK    7  A    between atoms: C_22  and  O_24
REMARK    8  A    between atoms: C_22  and  C_25
REMARK    9  A    between atoms: C_25  and  O_27
REMARK   10  A    between atoms: C_25  and  C_28
REMARK   11  A    between atoms: C_28  and  O_30
REMARK   12  A    between atoms: C_28  and  C_31
REMARK   13  A    between atoms: C_31  and  O_32
REMARK   14  A    between atoms: O_32  and  P_33
REMARK   15  A    between atoms: P_33  and  O_34
REMARK   16  A    between atoms: P_33  and  O_36
REMARK   17  A    between atoms: O_36  and  P_37
REMARK   18  A    between atoms: P_37  and  O_38
REMARK   19  A    between atoms: P_37  and  O_40
REMARK   20  A    between atoms: O_40  and  C_41
REMARK   21  A    between atoms: C_41  and  C_42
REMARK   22  A    between atoms: C_45  and  N_53
REMARK   23  A    between atoms: C_47  and  O_49
REMARK   24  A    between atoms: C_50  and  O_52
REMARK                            x       y       z     vdW  Elec       q    Type
REMARK                         _______ _______ _______ _____ _____    ______ ____
ROOT
ATOM      1  O   UNL     1       6.817   1.496  26.289  0.00  0.00    -0.284 OA
ENDROOT
BRANCH   1   2
ATOM      2  P   UNL     1       6.781   0.423  27.532  0.00  0.00    +0.483 P 
ATOM      3  O   UNL     1       8.085  -0.377  27.504  0.00  0.00    -0.227 OA
BRANCH   2   4
ATOM      4  O   UNL     1       7.581   1.585  28.535  0.00  0.00    -0.302 OA
ATOM      5  H   UNL     1       8.194   1.051  29.076  0.00  0.00    +0.222 HD
ENDBRANCH   2   4
BRANCH   2   6
ATOM      6  O   UNL     1       5.980  -0.737  26.530  0.00  0.00    -0.186 OA
BRANCH   6   7
ATOM      7  P   UNL     1       4.570  -0.836  27.413  0.00  0.00    +0.483 P 
ATOM      8  O   UNL     1       3.404  -0.191  26.719  0.00  0.00    -0.227 OA
BRANCH   7   9
ATOM      9  O   UNL     1       4.859  -0.003  28.746  0.00  0.00    -0.302 OA
ATOM     10  H   UNL     1       5.715   0.456  28.637  0.00  0.00    +0.222 HD
ENDBRANCH   7   9
BRANCH   7  11
ATOM     11  O   UNL     1       4.122  -2.308  28.009  0.00  0.00    -0.284 OA
BRANCH  11  12
ATOM     12  C   UNL     1       5.285  -3.189  28.052  0.00  0.00    +0.206 C 
BRANCH  12  13
ATOM     13  C   UNL     1       5.735  -4.198  26.967  0.00  0.00    +0.178 C 
ATOM     14  C   UNL     1       6.122  -5.613  27.376  0.00  0.00    +0.178 C 
ATOM     15  C   UNL     1       4.982  -6.493  26.883  0.00  0.00    +0.195 C 
ATOM     16  C   UNL     1       4.040  -5.517  26.163  0.00  0.00    +0.253 C 
ATOM     17  O   UNL     1       4.778  -4.314  25.908  0.00  0.00    -0.346 OA
BRANCH  16  18
ATOM     18  N   UNL     1       3.524  -6.042  24.915  0.00  0.00    -0.286 N 
ATOM     19  C   UNL     1       2.651  -7.091  24.830  0.00  0.00    +0.167 A 
ATOM     20  N   UNL     1       2.145  -7.817  25.842  0.00  0.00    -0.216 NA
ATOM     21  C   UNL     1       1.287  -8.747  25.368  0.00  0.00    +0.225 A 
ATOM     22  N   UNL     1       0.949  -9.005  24.085  0.00  0.00    -0.219 NA
ATOM     23  C   UNL     1       1.522  -8.266  23.107  0.00  0.00    +0.147 A 
ATOM     24  N   UNL     1       1.194  -8.542  21.786  0.00  0.00    -0.341 N 
ATOM     25  H   UNL     1       1.383  -7.770  21.157  0.00  0.00    +0.144 HD
ATOM     26  H   UNL     1       0.303  -9.013  21.701  0.00  0.00    +0.144 HD
ATOM     27  C   UNL     1       2.408  -7.241  23.475  0.00  0.00    +0.147 A 
ATOM     28  N   UNL     1       3.108  -6.305  22.743  0.00  0.00    -0.231 NA
ATOM     29  C   UNL     1       3.762  -5.597  23.642  0.00  0.00    +0.203 A 
ENDBRANCH  16  18
BRANCH  15  30
ATOM     30  O   UNL     1       4.338  -7.129  27.988  0.00  0.00    -0.385 OA
ATOM     31  H   UNL     1       4.582  -8.077  27.949  0.00  0.00    +0.210 HD
ENDBRANCH  15  30
BRANCH  14  32
ATOM     32  O   UNL     1       7.336  -5.996  26.690  0.00  0.00    -0.386 OA
ATOM     33  H   UNL     1       7.329  -6.956  26.518  0.00  0.00    +0.210 HD
ENDBRANCH  14  32
ENDBRANCH  12  13
ENDBRANCH  11  12
ENDBRANCH   7  11
ENDBRANCH   6   7
ENDBRANCH   2   6
ENDBRANCH   1   2
BRANCH   1  34
ATOM     34  C   UNL     1       6.478   2.863  26.549  0.00  0.00    +0.206 C 
BRANCH  34  35
ATOM     35  C   UNL     1       4.984   3.016  26.267  0.00  0.00    +0.172 C 
BRANCH  35  36
ATOM     36  O   UNL     1       4.581   4.344  26.648  0.00  0.00    -0.387 OA
ATOM     37  H   UNL     1       4.922   4.470  27.553  0.00  0.00    +0.210 HD
ENDBRANCH  35  36
BRANCH  35  38
ATOM     38  C   UNL     1       4.594   2.742  24.794  0.00  0.00    +0.175 C 
BRANCH  38  39
ATOM     39  O   UNL     1       4.695   1.343  24.496  0.00  0.00    -0.387 OA
ATOM     40  H   UNL     1       5.351   1.228  23.786  0.00  0.00    +0.210 HD
ENDBRANCH  38  39
BRANCH  38  41
ATOM     41  C   UNL     1       5.502   3.569  23.855  0.00  0.00    +0.165 C 
BRANCH  41  42
ATOM     42  O   UNL     1       4.700   4.578  23.225  0.00  0.00    -0.387 OA
ATOM     43  H   UNL     1       3.864   4.150  22.970  0.00  0.00    +0.210 HD
ENDBRANCH  41  42
BRANCH  41  44
ATOM     44  C   UNL     1       6.180   2.705  22.773  0.00  0.00    +0.158 C 
BRANCH  44  53
ATOM     45  C   UNL     1       7.976  -1.267  23.138  0.00  0.00    +0.034 A 
ATOM     46  C   UNL     1       9.375  -1.341  23.340  0.00  0.00    -0.027 A 
ATOM     47  C   UNL     1      10.182  -2.603  23.488  0.00  0.00    +0.046 C 
ATOM     48  C   UNL     1      10.142  -0.159  23.446  0.00  0.00    +0.035 A 
ATOM     49  C   UNL     1       9.574   1.114  23.351  0.00  0.00    +0.089 A 
ATOM     50  N   UNL     1      10.434   2.213  23.479  0.00  0.00    -0.237 NA
ATOM     51  C   UNL     1       9.934   3.407  23.394  0.00  0.00    +0.171 A 
ATOM     52  C   UNL     1       8.464   3.651  23.167  0.00  0.00    +0.170 A 
ATOM     53  N   UNL     1       7.626   2.541  23.038  0.00  0.00    -0.319 N 
ATOM     54  N   UNL     1       8.036   4.875  23.110  0.00  0.00    -0.173 NA
ATOM     55  C   UNL     1       8.848   5.960  23.251  0.00  0.00    +0.351 A 
ATOM     56  O   UNL     1       8.437   7.108  23.115  0.00  0.00    -0.245 OA
ATOM     57  N   UNL     1      10.174   5.786  23.532  0.00  0.00    -0.272 N 
ATOM     58  H   UNL     1      10.726   6.633  23.588  0.00  0.00    +0.174 HD
ATOM     59  C   UNL     1      10.840   4.603  23.538  0.00  0.00    +0.282 A 
ATOM     60  O   UNL     1      12.051   4.508  23.636  0.00  0.00    -0.265 OA
ATOM     61  C   UNL     1       8.181   1.246  23.145  0.00  0.00    +0.071 A 
ATOM     62  C   UNL     1       7.440   0.052  23.055  0.00  0.00    +0.051 A 
BRANCH  45  64
ATOM     63  C   UNL     1       7.496  -3.550  22.261  0.00  0.00    +0.129 C 
ATOM     64  N   UNL     1       7.106  -2.358  23.023  0.00  0.00    -0.336 N 
ATOM     65  C   UNL     1       5.823  -2.459  23.706  0.00  0.00    +0.129 C 
ENDBRANCH  45  64
ENDBRANCH  44  53
ENDBRANCH  41  44
ENDBRANCH  38  41
ENDBRANCH  35  38
ENDBRANCH  34  35
ENDBRANCH   1  34
TORSDOF 21
ENDMDL
MODEL 6
REMARK VINA RESULT:      -6.5      3.448      6.027
REMARK  Name = 
REMARK  24 active torsions:
REMARK  status: ('A' for Active; 'I' for Inactive)
REMARK    1  A    between atoms: C_1  and  N_2
REMARK    2  A    between atoms: N_2  and  C_3
REMARK    3  A    between atoms: N_2  and  C_4
REMARK    4  A    between atoms: C_9  and  C_10
REMARK    5  A    between atoms: N_20  and  C_21
REMARK    6  A    between atoms: C_21  and  C_22
REMARK    7  A    between atoms: C_22  and  O_24
REMARK    8  A    between atoms: C_22  and  C_25
REMARK    9  A    between atoms: C_25  and  O_27
REMARK   10  A    between atoms: C_25  and  C_28
REMARK   11  A    between atoms: C_28  and  O_30
REMARK   12  A    between atoms: C_28  and  C_31
REMARK   13  A    between atoms: C_31  and  O_32
REMARK   14  A    between atoms: O_32  and  P_33
REMARK   15  A    between atoms: P_33  and  O_34
REMARK   16  A    between atoms: P_33  and  O_36
REMARK   17  A    between atoms: O_36  and  P_37
REMARK   18  A    between atoms: P_37  and  O_38
REMARK   19  A    between atoms: P_37  and  O_40
REMARK   20  A    between atoms: O_40  and  C_41
REMARK   21  A    between atoms: C_41  and  C_42
REMARK   22  A    between atoms: C_45  and  N_53
REMARK   23  A    between atoms: C_47  and  O_49
REMARK   24  A    between atoms: C_50  and  O_52
REMARK                            x       y       z     vdW  Elec       q    Type
REMARK                         _______ _______ _______ _____ _____    ______ ____
ROOT
ATOM      1  O   UNL     1       3.182  -1.448  26.449  0.00  0.00    -0.284 OA
ENDROOT
BRANCH   1   2
ATOM      2  P   UNL     1       2.858  -3.047  26.267  0.00  0.00    +0.483 P 
ATOM      3  O   UNL     1       3.926  -3.837  27.028  0.00  0.00    -0.227 OA
BRANCH   2   4
ATOM      4  O   UNL     1       1.928  -3.006  27.726  0.00  0.00    -0.302 OA
ATOM      5  H   UNL     1       2.411  -2.378  28.299  0.00  0.00    +0.222 HD
ENDBRANCH   2   4
BRANCH   2   6
ATOM      6  O   UNL     1       3.786  -3.087  24.808  0.00  0.00    -0.186 OA
BRANCH   6   7
ATOM      7  P   UNL     1       3.500  -4.684  24.424  0.00  0.00    +0.483 P 
ATOM      8  O   UNL     1       3.106  -4.873  22.987  0.00  0.00    -0.227 OA
BRANCH   7   9
ATOM      9  O   UNL     1       2.252  -5.109  25.327  0.00  0.00    -0.302 OA
ATOM     10  H   UNL     1       2.301  -6.073  25.478  0.00  0.00    +0.222 HD
ENDBRANCH   7   9
BRANCH   7  11
ATOM     11  O   UNL     1       4.636  -5.805  24.845  0.00  0.00    -0.284 OA
BRANCH  11  12
ATOM     12  C   UNL     1       5.955  -5.338  24.431  0.00  0.00    +0.206 C 
BRANCH  12  13
ATOM     13  C   UNL     1       6.760  -4.156  25.026  0.00  0.00    +0.178 C 
ATOM     14  C   UNL     1       7.999  -4.441  25.865  0.00  0.00    +0.178 C 
ATOM     15  C   UNL     1       9.173  -4.030  24.987  0.00  0.00    +0.195 C 
ATOM     16  C   UNL     1       8.514  -3.474  23.716  0.00  0.00    +0.253 C 
ATOM     17  O   UNL     1       7.140  -3.205  24.025  0.00  0.00    -0.346 OA
BRANCH  16  18
ATOM     18  N   UNL     1       9.147  -2.264  23.231  0.00  0.00    -0.286 N 
ATOM     19  C   UNL     1       8.466  -1.123  22.907  0.00  0.00    +0.167 A 
ATOM     20  N   UNL     1       7.137  -0.923  22.952  0.00  0.00    -0.216 NA
ATOM     21  C   UNL     1       6.841   0.345  22.591  0.00  0.00    +0.225 A 
ATOM     22  N   UNL     1       7.682   1.326  22.197  0.00  0.00    -0.219 NA
ATOM     23  C   UNL     1       9.006   1.053  22.133  0.00  0.00    +0.147 A 
ATOM     24  N   UNL     1       9.872   2.052  21.709  0.00  0.00    -0.341 N 
ATOM     25  H   UNL     1      10.832   1.899  21.996  0.00  0.00    +0.144 HD
ATOM     26  H   UNL     1       9.484   2.977  21.834  0.00  0.00    +0.144 HD
ATOM     27  C   UNL     1       9.445  -0.224  22.519  0.00  0.00    +0.147 A 
ATOM     28  N   UNL     1      10.698  -0.793  22.608  0.00  0.00    -0.231 NA
ATOM     29  C   UNL     1      10.481  -2.017  23.046  0.00  0.00    +0.203 A 
ENDBRANCH  16  18
BRANCH  15  30
ATOM     30  O   UNL     1       9.995  -5.162  24.703  0.00  0.00    -0.385 OA
ATOM     31  H   UNL     1      10.259  -5.543  25.566  0.00  0.00    +0.210 HD
ENDBRANCH  15  30
BRANCH  14  32
ATOM     32  O   UNL     1       7.983  -3.604  27.044  0.00  0.00    -0.386 OA
ATOM     33  H   UNL     1       8.757  -3.011  27.038  0.00  0.00    +0.210 HD
ENDBRANCH  14  32
ENDBRANCH  12  13
ENDBRANCH  11  12
ENDBRANCH   7  11
ENDBRANCH   6   7
ENDBRANCH   2   6
ENDBRANCH   1   2
BRANCH   1  34
ATOM     34  C   UNL     1       4.227  -1.054  27.347  0.00  0.00    +0.206 C 
BRANCH  34  35
ATOM     35  C   UNL     1       5.494  -0.881  26.511  0.00  0.00    +0.172 C 
BRANCH  35  36
ATOM     36  O   UNL     1       5.128  -0.316  25.239  0.00  0.00    -0.387 OA
ATOM     37  H   UNL     1       5.244  -1.036  24.591  0.00  0.00    +0.210 HD
ENDBRANCH  35  36
BRANCH  35  38
ATOM     38  C   UNL     1       6.578  -0.008  27.190  0.00  0.00    +0.175 C 
BRANCH  38  39
ATOM     39  O   UNL     1       6.051   0.631  28.360  0.00  0.00    -0.387 OA
ATOM     40  H   UNL     1       6.729   0.598  29.058  0.00  0.00    +0.210 HD
ENDBRANCH  38  39
BRANCH  38  41
ATOM     41  C   UNL     1       7.105   1.040  26.183  0.00  0.00    +0.165 C 
BRANCH  41  42
ATOM     42  O   UNL     1       8.515   0.833  26.014  0.00  0.00    -0.387 OA
ATOM     43  H   UNL     1       8.910   1.712  25.879  0.00  0.00    +0.210 HD
ENDBRANCH  41  42
BRANCH  41  44
ATOM     44  C   UNL     1       6.852   2.488  26.647  0.00  0.00    +0.158 C 
BRANCH  44  53
ATOM     45  C   UNL     1       2.528   2.989  26.210  0.00  0.00    +0.034 A 
ATOM     46  C   UNL     1       2.065   3.836  25.174  0.00  0.00    -0.027 A 
ATOM     47  C   UNL     1       0.625   4.142  24.859  0.00  0.00    +0.046 C 
ATOM     48  C   UNL     1       2.983   4.466  24.305  0.00  0.00    +0.035 A 
ATOM     49  C   UNL     1       4.365   4.296  24.425  0.00  0.00    +0.089 A 
ATOM     50  N   UNL     1       5.179   4.966  23.500  0.00  0.00    -0.237 NA
ATOM     51  C   UNL     1       6.465   4.827  23.589  0.00  0.00    +0.171 A 
ATOM     52  C   UNL     1       7.113   3.968  24.644  0.00  0.00    +0.170 A 
ATOM     53  N   UNL     1       6.283   3.314  25.559  0.00  0.00    -0.319 N 
ATOM     54  N   UNL     1       8.406   3.865  24.658  0.00  0.00    -0.173 NA
ATOM     55  C   UNL     1       9.218   4.490  23.760  0.00  0.00    +0.351 A 
ATOM     56  O   UNL     1      10.441   4.443  23.837  0.00  0.00    -0.245 OA
ATOM     57  N   UNL     1       8.670   5.217  22.740  0.00  0.00    -0.272 N 
ATOM     58  H   UNL     1       9.331   5.684  22.131  0.00  0.00    +0.174 HD
ATOM     59  C   UNL     1       7.357   5.531  22.599  0.00  0.00    +0.282 A 
ATOM     60  O   UNL     1       6.934   6.313  21.766  0.00  0.00    -0.265 OA
ATOM     61  C   UNL     1       4.883   3.463  25.444  0.00  0.00    +0.071 A 
ATOM     62  C   UNL     1       3.944   2.840  26.288  0.00  0.00    +0.051 A 
BRANCH  45  64
ATOM     63  C   UNL     1       1.617   2.765  28.519  0.00  0.00    +0.129 C 
ATOM     64  N   UNL     1       1.725   2.304  27.129  0.00  0.00    -0.336 N 
ATOM     65  C   UNL     1       0.870   1.175  26.789  0.00  0.00    +0.129 C 
ENDBRANCH  45  64
ENDBRANCH  44  53
ENDBRANCH  41  44
ENDBRANCH  38  41
ENDBRANCH  35  38
ENDBRANCH  34  35
ENDBRANCH   1  34
TORSDOF 21
ENDMDL
MODEL 7
REMARK VINA RESULT:      -6.4      2.707      5.762
REMARK  Name = 
REMARK  24 active torsions:
REMARK  status: ('A' for Active; 'I' for Inactive)
REMARK    1  A    between atoms: C_1  and  N_2
REMARK    2  A    between atoms: N_2  and  C_3
REMARK    3  A    between atoms: N_2  and  C_4
REMARK    4  A    between atoms: C_9  and  C_10
REMARK    5  A    between atoms: N_20  and  C_21
REMARK    6  A    between atoms: C_21  and  C_22
REMARK    7  A    between atoms: C_22  and  O_24
REMARK    8  A    between atoms: C_22  and  C_25
REMARK    9  A    between atoms: C_25  and  O_27
REMARK   10  A    between atoms: C_25  and  C_28
REMARK   11  A    between atoms: C_28  and  O_30
REMARK   12  A    between atoms: C_28  and  C_31
REMARK   13  A    between atoms: C_31  and  O_32
REMARK   14  A    between atoms: O_32  and  P_33
REMARK   15  A    between atoms: P_33  and  O_34
REMARK   16  A    between atoms: P_33  and  O_36
REMARK   17  A    between atoms: O_36  and  P_37
REMARK   18  A    between atoms: P_37  and  O_38
REMARK   19  A    between atoms: P_37  and  O_40
REMARK   20  A    between atoms: O_40  and  C_41
REMARK   21  A    between atoms: C_41  and  C_42
REMARK   22  A    between atoms: C_45  and  N_53
REMARK   23  A    between atoms: C_47  and  O_49
REMARK   24  A    between atoms: C_50  and  O_52
REMARK                            x       y       z     vdW  Elec       q    Type
REMARK                         _______ _______ _______ _____ _____    ______ ____
ROOT
ATOM      1  O   UNL     1       7.566   1.991  26.267  0.00  0.00    -0.284 OA
ENDROOT
BRANCH   1   2
ATOM      2  P   UNL     1       6.534   2.109  27.539  0.00  0.00    +0.483 P 
ATOM      3  O   UNL     1       7.163   1.379  28.728  0.00  0.00    -0.227 OA
BRANCH   2   4
ATOM      4  O   UNL     1       7.359   3.541  28.053  0.00  0.00    -0.302 OA
ATOM      5  H   UNL     1       6.836   3.858  28.815  0.00  0.00    +0.222 HD
ENDBRANCH   2   4
BRANCH   2   6
ATOM      6  O   UNL     1       5.709   0.679  27.024  0.00  0.00    -0.186 OA
BRANCH   6   7
ATOM      7  P   UNL     1       4.156   1.244  27.243  0.00  0.00    +0.483 P 
ATOM      8  O   UNL     1       3.443   1.501  25.946  0.00  0.00    -0.227 OA
BRANCH   7   9
ATOM      9  O   UNL     1       4.330   2.649  27.985  0.00  0.00    -0.302 OA
ATOM     10  H   UNL     1       5.258   2.722  28.283  0.00  0.00    +0.222 HD
ENDBRANCH   7   9
BRANCH   7  11
ATOM     11  O   UNL     1       3.163   0.423  28.274  0.00  0.00    -0.284 OA
BRANCH  11  12
ATOM     12  C   UNL     1       2.572  -0.714  27.576  0.00  0.00    +0.206 C 
BRANCH  12  13
ATOM     13  C   UNL     1       2.915  -2.212  27.770  0.00  0.00    +0.178 C 
ATOM     14  C   UNL     1       2.303  -3.246  26.833  0.00  0.00    +0.178 C 
ATOM     15  C   UNL     1       3.453  -3.704  25.946  0.00  0.00    +0.195 C 
ATOM     16  C   UNL     1       4.669  -2.937  26.484  0.00  0.00    +0.253 C 
ATOM     17  O   UNL     1       4.327  -2.444  27.786  0.00  0.00    -0.346 OA
BRANCH  16  18
ATOM     18  N   UNL     1       5.862  -3.755  26.574  0.00  0.00    -0.286 N 
ATOM     19  C   UNL     1       6.674  -4.042  25.511  0.00  0.00    +0.167 A 
ATOM     20  N   UNL     1       6.515  -3.656  24.233  0.00  0.00    -0.216 NA
ATOM     21  C   UNL     1       7.541  -4.105  23.477  0.00  0.00    +0.225 A 
ATOM     22  N   UNL     1       8.595  -4.861  23.853  0.00  0.00    -0.219 NA
ATOM     23  C   UNL     1       8.680  -5.253  25.145  0.00  0.00    +0.147 A 
ATOM     24  N   UNL     1       9.751  -6.048  25.531  0.00  0.00    -0.341 N 
ATOM     25  H   UNL     1       9.931  -6.022  26.529  0.00  0.00    +0.144 HD
ATOM     26  H   UNL     1      10.542  -5.958  24.907  0.00  0.00    +0.144 HD
ATOM     27  C   UNL     1       7.690  -4.820  26.041  0.00  0.00    +0.147 A 
ATOM     28  N   UNL     1       7.513  -5.002  27.397  0.00  0.00    -0.231 NA
ATOM     29  C   UNL     1       6.409  -4.343  27.683  0.00  0.00    +0.203 A 
ENDBRANCH  16  18
BRANCH  15  30
ATOM     30  O   UNL     1       3.182  -3.376  24.582  0.00  0.00    -0.385 OA
ATOM     31  H   UNL     1       2.219  -3.215  24.517  0.00  0.00    +0.210 HD
ENDBRANCH  15  30
BRANCH  14  32
ATOM     32  O   UNL     1       1.832  -4.374  27.605  0.00  0.00    -0.386 OA
ATOM     33  H   UNL     1       2.178  -5.203  27.224  0.00  0.00    +0.210 HD
ENDBRANCH  14  32
ENDBRANCH  12  13
ENDBRANCH  11  12
ENDBRANCH   7  11
ENDBRANCH   6   7
ENDBRANCH   2   6
ENDBRANCH   1   2
BRANCH   1  34
ATOM     34  C   UNL     1       8.124   0.711  25.949  0.00  0.00    +0.206 C 
BRANCH  34  35
ATOM     35  C   UNL     1       8.016   0.538  24.435  0.00  0.00    +0.172 C 
BRANCH  35  36
ATOM     36  O   UNL     1       7.982  -0.870  24.138  0.00  0.00    -0.387 OA
ATOM     37  H   UNL     1       7.120  -1.025  23.708  0.00  0.00    +0.210 HD
ENDBRANCH  35  36
BRANCH  35  38
ATOM     38  C   UNL     1       6.788   1.245  23.810  0.00  0.00    +0.175 C 
BRANCH  38  39
ATOM     39  O   UNL     1       5.604   0.458  23.994  0.00  0.00    -0.387 OA
ATOM     40  H   UNL     1       5.871  -0.443  24.246  0.00  0.00    +0.210 HD
ENDBRANCH  38  39
BRANCH  38  41
ATOM     41  C   UNL     1       7.048   1.501  22.308  0.00  0.00    +0.165 C 
BRANCH  41  42
ATOM     42  O   UNL     1       8.424   1.201  22.030  0.00  0.00    -0.387 OA
ATOM     43  H   UNL     1       8.604   1.528  21.132  0.00  0.00    +0.210 HD
ENDBRANCH  41  42
BRANCH  41  44
ATOM     44  C   UNL     1       6.747   2.954  21.892  0.00  0.00    +0.158 C 
BRANCH  44  53
ATOM     45  C   UNL     1       9.727   5.172  24.202  0.00  0.00    +0.034 A 
ATOM     46  C   UNL     1       9.265   5.980  25.268  0.00  0.00    -0.027 A 
ATOM     47  C   UNL     1      10.122   6.819  26.178  0.00  0.00    +0.046 C 
ATOM     48  C   UNL     1       7.888   6.032  25.578  0.00  0.00    +0.035 A 
ATOM     49  C   UNL     1       6.931   5.311  24.858  0.00  0.00    +0.089 A 
ATOM     50  N   UNL     1       5.594   5.435  25.262  0.00  0.00    -0.237 NA
ATOM     51  C   UNL     1       4.685   4.778  24.611  0.00  0.00    +0.171 A 
ATOM     52  C   UNL     1       5.016   3.885  23.443  0.00  0.00    +0.170 A 
ATOM     53  N   UNL     1       6.354   3.780  23.055  0.00  0.00    -0.319 N 
ATOM     54  N   UNL     1       4.052   3.247  22.853  0.00  0.00    -0.173 NA
ATOM     55  C   UNL     1       2.748   3.335  23.237  0.00  0.00    +0.351 A 
ATOM     56  O   UNL     1       1.844   2.786  22.618  0.00  0.00    -0.245 OA
ATOM     57  N   UNL     1       2.412   4.073  24.337  0.00  0.00    -0.272 N 
ATOM     58  H   UNL     1       1.422   4.125  24.545  0.00  0.00    +0.174 HD
ATOM     59  C   UNL     1       3.242   4.891  25.034  0.00  0.00    +0.282 A 
ATOM     60  O   UNL     1       2.867   5.652  25.908  0.00  0.00    -0.265 OA
ATOM     61  C   UNL     1       7.337   4.491  23.780  0.00  0.00    +0.071 A 
ATOM     62  C   UNL     1       8.716   4.450  23.502  0.00  0.00    +0.051 A 
BRANCH  45  64
ATOM     63  C   UNL     1      11.569   3.731  23.340  0.00  0.00    +0.129 C 
ATOM     64  N   UNL     1      11.060   5.029  23.800  0.00  0.00    -0.336 N 
ATOM     65  C   UNL     1      12.009   6.130  23.702  0.00  0.00    +0.129 C 
ENDBRANCH  45  64
ENDBRANCH  44  53
ENDBRANCH  41  44
ENDBRANCH  38  41
ENDBRANCH  35  38
ENDBRANCH  34  35
ENDBRANCH   1  34
TORSDOF 21
ENDMDL
MODEL 8
REMARK VINA RESULT:      -6.4      3.245      9.957
REMARK  Name = 
REMARK  24 active torsions:
REMARK  status: ('A' for Active; 'I' for Inactive)
REMARK    1  A    between atoms: C_1  and  N_2
REMARK    2  A    between atoms: N_2  and  C_3
REMARK    3  A    between atoms: N_2  and  C_4
REMARK    4  A    between atoms: C_9  and  C_10
REMARK    5  A    between atoms: N_20  and  C_21
REMARK    6  A    between atoms: C_21  and  C_22
REMARK    7  A    between atoms: C_22  and  O_24
REMARK    8  A    between atoms: C_22  and  C_25
REMARK    9  A    between atoms: C_25  and  O_27
REMARK   10  A    between atoms: C_25  and  C_28
REMARK   11  A    between atoms: C_28  and  O_30
REMARK   12  A    between atoms: C_28  and  C_31
REMARK   13  A    between atoms: C_31  and  O_32
REMARK   14  A    between atoms: O_32  and  P_33
REMARK   15  A    between atoms: P_33  and  O_34
REMARK   16  A    between atoms: P_33  and  O_36
REMARK   17  A    between atoms: O_36  and  P_37
REMARK   18  A    between atoms: P_37  and  O_38
REMARK   19  A    between atoms: P_37  and  O_40
REMARK   20  A    between atoms: O_40  and  C_41
REMARK   21  A    between atoms: C_41  and  C_42
REMARK   22  A    between atoms: C_45  and  N_53
REMARK   23  A    between atoms: C_47  and  O_49
REMARK   24  A    between atoms: C_50  and  O_52
REMARK                            x       y       z     vdW  Elec       q    Type
REMARK                         _______ _______ _______ _____ _____    ______ ____
ROOT
ATOM      1  O   UNL     1       5.895   1.614  26.878  0.00  0.00    -0.284 OA
ENDROOT
BRANCH   1   2
ATOM      2  P   UNL     1       6.344   3.188  27.019  0.00  0.00    +0.483 P 
ATOM      3  O   UNL     1       6.863   3.406  28.442  0.00  0.00    -0.227 OA
BRANCH   2   4
ATOM      4  O   UNL     1       7.954   2.752  26.558  0.00  0.00    -0.302 OA
ATOM      5  H   UNL     1       7.839   2.271  25.715  0.00  0.00    +0.222 HD
ENDBRANCH   2   4
BRANCH   2   6
ATOM      6  O   UNL     1       4.734   3.623  27.478  0.00  0.00    -0.186 OA
BRANCH   6   7
ATOM      7  P   UNL     1       4.317   4.400  26.064  0.00  0.00    +0.483 P 
ATOM      8  O   UNL     1       2.927   4.968  26.101  0.00  0.00    -0.227 OA
BRANCH   7   9
ATOM      9  O   UNL     1       4.343   3.260  24.944  0.00  0.00    -0.302 OA
ATOM     10  H   UNL     1       4.804   3.617  24.159  0.00  0.00    +0.222 HD
ENDBRANCH   7   9
BRANCH   7  11
ATOM     11  O   UNL     1       5.363   5.520  25.449  0.00  0.00    -0.284 OA
BRANCH  11  12
ATOM     12  C   UNL     1       5.106   5.693  24.023  0.00  0.00    +0.206 C 
BRANCH  12  13
ATOM     13  C   UNL     1       6.066   5.368  22.852  0.00  0.00    +0.178 C 
ATOM     14  C   UNL     1       7.439   6.027  22.806  0.00  0.00    +0.178 C 
ATOM     15  C   UNL     1       8.422   4.915  23.144  0.00  0.00    +0.195 C 
ATOM     16  C   UNL     1       7.539   3.669  23.302  0.00  0.00    +0.253 C 
ATOM     17  O   UNL     1       6.271   3.960  22.698  0.00  0.00    -0.346 OA
BRANCH  16  18
ATOM     18  N   UNL     1       8.109   2.488  22.686  0.00  0.00    -0.286 N 
ATOM     19  C   UNL     1       9.065   1.706  23.273  0.00  0.00    +0.167 A 
ATOM     20  N   UNL     1       9.650   1.890  24.470  0.00  0.00    -0.216 NA
ATOM     21  C   UNL     1      10.522   0.890  24.724  0.00  0.00    +0.225 A 
ATOM     22  N   UNL     1      10.849  -0.162  23.941  0.00  0.00    -0.219 NA
ATOM     23  C   UNL     1      10.256  -0.271  22.729  0.00  0.00    +0.147 A 
ATOM     24  N   UNL     1      10.605  -1.339  21.913  0.00  0.00    -0.341 N 
ATOM     25  H   UNL     1       9.911  -1.543  21.202  0.00  0.00    +0.144 HD
ATOM     26  H   UNL     1      10.986  -2.116  22.435  0.00  0.00    +0.144 HD
ATOM     27  C   UNL     1       9.301   0.690  22.363  0.00  0.00    +0.147 A 
ATOM     28  N   UNL     1       8.506   0.837  21.245  0.00  0.00    -0.231 NA
ATOM     29  C   UNL     1       7.797   1.924  21.478  0.00  0.00    +0.203 A 
ENDBRANCH  16  18
BRANCH  15  30
ATOM     30  O   UNL     1       9.118   5.226  24.352  0.00  0.00    -0.385 OA
ATOM     31  H   UNL     1       9.502   6.119  24.235  0.00  0.00    +0.210 HD
ENDBRANCH  15  30
BRANCH  14  32
ATOM     32  O   UNL     1       7.704   6.490  21.462  0.00  0.00    -0.386 OA
ATOM     33  H   UNL     1       7.354   5.848  20.817  0.00  0.00    +0.210 HD
ENDBRANCH  14  32
ENDBRANCH  12  13
ENDBRANCH  11  12
ENDBRANCH   7  11
ENDBRANCH   6   7
ENDBRANCH   2   6
ENDBRANCH   1   2
BRANCH   1  34
ATOM     34  C   UNL     1       5.242   0.983  27.985  0.00  0.00    +0.206 C 
BRANCH  34  35
ATOM     35  C   UNL     1       4.132   0.104  27.408  0.00  0.00    +0.172 C 
BRANCH  35  36
ATOM     36  O   UNL     1       3.322   0.908  26.532  0.00  0.00    -0.387 OA
ATOM     37  H   UNL     1       2.543   0.360  26.321  0.00  0.00    +0.210 HD
ENDBRANCH  35  36
BRANCH  35  38
ATOM     38  C   UNL     1       4.651  -1.147  26.658  0.00  0.00    +0.175 C 
BRANCH  38  39
ATOM     39  O   UNL     1       4.891  -0.844  25.277  0.00  0.00    -0.387 OA
ATOM     40  H   UNL     1       5.031   0.116  25.194  0.00  0.00    +0.210 HD
ENDBRANCH  38  39
BRANCH  38  41
ATOM     41  C   UNL     1       3.625  -2.295  26.795  0.00  0.00    +0.165 C 
BRANCH  41  42
ATOM     42  O   UNL     1       2.567  -1.854  27.659  0.00  0.00    -0.387 OA
ATOM     43  H   UNL     1       2.966  -1.711  28.535  0.00  0.00    +0.210 HD
ENDBRANCH  41  42
BRANCH  41  44
ATOM     44  C   UNL     1       4.249  -3.584  27.368  0.00  0.00    +0.158 C 
BRANCH  44  53
ATOM     45  C   UNL     1       6.514  -4.496  23.738  0.00  0.00    +0.034 A 
ATOM     46  C   UNL     1       6.170  -5.669  23.025  0.00  0.00    -0.027 A 
ATOM     47  C   UNL     1       6.824  -6.160  21.761  0.00  0.00    +0.046 C 
ATOM     48  C   UNL     1       5.109  -6.489  23.472  0.00  0.00    +0.035 A 
ATOM     49  C   UNL     1       4.367  -6.194  24.619  0.00  0.00    +0.089 A 
ATOM     50  N   UNL     1       3.333  -7.077  24.960  0.00  0.00    -0.237 NA
ATOM     51  C   UNL     1       2.629  -6.829  26.020  0.00  0.00    +0.171 A 
ATOM     52  C   UNL     1       2.880  -5.625  26.892  0.00  0.00    +0.170 A 
ATOM     53  N   UNL     1       3.919  -4.761  26.536  0.00  0.00    -0.319 N 
ATOM     54  N   UNL     1       2.122  -5.435  27.928  0.00  0.00    -0.173 NA
ATOM     55  C   UNL     1       1.099  -6.267  28.271  0.00  0.00    +0.351 A 
ATOM     56  O   UNL     1       0.444  -6.113  29.296  0.00  0.00    -0.245 OA
ATOM     57  N   UNL     1       0.787  -7.328  27.467  0.00  0.00    -0.272 N 
ATOM     58  H   UNL     1       0.040  -7.925  27.800  0.00  0.00    +0.174 HD
ATOM     59  C   UNL     1       1.506  -7.760  26.400  0.00  0.00    +0.282 A 
ATOM     60  O   UNL     1       1.282  -8.802  25.810  0.00  0.00    -0.265 OA
ATOM     61  C   UNL     1       4.671  -5.036  25.371  0.00  0.00    +0.071 A 
ATOM     62  C   UNL     1       5.725  -4.232  24.897  0.00  0.00    +0.051 A 
BRANCH  45  64
ATOM     63  C   UNL     1       7.330  -2.594  22.349  0.00  0.00    +0.129 C 
ATOM     64  N   UNL     1       7.534  -3.600  23.398  0.00  0.00    -0.336 N 
ATOM     65  C   UNL     1       8.812  -3.510  24.092  0.00  0.00    +0.129 C 
ENDBRANCH  45  64
ENDBRANCH  44  53
ENDBRANCH  41  44
ENDBRANCH  38  41
ENDBRANCH  35  38
ENDBRANCH  34  35
ENDBRANCH   1  34
TORSDOF 21
ENDMDL
MODEL 9
REMARK VINA RESULT:      -6.4      3.074      9.634
REMARK  Name = 
REMARK  24 active torsions:
REMARK  status: ('A' for Active; 'I' for Inactive)
REMARK    1  A    between atoms: C_1  and  N_2
REMARK    2  A    between atoms: N_2  and  C_3
REMARK    3  A    between atoms: N_2  and  C_4
REMARK    4  A    between atoms: C_9  and  C_10
REMARK    5  A    between atoms: N_20  and  C_21
REMARK    6  A    between atoms: C_21  and  C_22
REMARK    7  A    between atoms: C_22  and  O_24
REMARK    8  A    between atoms: C_22  and  C_25
REMARK    9  A    between atoms: C_25  and  O_27
REMARK   10  A    between atoms: C_25  and  C_28
REMARK   11  A    between atoms: C_28  and  O_30
REMARK   12  A    between atoms: C_28  and  C_31
REMARK   13  A    between atoms: C_31  and  O_32
REMARK   14  A    between atoms: O_32  and  P_33
REMARK   15  A    between atoms: P_33  and  O_34
REMARK   16  A    between atoms: P_33  and  O_36
REMARK   17  A    between atoms: O_36  and  P_37
REMARK   18  A    between atoms: P_37  and  O_38
REMARK   19  A    between atoms: P_37  and  O_40
REMARK   20  A    between atoms: O_40  and  C_41
REMARK   21  A    between atoms: C_41  and  C_42
REMARK   22  A    between atoms: C_45  and  N_53
REMARK   23  A    between atoms: C_47  and  O_49
REMARK   24  A    between atoms: C_50  and  O_52
REMARK                            x       y       z     vdW  Elec       q    Type
REMARK                         _______ _______ _______ _____ _____    ______ ____
ROOT
ATOM      1  O   UNL     1       8.218  -4.075  25.263  0.00  0.00    -0.284 OA
ENDROOT
BRANCH   1   2
ATOM      2  P   UNL     1       8.275  -2.458  24.984  0.00  0.00    +0.483 P 
ATOM      3  O   UNL     1       6.837  -1.939  24.913  0.00  0.00    -0.227 OA
BRANCH   2   4
ATOM      4  O   UNL     1       8.231  -2.180  26.692  0.00  0.00    -0.302 OA
ATOM      5  H   UNL     1       7.649  -2.887  27.034  0.00  0.00    +0.222 HD
ENDBRANCH   2   4
BRANCH   2   6
ATOM      6  O   UNL     1       8.320  -2.737  23.278  0.00  0.00    -0.186 OA
BRANCH   6   7
ATOM      7  P   UNL     1       9.297  -1.445  22.882  0.00  0.00    +0.483 P 
ATOM      8  O   UNL     1      10.648  -1.871  22.382  0.00  0.00    -0.227 OA
BRANCH   7   9
ATOM      9  O   UNL     1       9.517  -0.658  24.256  0.00  0.00    -0.302 OA
ATOM     10  H   UNL     1      10.459  -0.740  24.504  0.00  0.00    +0.222 HD
ENDBRANCH   7   9
BRANCH   7  11
ATOM     11  O   UNL     1       8.681  -0.271  21.900  0.00  0.00    -0.284 OA
BRANCH  11  12
ATOM     12  C   UNL     1       9.470   0.948  22.047  0.00  0.00    +0.206 C 
BRANCH  12  13
ATOM     13  C   UNL     1       8.982   2.322  22.568  0.00  0.00    +0.178 C 
ATOM     14  C   UNL     1       7.626   2.854  22.121  0.00  0.00    +0.178 C 
ATOM     15  C   UNL     1       6.730   2.732  23.345  0.00  0.00    +0.195 C 
ATOM     16  C   UNL     1       7.662   2.190  24.439  0.00  0.00    +0.253 C 
ATOM     17  O   UNL     1       9.010   2.396  23.998  0.00  0.00    -0.346 OA
BRANCH  16  18
ATOM     18  N   UNL     1       7.467   2.835  25.721  0.00  0.00    -0.286 N 
ATOM     19  C   UNL     1       7.214   2.163  26.885  0.00  0.00    +0.167 A 
ATOM     20  N   UNL     1       7.080   0.835  27.049  0.00  0.00    -0.216 NA
ATOM     21  C   UNL     1       6.869   0.542  28.351  0.00  0.00    +0.225 A 
ATOM     22  N   UNL     1       6.762   1.391  29.398  0.00  0.00    -0.219 NA
ATOM     23  C   UNL     1       6.867   2.719  29.164  0.00  0.00    +0.147 A 
ATOM     24  N   UNL     1       6.736   3.595  30.233  0.00  0.00    -0.341 N 
ATOM     25  H   UNL     1       7.144   4.507  30.057  0.00  0.00    +0.144 HD
ATOM     26  H   UNL     1       6.936   3.153  31.120  0.00  0.00    +0.144 HD
ATOM     27  C   UNL     1       7.122   3.149  27.852  0.00  0.00    +0.147 A 
ATOM     28  N   UNL     1       7.320   4.398  27.301  0.00  0.00    -0.231 NA
ATOM     29  C   UNL     1       7.532   4.170  26.020  0.00  0.00    +0.203 A 
ENDBRANCH  16  18
BRANCH  15  30
ATOM     30  O   UNL     1       5.652   1.834  23.077  0.00  0.00    -0.385 OA
ATOM     31  H   UNL     1       5.451   1.376  23.919  0.00  0.00    +0.210 HD
ENDBRANCH  15  30
BRANCH  14  32
ATOM     32  O   UNL     1       7.751   4.252  21.772  0.00  0.00    -0.386 OA
ATOM     33  H   UNL     1       8.428   4.359  21.078  0.00  0.00    +0.210 HD
ENDBRANCH  14  32
ENDBRANCH  12  13
ENDBRANCH  11  12
ENDBRANCH   7  11
ENDBRANCH   6   7
ENDBRANCH   2   6
ENDBRANCH   1   2
BRANCH   1  34
ATOM     34  C   UNL     1       7.040  -4.798  24.887  0.00  0.00    +0.206 C 
BRANCH  34  35
ATOM     35  C   UNL     1       6.600  -5.605  26.108  0.00  0.00    +0.172 C 
BRANCH  35  36
ATOM     36  O   UNL     1       7.747  -5.818  26.951  0.00  0.00    -0.387 OA
ATOM     37  H   UNL     1       8.471  -6.069  26.347  0.00  0.00    +0.210 HD
ENDBRANCH  35  36
BRANCH  35  38
ATOM     38  C   UNL     1       5.458  -4.943  26.917  0.00  0.00    +0.175 C 
BRANCH  38  39
ATOM     39  O   UNL     1       5.890  -3.694  27.472  0.00  0.00    -0.387 OA
ATOM     40  H   UNL     1       5.354  -2.982  27.080  0.00  0.00    +0.210 HD
ENDBRANCH  38  39
BRANCH  38  41
ATOM     41  C   UNL     1       4.989  -5.905  28.033  0.00  0.00    +0.165 C 
BRANCH  41  42
ATOM     42  O   UNL     1       5.222  -7.251  27.594  0.00  0.00    -0.387 OA
ATOM     43  H   UNL     1       5.261  -7.802  28.395  0.00  0.00    +0.210 HD
ENDBRANCH  41  42
BRANCH  41  44
ATOM     44  C   UNL     1       3.497  -5.730  28.379  0.00  0.00    +0.158 C 
BRANCH  44  53
ATOM     45  C   UNL     1       2.305  -1.525  28.565  0.00  0.00    +0.034 A 
ATOM     46  C   UNL     1       1.642  -0.979  27.440  0.00  0.00    -0.027 A 
ATOM     47  C   UNL     1       1.154   0.439  27.303  0.00  0.00    +0.046 C 
ATOM     48  C   UNL     1       1.359  -1.789  26.317  0.00  0.00    +0.035 A 
ATOM     49  C   UNL     1       1.718  -3.138  26.258  0.00  0.00    +0.089 A 
ATOM     50  N   UNL     1       1.378  -3.843  25.095  0.00  0.00    -0.237 NA
ATOM     51  C   UNL     1       1.700  -5.097  25.012  0.00  0.00    +0.171 A 
ATOM     52  C   UNL     1       2.420  -5.820  26.121  0.00  0.00    +0.170 A 
ATOM     53  N   UNL     1       2.754  -5.096  27.269  0.00  0.00    -0.319 N 
ATOM     54  N   UNL     1       2.694  -7.080  25.971  0.00  0.00    -0.173 NA
ATOM     55  C   UNL     1       2.357  -7.792  24.859  0.00  0.00    +0.351 A 
ATOM     56  O   UNL     1       2.693  -8.961  24.704  0.00  0.00    -0.245 OA
ATOM     57  N   UNL     1       1.637  -7.197  23.862  0.00  0.00    -0.272 N 
ATOM     58  H   UNL     1       1.453  -7.773  23.050  0.00  0.00    +0.174 HD
ATOM     59  C   UNL     1       1.336  -5.876  23.774  0.00  0.00    +0.282 A 
ATOM     60  O   UNL     1       0.832  -5.361  22.792  0.00  0.00    -0.265 OA
ATOM     61  C   UNL     1       2.386  -3.734  27.353  0.00  0.00    +0.071 A 
ATOM     62  C   UNL     1       2.645  -2.907  28.462  0.00  0.00    +0.051 A 
BRANCH  45  64
ATOM     63  C   UNL     1       4.015  -0.833  30.241  0.00  0.00    +0.129 C 
ATOM     64  N   UNL     1       2.637  -0.834  29.736  0.00  0.00    -0.336 N 
ATOM     65  C   UNL     1       1.709   0.003  30.484  0.00  0.00    +0.129 C 
ENDBRANCH  45  64
ENDBRANCH  44  53
ENDBRANCH  41  44
ENDBRANCH  38  41
ENDBRANCH  35  38
ENDBRANCH  34  35
ENDBRANCH   1  34
TORSDOF 21
ENDMDL
