MODEL 1
REMARK VINA RESULT:      -5.7      0.000      0.000
REMARK  Name = 
REMARK  11 active torsions:
REMARK  status: ('A' for Active; 'I' for Inactive)
REMARK    1  A    between atoms: C_1  and  C_2
REMARK    2  A    between atoms: N_4  and  C_5
REMARK    3  A    between atoms: C_7  and  N_9
REMARK    4  A    between atoms: C_11  and  C_23
REMARK    5  A    between atoms: C_13  and  C_15
REMARK    6  A    between atoms: C_15  and  O_17
REMARK    7  A    between atoms: C_15  and  C_18
REMARK    8  A    between atoms: C_18  and  O_20
REMARK    9  A    between atoms: C_18  and  C_21
REMARK   10  A    between atoms: C_21  and  O_22
REMARK   11  A    between atoms: C_23  and  O_24
REMARK                            x       y       z     vdW  Elec       q    Type
REMARK                         _______ _______ _______ _____ _____    ______ ____
ROOT
ATOM      1  C   UNL     1       8.225  -3.425  25.464  0.00  0.00    +0.137 C 
ATOM      2  C   UNL     1       6.899  -3.948  26.069  0.00  0.00    +0.227 C 
ATOM      3  O   UNL     1       5.963  -4.464  25.087  0.00  0.00    -0.478 OA
ATOM      4  C   UNL     1       6.473  -5.107  23.981  0.00  0.00    +0.202 C 
ATOM      5  C   UNL     1       7.761  -5.087  23.619  0.00  0.00    +0.046 C 
ATOM      6  C   UNL     1       8.799  -4.296  24.322  0.00  0.00    +0.102 C 
ENDROOT
BRANCH   1   9
ATOM      7  C   UNL     1       8.199   0.371  25.376  0.00  0.00    +0.109 C 
ATOM      8  C   UNL     1       8.436  -1.010  25.917  0.00  0.00    +0.210 C 
ATOM      9  N   UNL     1       8.080  -2.022  25.048  0.00  0.00    -0.307 N 
ATOM     10  H   UNL     1       7.457  -1.807  24.277  0.00  0.00    +0.149 HD
ATOM     11  O   UNL     1       8.948  -1.215  27.014  0.00  0.00    -0.276 OA
ENDBRANCH   1   9
BRANCH   6  12
ATOM     12  N   UNL     1       9.842  -5.206  24.806  0.00  0.00    -0.322 NA
ATOM     13  H   UNL     1       9.400  -6.085  25.085  0.00  0.00    +0.119 HD
ATOM     14  H   UNL     1      10.439  -5.469  24.019  0.00  0.00    +0.119 HD
ENDBRANCH   6  12
BRANCH   4  15
ATOM     15  C   UNL     1       5.513  -5.837  23.091  0.00  0.00    +0.372 C 
ATOM     16  O   UNL     1       5.209  -5.502  21.957  0.00  0.00    -0.242 OA
BRANCH  15  17
ATOM     17  O   UNL     1       4.985  -6.906  23.725  0.00  0.00    -0.475 OA
ATOM     18  H   UNL     1       4.845  -6.707  24.676  0.00  0.00    +0.296 HD
ENDBRANCH  15  17
ENDBRANCH   4  15
BRANCH   2  19
ATOM     19  C   UNL     1       7.049  -4.949  27.253  0.00  0.00    +0.187 C 
BRANCH  19  20
ATOM     20  O   UNL     1       7.993  -5.965  26.829  0.00  0.00    -0.385 OA
ATOM     21  H   UNL     1       7.711  -6.787  27.286  0.00  0.00    +0.210 HD
ENDBRANCH  19  20
BRANCH  19  22
ATOM     22  C   UNL     1       5.732  -5.672  27.626  0.00  0.00    +0.172 C 
BRANCH  22  23
ATOM     23  O   UNL     1       5.589  -6.776  26.716  0.00  0.00    -0.387 OA
ATOM     24  H   UNL     1       4.839  -7.324  27.030  0.00  0.00    +0.210 HD
ENDBRANCH  22  23
BRANCH  22  25
ATOM     25  C   UNL     1       5.732  -6.222  29.060  0.00  0.00    +0.189 C 
BRANCH  25  26
ATOM     26  O   UNL     1       6.605  -7.352  29.171  0.00  0.00    -0.392 OA
ATOM     27  H   UNL     1       6.482  -7.750  30.048  0.00  0.00    +0.210 HD
ENDBRANCH  25  26
ENDBRANCH  22  25
ENDBRANCH  19  22
ENDBRANCH   2  19
TORSDOF 10
ENDMDL
MODEL 2
REMARK VINA RESULT:      -5.5      2.441      3.169
REMARK  Name = 
REMARK  11 active torsions:
REMARK  status: ('A' for Active; 'I' for Inactive)
REMARK    1  A    between atoms: C_1  and  C_2
REMARK    2  A    between atoms: N_4  and  C_5
REMARK    3  A    between atoms: C_7  and  N_9
REMARK    4  A    between atoms: C_11  and  C_23
REMARK    5  A    between atoms: C_13  and  C_15
REMARK    6  A    between atoms: C_15  and  O_17
REMARK    7  A    between atoms: C_15  and  C_18
REMARK    8  A    between atoms: C_18  and  O_20
REMARK    9  A    between atoms: C_18  and  C_21
REMARK   10  A    between atoms: C_21  and  O_22
REMARK   11  A    between atoms: C_23  and  O_24
REMARK                            x       y       z     vdW  Elec       q    Type
REMARK                         _______ _______ _______ _____ _____    ______ ____
ROOT
ATOM      1  C   UNL     1       8.964  -1.068  24.027  0.00  0.00    +0.137 C 
ATOM      2  C   UNL     1       8.309  -2.227  24.816  0.00  0.00    +0.227 C 
ATOM      3  O   UNL     1       7.102  -2.752  24.205  0.00  0.00    -0.478 OA
ATOM      4  C   UNL     1       7.029  -2.776  22.830  0.00  0.00    +0.202 C 
ATOM      5  C   UNL     1       7.879  -2.140  22.014  0.00  0.00    +0.046 C 
ATOM      6  C   UNL     1       8.967  -1.254  22.492  0.00  0.00    +0.102 C 
ENDROOT
BRANCH   1   9
ATOM      7  C   UNL     1       8.426   2.536  25.095  0.00  0.00    +0.109 C 
ATOM      8  C   UNL     1       9.173   1.302  24.677  0.00  0.00    +0.210 C 
ATOM      9  N   UNL     1       8.361   0.218  24.412  0.00  0.00    -0.307 N 
ATOM     10  H   UNL     1       7.410   0.221  24.765  0.00  0.00    +0.149 HD
ATOM     11  O   UNL     1      10.393   1.279  24.539  0.00  0.00    -0.276 OA
ENDBRANCH   1   9
BRANCH   6  12
ATOM     12  N   UNL     1      10.249  -1.776  22.011  0.00  0.00    -0.322 NA
ATOM     13  H   UNL     1      10.063  -2.495  21.307  0.00  0.00    +0.119 HD
ATOM     14  H   UNL     1      10.730  -1.039  21.491  0.00  0.00    +0.119 HD
ENDBRANCH   6  12
BRANCH   4  15
ATOM     15  C   UNL     1       5.892  -3.523  22.201  0.00  0.00    +0.372 C 
ATOM     16  O   UNL     1       5.842  -3.880  21.035  0.00  0.00    -0.242 OA
BRANCH  15  17
ATOM     17  O   UNL     1       4.893  -3.716  23.088  0.00  0.00    -0.475 OA
ATOM     18  H   UNL     1       5.245  -3.743  24.004  0.00  0.00    +0.296 HD
ENDBRANCH  15  17
ENDBRANCH   4  15
BRANCH   2  19
ATOM     19  C   UNL     1       9.263  -3.393  25.216  0.00  0.00    +0.187 C 
BRANCH  19  20
ATOM     20  O   UNL     1      10.124  -3.642  24.076  0.00  0.00    -0.385 OA
ATOM     21  H   UNL     1      11.025  -3.381  24.369  0.00  0.00    +0.210 HD
ENDBRANCH  19  20
BRANCH  19  22
ATOM     22  C   UNL     1       8.528  -4.716  25.535  0.00  0.00    +0.172 C 
BRANCH  22  23
ATOM     23  O   UNL     1       9.520  -5.757  25.536  0.00  0.00    -0.387 OA
ATOM     24  H   UNL     1       9.350  -6.331  24.761  0.00  0.00    +0.210 HD
ENDBRANCH  22  23
BRANCH  22  25
ATOM     25  C   UNL     1       7.835  -4.705  26.907  0.00  0.00    +0.189 C 
BRANCH  25  26
ATOM     26  O   UNL     1       7.852  -6.010  27.495  0.00  0.00    -0.392 OA
ATOM     27  H   UNL     1       8.388  -5.976  28.304  0.00  0.00    +0.210 HD
ENDBRANCH  25  26
ENDBRANCH  22  25
ENDBRANCH  19  22
ENDBRANCH   2  19
TORSDOF 10
ENDMDL
MODEL 3
REMARK VINA RESULT:      -5.5      2.513      4.891
REMARK  Name = 
REMARK  11 active torsions:
REMARK  status: ('A' for Active; 'I' for Inactive)
REMARK    1  A    between atoms: C_1  and  C_2
REMARK    2  A    between atoms: N_4  and  C_5
REMARK    3  A    between atoms: C_7  and  N_9
REMARK    4  A    between atoms: C_11  and  C_23
REMARK    5  A    between atoms: C_13  and  C_15
REMARK    6  A    between atoms: C_15  and  O_17
REMARK    7  A    between atoms: C_15  and  C_18
REMARK    8  A    between atoms: C_18  and  O_20
REMARK    9  A    between atoms: C_18  and  C_21
REMARK   10  A    between atoms: C_21  and  O_22
REMARK   11  A    between atoms: C_23  and  O_24
REMARK                            x       y       z     vdW  Elec       q    Type
REMARK                         _______ _______ _______ _____ _____    ______ ____
ROOT
ATOM      1  C   UNL     1       7.137  -4.272  23.771  0.00  0.00    +0.137 C 
ATOM      2  C   UNL     1       8.491  -4.415  24.506  0.00  0.00    +0.227 C 
ATOM      3  O   UNL     1       9.534  -3.539  24.002  0.00  0.00    -0.478 OA
ATOM      4  C   UNL     1       9.168  -2.293  23.546  0.00  0.00    +0.202 C 
ATOM      5  C   UNL     1       7.907  -1.912  23.308  0.00  0.00    +0.046 C 
ATOM      6  C   UNL     1       6.740  -2.817  23.428  0.00  0.00    +0.102 C 
ENDROOT
BRANCH   1   9
ATOM      7  C   UNL     1       6.045  -6.200  20.687  0.00  0.00    +0.109 C 
ATOM      8  C   UNL     1       5.939  -5.262  21.855  0.00  0.00    +0.210 C 
ATOM      9  N   UNL     1       7.109  -5.132  22.577  0.00  0.00    -0.307 N 
ATOM     10  H   UNL     1       7.830  -5.837  22.471  0.00  0.00    +0.149 HD
ATOM     11  O   UNL     1       4.916  -4.633  22.112  0.00  0.00    -0.276 OA
ENDBRANCH   1   9
BRANCH   6  12
ATOM     12  N   UNL     1       5.809  -2.262  24.416  0.00  0.00    -0.322 NA
ATOM     13  H   UNL     1       5.049  -1.792  23.917  0.00  0.00    +0.119 HD
ATOM     14  H   UNL     1       5.346  -3.034  24.900  0.00  0.00    +0.119 HD
ENDBRANCH   6  12
BRANCH   4  15
ATOM     15  C   UNL     1      10.258  -1.309  23.244  0.00  0.00    +0.372 C 
ATOM     16  O   UNL     1      10.580  -0.372  23.958  0.00  0.00    -0.242 OA
BRANCH  15  17
ATOM     17  O   UNL     1      10.820  -1.565  22.043  0.00  0.00    -0.475 OA
ATOM     18  H   UNL     1      10.704  -0.800  21.439  0.00  0.00    +0.296 HD
ENDBRANCH  15  17
ENDBRANCH   4  15
BRANCH   2  19
ATOM     19  C   UNL     1       8.425  -4.338  26.061  0.00  0.00    +0.187 C 
BRANCH  19  20
ATOM     20  O   UNL     1       9.648  -4.931  26.565  0.00  0.00    -0.385 OA
ATOM     21  H   UNL     1       9.412  -5.307  27.441  0.00  0.00    +0.210 HD
ENDBRANCH  19  20
BRANCH  19  22
ATOM     22  C   UNL     1       7.244  -5.130  26.672  0.00  0.00    +0.172 C 
BRANCH  22  23
ATOM     23  O   UNL     1       7.805  -6.047  27.627  0.00  0.00    -0.387 OA
ATOM     24  H   UNL     1       8.094  -6.845  27.138  0.00  0.00    +0.210 HD
ENDBRANCH  22  23
BRANCH  22  25
ATOM     25  C   UNL     1       6.229  -4.234  27.398  0.00  0.00    +0.189 C 
BRANCH  25  26
ATOM     26  O   UNL     1       6.448  -2.855  27.077  0.00  0.00    -0.392 OA
ATOM     27  H   UNL     1       6.032  -2.310  27.765  0.00  0.00    +0.210 HD
ENDBRANCH  25  26
ENDBRANCH  22  25
ENDBRANCH  19  22
ENDBRANCH   2  19
TORSDOF 10
ENDMDL
MODEL 4
REMARK VINA RESULT:      -5.4      2.786      4.833
REMARK  Name = 
REMARK  11 active torsions:
REMARK  status: ('A' for Active; 'I' for Inactive)
REMARK    1  A    between atoms: C_1  and  C_2
REMARK    2  A    between atoms: N_4  and  C_5
REMARK    3  A    between atoms: C_7  and  N_9
REMARK    4  A    between atoms: C_11  and  C_23
REMARK    5  A    between atoms: C_13  and  C_15
REMARK    6  A    between atoms: C_15  and  O_17
REMARK    7  A    between atoms: C_15  and  C_18
REMARK    8  A    between atoms: C_18  and  O_20
REMARK    9  A    between atoms: C_18  and  C_21
REMARK   10  A    between atoms: C_21  and  O_22
REMARK   11  A    between atoms: C_23  and  O_24
REMARK                            x       y       z     vdW  Elec       q    Type
REMARK                         _______ _______ _______ _____ _____    ______ ____
ROOT
ATOM      1  C   UNL     1       7.651  -1.598  23.072  0.00  0.00    +0.137 C 
ATOM      2  C   UNL     1       7.944  -3.038  22.584  0.00  0.00    +0.227 C 
ATOM      3  O   UNL     1       8.772  -3.813  23.490  0.00  0.00    -0.478 OA
ATOM      4  C   UNL     1       8.627  -3.600  24.843  0.00  0.00    +0.202 C 
ATOM      5  C   UNL     1       7.960  -2.573  25.382  0.00  0.00    +0.046 C 
ATOM      6  C   UNL     1       7.355  -1.479  24.586  0.00  0.00    +0.102 C 
ENDROOT
BRANCH   1   9
ATOM      7  C   UNL     1       9.625   1.398  21.830  0.00  0.00    +0.109 C 
ATOM      8  C   UNL     1       8.429   0.595  22.255  0.00  0.00    +0.210 C 
ATOM      9  N   UNL     1       8.733  -0.689  22.663  0.00  0.00    -0.307 N 
ATOM     10  H   UNL     1       9.627  -1.087  22.399  0.00  0.00    +0.149 HD
ATOM     11  O   UNL     1       7.293   1.059  22.282  0.00  0.00    -0.276 OA
ENDBRANCH   1   9
BRANCH   6  12
ATOM     12  N   UNL     1       5.915  -1.437  24.855  0.00  0.00    -0.322 NA
ATOM     13  H   UNL     1       5.711  -0.594  25.399  0.00  0.00    +0.119 HD
ATOM     14  H   UNL     1       5.420  -1.287  23.973  0.00  0.00    +0.119 HD
ENDBRANCH   6  12
BRANCH   4  15
ATOM     15  C   UNL     1       9.306  -4.554  25.779  0.00  0.00    +0.372 C 
ATOM     16  O   UNL     1       9.042  -4.687  26.964  0.00  0.00    -0.242 OA
BRANCH  15  17
ATOM     17  O   UNL     1      10.294  -5.227  25.150  0.00  0.00    -0.475 OA
ATOM     18  H   UNL     1      10.276  -6.175  25.399  0.00  0.00    +0.296 HD
ENDBRANCH  15  17
ENDBRANCH   4  15
BRANCH   2  19
ATOM     19  C   UNL     1       6.700  -3.866  22.146  0.00  0.00    +0.187 C 
BRANCH  19  20
ATOM     20  O   UNL     1       5.611  -2.926  21.965  0.00  0.00    -0.385 OA
ATOM     21  H   UNL     1       4.813  -3.385  22.309  0.00  0.00    +0.210 HD
ENDBRANCH  19  20
BRANCH  19  22
ATOM     22  C   UNL     1       6.242  -4.904  23.198  0.00  0.00    +0.172 C 
BRANCH  22  23
ATOM     23  O   UNL     1       5.174  -4.297  23.947  0.00  0.00    -0.387 OA
ATOM     24  H   UNL     1       4.623  -3.787  23.318  0.00  0.00    +0.210 HD
ENDBRANCH  22  23
BRANCH  22  25
ATOM     25  C   UNL     1       5.717  -6.205  22.573  0.00  0.00    +0.189 C 
BRANCH  25  26
ATOM     26  O   UNL     1       5.491  -6.038  21.168  0.00  0.00    -0.392 OA
ATOM     27  H   UNL     1       4.679  -6.515  20.929  0.00  0.00    +0.210 HD
ENDBRANCH  25  26
ENDBRANCH  22  25
ENDBRANCH  19  22
ENDBRANCH   2  19
TORSDOF 10
ENDMDL
MODEL 5
REMARK VINA RESULT:      -5.3      2.502      3.358
REMARK  Name = 
REMARK  11 active torsions:
REMARK  status: ('A' for Active; 'I' for Inactive)
REMARK    1  A    between atoms: C_1  and  C_2
REMARK    2  A    between atoms: N_4  and  C_5
REMARK    3  A    between atoms: C_7  and  N_9
REMARK    4  A    between atoms: C_11  and  C_23
REMARK    5  A    between atoms: C_13  and  C_15
REMARK    6  A    between atoms: C_15  and  O_17
REMARK    7  A    between atoms: C_15  and  C_18
REMARK    8  A    between atoms: C_18  and  O_20
REMARK    9  A    between atoms: C_18  and  C_21
REMARK   10  A    between atoms: C_21  and  O_22
REMARK   11  A    between atoms: C_23  and  O_24
REMARK                            x       y       z     vdW  Elec       q    Type
REMARK                         _______ _______ _______ _____ _____    ______ ____
ROOT
ATOM      1  C   UNL     1       6.317  -2.976  23.453  0.00  0.00    +0.137 C 
ATOM      2  C   UNL     1       7.003  -3.878  24.508  0.00  0.00    +0.227 C 
ATOM      3  O   UNL     1       6.120  -4.857  25.114  0.00  0.00    -0.478 OA
ATOM      4  C   UNL     1       5.127  -5.406  24.334  0.00  0.00    +0.202 C 
ATOM      5  C   UNL     1       4.760  -4.939  23.134  0.00  0.00    +0.046 C 
ATOM      6  C   UNL     1       5.324  -3.712  22.523  0.00  0.00    +0.102 C 
ENDROOT
BRANCH   1   9
ATOM      7  C   UNL     1       5.625   0.456  24.923  0.00  0.00    +0.109 C 
ATOM      8  C   UNL     1       6.375  -0.626  24.202  0.00  0.00    +0.210 C 
ATOM      9  N   UNL     1       5.684  -1.818  24.104  0.00  0.00    -0.307 N 
ATOM     10  H   UNL     1       4.899  -1.980  24.725  0.00  0.00    +0.149 HD
ATOM     11  O   UNL     1       7.482  -0.447  23.702  0.00  0.00    -0.276 OA
ENDBRANCH   1   9
BRANCH   6  12
ATOM     12  N   UNL     1       5.941  -4.062  21.240  0.00  0.00    -0.322 NA
ATOM     13  H   UNL     1       5.246  -3.931  20.500  0.00  0.00    +0.119 HD
ATOM     14  H   UNL     1       6.664  -3.372  21.025  0.00  0.00    +0.119 HD
ENDBRANCH   6  12
BRANCH   4  15
ATOM     15  C   UNL     1       4.368  -6.575  24.884  0.00  0.00    +0.372 C 
ATOM     16  O   UNL     1       3.904  -6.647  26.011  0.00  0.00    -0.242 OA
BRANCH  15  17
ATOM     17  O   UNL     1       4.299  -7.575  23.979  0.00  0.00    -0.475 OA
ATOM     18  H   UNL     1       3.746  -8.310  24.320  0.00  0.00    +0.296 HD
ENDBRANCH  15  17
ENDBRANCH   4  15
BRANCH   2  19
ATOM     19  C   UNL     1       8.330  -4.555  24.052  0.00  0.00    +0.187 C 
BRANCH  19  20
ATOM     20  O   UNL     1       7.981  -5.518  23.026  0.00  0.00    -0.385 OA
ATOM     21  H   UNL     1       8.570  -6.289  23.182  0.00  0.00    +0.210 HD
ENDBRANCH  19  20
BRANCH  19  22
ATOM     22  C   UNL     1       9.052  -5.328  25.181  0.00  0.00    +0.172 C 
BRANCH  22  23
ATOM     23  O   UNL     1      10.463  -5.223  24.924  0.00  0.00    -0.387 OA
ATOM     24  H   UNL     1      10.844  -4.621  25.597  0.00  0.00    +0.210 HD
ENDBRANCH  22  23
BRANCH  22  25
ATOM     25  C   UNL     1       8.770  -4.756  26.579  0.00  0.00    +0.189 C 
BRANCH  25  26
ATOM     26  O   UNL     1       8.018  -5.687  27.366  0.00  0.00    -0.392 OA
ATOM     27  H   UNL     1       7.850  -6.478  26.828  0.00  0.00    +0.210 HD
ENDBRANCH  25  26
ENDBRANCH  22  25
ENDBRANCH  19  22
ENDBRANCH   2  19
TORSDOF 10
ENDMDL
MODEL 6
REMARK VINA RESULT:      -5.3      2.129      4.626
REMARK  Name = 
REMARK  11 active torsions:
REMARK  status: ('A' for Active; 'I' for Inactive)
REMARK    1  A    between atoms: C_1  and  C_2
REMARK    2  A    between atoms: N_4  and  C_5
REMARK    3  A    between atoms: C_7  and  N_9
REMARK    4  A    between atoms: C_11  and  C_23
REMARK    5  A    between atoms: C_13  and  C_15
REMARK    6  A    between atoms: C_15  and  O_17
REMARK    7  A    between atoms: C_15  and  C_18
REMARK    8  A    between atoms: C_18  and  O_20
REMARK    9  A    between atoms: C_18  and  C_21
REMARK   10  A    between atoms: C_21  and  O_22
REMARK   11  A    between atoms: C_23  and  O_24
REMARK                            x       y       z     vdW  Elec       q    Type
REMARK                         _______ _______ _______ _____ _____    ______ ____
ROOT
ATOM      1  C   UNL     1       7.935  -1.629  24.291  0.00  0.00    +0.137 C 
ATOM      2  C   UNL     1       8.433  -3.034  23.875  0.00  0.00    +0.227 C 
ATOM      3  O   UNL     1       8.502  -3.985  24.970  0.00  0.00    -0.478 OA
ATOM      4  C   UNL     1       7.555  -3.897  25.966  0.00  0.00    +0.202 C 
ATOM      5  C   UNL     1       6.722  -2.862  26.131  0.00  0.00    +0.046 C 
ATOM      6  C   UNL     1       6.768  -1.632  25.306  0.00  0.00    +0.102 C 
ENDROOT
BRANCH   1   9
ATOM      7  C   UNL     1      10.943   0.681  24.484  0.00  0.00    +0.109 C 
ATOM      8  C   UNL     1       9.805  -0.078  23.864  0.00  0.00    +0.210 C 
ATOM      9  N   UNL     1       9.059  -0.808  24.768  0.00  0.00    -0.307 N 
ATOM     10  H   UNL     1       9.458  -1.014  25.677  0.00  0.00    +0.149 HD
ATOM     11  O   UNL     1       9.537  -0.012  22.667  0.00  0.00    -0.276 OA
ENDBRANCH   1   9
BRANCH   6  12
ATOM     12  N   UNL     1       5.472  -1.458  24.642  0.00  0.00    -0.322 NA
ATOM     13  H   UNL     1       5.484  -1.984  23.765  0.00  0.00    +0.119 HD
ATOM     14  H   UNL     1       4.753  -1.923  25.200  0.00  0.00    +0.119 HD
ENDBRANCH   6  12
BRANCH   4  15
ATOM     15  C   UNL     1       7.485  -5.010  26.967  0.00  0.00    +0.372 C 
ATOM     16  O   UNL     1       6.802  -5.006  27.979  0.00  0.00    -0.242 OA
BRANCH  15  17
ATOM     17  O   UNL     1       8.318  -6.017  26.628  0.00  0.00    -0.475 OA
ATOM     18  H   UNL     1       8.166  -6.291  25.698  0.00  0.00    +0.296 HD
ENDBRANCH  15  17
ENDBRANCH   4  15
BRANCH   2  19
ATOM     19  C   UNL     1       7.708  -3.670  22.651  0.00  0.00    +0.187 C 
BRANCH  19  20
ATOM     20  O   UNL     1       6.872  -2.636  22.074  0.00  0.00    -0.385 OA
ATOM     21  H   UNL     1       7.323  -2.374  21.241  0.00  0.00    +0.210 HD
ENDBRANCH  19  20
BRANCH  19  22
ATOM     22  C   UNL     1       6.784  -4.855  23.023  0.00  0.00    +0.172 C 
BRANCH  22  23
ATOM     23  O   UNL     1       5.479  -4.306  23.271  0.00  0.00    -0.387 OA
ATOM     24  H   UNL     1       5.168  -3.891  22.439  0.00  0.00    +0.210 HD
ENDBRANCH  22  23
BRANCH  22  25
ATOM     25  C   UNL     1       6.666  -5.901  21.903  0.00  0.00    +0.189 C 
BRANCH  25  26
ATOM     26  O   UNL     1       6.068  -5.328  20.735  0.00  0.00    -0.392 OA
ATOM     27  H   UNL     1       6.558  -5.638  19.956  0.00  0.00    +0.210 HD
ENDBRANCH  25  26
ENDBRANCH  22  25
ENDBRANCH  19  22
ENDBRANCH   2  19
TORSDOF 10
ENDMDL
MODEL 7
REMARK VINA RESULT:      -5.2      3.567      6.912
REMARK  Name = 
REMARK  11 active torsions:
REMARK  status: ('A' for Active; 'I' for Inactive)
REMARK    1  A    between atoms: C_1  and  C_2
REMARK    2  A    between atoms: N_4  and  C_5
REMARK    3  A    between atoms: C_7  and  N_9
REMARK    4  A    between atoms: C_11  and  C_23
REMARK    5  A    between atoms: C_13  and  C_15
REMARK    6  A    between atoms: C_15  and  O_17
REMARK    7  A    between atoms: C_15  and  C_18
REMARK    8  A    between atoms: C_18  and  O_20
REMARK    9  A    between atoms: C_18  and  C_21
REMARK   10  A    between atoms: C_21  and  O_22
REMARK   11  A    between atoms: C_23  and  O_24
REMARK                            x       y       z     vdW  Elec       q    Type
REMARK                         _______ _______ _______ _____ _____    ______ ____
ROOT
ATOM      1  C   UNL     1       8.099  -2.719  23.010  0.00  0.00    +0.137 C 
ATOM      2  C   UNL     1       8.324  -1.420  22.199  0.00  0.00    +0.227 C 
ATOM      3  O   UNL     1       7.358  -0.373  22.477  0.00  0.00    -0.478 OA
ATOM      4  C   UNL     1       6.873  -0.263  23.761  0.00  0.00    +0.202 C 
ATOM      5  C   UNL     1       7.037  -1.188  24.715  0.00  0.00    +0.046 C 
ATOM      6  C   UNL     1       7.698  -2.495  24.487  0.00  0.00    +0.102 C 
ENDROOT
BRANCH   1   9
ATOM      7  C   UNL     1       6.254  -5.733  21.622  0.00  0.00    +0.109 C 
ATOM      8  C   UNL     1       7.279  -4.965  22.405  0.00  0.00    +0.210 C 
ATOM      9  N   UNL     1       7.139  -3.594  22.320  0.00  0.00    -0.307 N 
ATOM     10  H   UNL     1       6.586  -3.205  21.563  0.00  0.00    +0.149 HD
ATOM     11  O   UNL     1       8.132  -5.512  23.099  0.00  0.00    -0.276 OA
ENDBRANCH   1   9
BRANCH   6  12
ATOM     12  N   UNL     1       8.851  -2.606  25.385  0.00  0.00    -0.322 NA
ATOM     13  H   UNL     1       9.087  -3.597  25.489  0.00  0.00    +0.119 HD
ATOM     14  H   UNL     1       9.669  -2.206  24.920  0.00  0.00    +0.119 HD
ENDBRANCH   6  12
BRANCH   4  15
ATOM     15  C   UNL     1       6.060   0.948  24.102  0.00  0.00    +0.372 C 
ATOM     16  O   UNL     1       5.071   0.956  24.818  0.00  0.00    -0.242 OA
BRANCH  15  17
ATOM     17  O   UNL     1       6.538   2.043  23.473  0.00  0.00    -0.475 OA
ATOM     18  H   UNL     1       7.309   1.808  22.912  0.00  0.00    +0.296 HD
ENDBRANCH  15  17
ENDBRANCH   4  15
BRANCH   2  19
ATOM     19  C   UNL     1       9.772  -0.845  22.237  0.00  0.00    +0.187 C 
BRANCH  19  20
ATOM     20  O   UNL     1      10.596  -1.825  22.917  0.00  0.00    -0.385 OA
ATOM     21  H   UNL     1       9.997  -2.268  23.558  0.00  0.00    +0.210 HD
ENDBRANCH  19  20
BRANCH  19  22
ATOM     22  C   UNL     1       9.892   0.482  23.025  0.00  0.00    +0.172 C 
BRANCH  22  23
ATOM     23  O   UNL     1      11.020   0.346  23.906  0.00  0.00    -0.387 OA
ATOM     24  H   UNL     1      10.933  -0.513  24.369  0.00  0.00    +0.210 HD
ENDBRANCH  22  23
BRANCH  22  25
ATOM     25  C   UNL     1      10.128   1.701  22.119  0.00  0.00    +0.189 C 
BRANCH  25  26
ATOM     26  O   UNL     1       8.926   2.062  21.429  0.00  0.00    -0.392 OA
ATOM     27  H   UNL     1       8.771   1.413  20.723  0.00  0.00    +0.210 HD
ENDBRANCH  25  26
ENDBRANCH  22  25
ENDBRANCH  19  22
ENDBRANCH   2  19
TORSDOF 10
ENDMDL
MODEL 8
REMARK VINA RESULT:      -5.1      5.134      6.912
REMARK  Name = 
REMARK  11 active torsions:
REMARK  status: ('A' for Active; 'I' for Inactive)
REMARK    1  A    between atoms: C_1  and  C_2
REMARK    2  A    between atoms: N_4  and  C_5
REMARK    3  A    between atoms: C_7  and  N_9
REMARK    4  A    between atoms: C_11  and  C_23
REMARK    5  A    between atoms: C_13  and  C_15
REMARK    6  A    between atoms: C_15  and  O_17
REMARK    7  A    between atoms: C_15  and  C_18
REMARK    8  A    between atoms: C_18  and  O_20
REMARK    9  A    between atoms: C_18  and  C_21
REMARK   10  A    between atoms: C_21  and  O_22
REMARK   11  A    between atoms: C_23  and  O_24
REMARK                            x       y       z     vdW  Elec       q    Type
REMARK                         _______ _______ _______ _____ _____    ______ ____
ROOT
ATOM      1  C   UNL     1       9.519   2.509  23.237  0.00  0.00    +0.137 C 
ATOM      2  C   UNL     1       9.301   1.786  24.588  0.00  0.00    +0.227 C 
ATOM      3  O   UNL     1       7.908   1.675  24.982  0.00  0.00    -0.478 OA
ATOM      4  C   UNL     1       6.966   1.505  23.993  0.00  0.00    +0.202 C 
ATOM      5  C   UNL     1       7.201   1.671  22.685  0.00  0.00    +0.046 C 
ATOM      6  C   UNL     1       8.495   2.143  22.137  0.00  0.00    +0.102 C 
ENDROOT
BRANCH   1   9
ATOM      7  C   UNL     1      10.743   6.061  23.792  0.00  0.00    +0.109 C 
ATOM      8  C   UNL     1      10.821   4.581  23.547  0.00  0.00    +0.210 C 
ATOM      9  N   UNL     1       9.590   3.965  23.441  0.00  0.00    -0.307 N 
ATOM     10  H   UNL     1       8.771   4.445  23.797  0.00  0.00    +0.149 HD
ATOM     11  O   UNL     1      11.886   3.987  23.405  0.00  0.00    -0.276 OA
ENDBRANCH   1   9
BRANCH   6  12
ATOM     12  N   UNL     1       9.022   1.126  21.223  0.00  0.00    -0.322 NA
ATOM     13  H   UNL     1       9.460   1.599  20.429  0.00  0.00    +0.119 HD
ATOM     14  H   UNL     1       9.798   0.643  21.681  0.00  0.00    +0.119 HD
ENDBRANCH   6  12
BRANCH   4  15
ATOM     15  C   UNL     1       5.568   1.161  24.407  0.00  0.00    +0.372 C 
ATOM     16  O   UNL     1       5.254   0.219  25.118  0.00  0.00    -0.242 OA
BRANCH  15  17
ATOM     17  O   UNL     1       4.677   2.010  23.852  0.00  0.00    -0.475 OA
ATOM     18  H   UNL     1       4.098   1.535  23.218  0.00  0.00    +0.296 HD
ENDBRANCH  15  17
ENDBRANCH   4  15
BRANCH   2  19
ATOM     19  C   UNL     1      10.017   0.411  24.738  0.00  0.00    +0.187 C 
BRANCH  19  20
ATOM     20  O   UNL     1      10.908   0.273  23.602  0.00  0.00    -0.385 OA
ATOM     21  H   UNL     1      11.271  -0.637  23.667  0.00  0.00    +0.210 HD
ENDBRANCH  19  20
BRANCH  19  22
ATOM     22  C   UNL     1       9.051  -0.799  24.714  0.00  0.00    +0.172 C 
BRANCH  22  23
ATOM     23  O   UNL     1       9.721  -1.855  24.004  0.00  0.00    -0.387 OA
ATOM     24  H   UNL     1       9.743  -2.639  24.591  0.00  0.00    +0.210 HD
ENDBRANCH  22  23
BRANCH  22  25
ATOM     25  C   UNL     1       8.691  -1.310  26.118  0.00  0.00    +0.189 C 
BRANCH  25  26
ATOM     26  O   UNL     1       9.155  -0.402  27.123  0.00  0.00    -0.392 OA
ATOM     27  H   UNL     1      10.068  -0.639  27.354  0.00  0.00    +0.210 HD
ENDBRANCH  25  26
ENDBRANCH  22  25
ENDBRANCH  19  22
ENDBRANCH   2  19
TORSDOF 10
ENDMDL
MODEL 9
REMARK VINA RESULT:      -5.0      1.336      1.701
REMARK  Name = 
REMARK  11 active torsions:
REMARK  status: ('A' for Active; 'I' for Inactive)
REMARK    1  A    between atoms: C_1  and  C_2
REMARK    2  A    between atoms: N_4  and  C_5
REMARK    3  A    between atoms: C_7  and  N_9
REMARK    4  A    between atoms: C_11  and  C_23
REMARK    5  A    between atoms: C_13  and  C_15
REMARK    6  A    between atoms: C_15  and  O_17
REMARK    7  A    between atoms: C_15  and  C_18
REMARK    8  A    between atoms: C_18  and  O_20
REMARK    9  A    between atoms: C_18  and  C_21
REMARK   10  A    between atoms: C_21  and  O_22
REMARK   11  A    between atoms: C_23  and  O_24
REMARK                            x       y       z     vdW  Elec       q    Type
REMARK                         _______ _______ _______ _____ _____    ______ ____
ROOT
ATOM      1  C   UNL     1       7.764  -2.609  24.740  0.00  0.00    +0.137 C 
ATOM      2  C   UNL     1       6.464  -3.253  25.279  0.00  0.00    +0.227 C 
ATOM      3  O   UNL     1       5.741  -4.038  24.295  0.00  0.00    -0.478 OA
ATOM      4  C   UNL     1       6.471  -4.731  23.355  0.00  0.00    +0.202 C 
ATOM      5  C   UNL     1       7.778  -4.551  23.126  0.00  0.00    +0.046 C 
ATOM      6  C   UNL     1       8.595  -3.518  23.805  0.00  0.00    +0.102 C 
ENDROOT
BRANCH   1   9
ATOM      7  C   UNL     1       7.881   1.021  23.631  0.00  0.00    +0.109 C 
ATOM      8  C   UNL     1       8.324  -0.246  24.303  0.00  0.00    +0.210 C 
ATOM      9  N   UNL     1       7.470  -1.314  24.107  0.00  0.00    -0.307 N 
ATOM     10  H   UNL     1       6.523  -1.131  23.795  0.00  0.00    +0.149 HD
ATOM     11  O   UNL     1       9.377  -0.333  24.929  0.00  0.00    -0.276 OA
ENDBRANCH   1   9
BRANCH   6  12
ATOM     12  N   UNL     1       9.691  -4.177  24.523  0.00  0.00    -0.322 NA
ATOM     13  H   UNL     1       9.417  -4.284  25.504  0.00  0.00    +0.119 HD
ATOM     14  H   UNL     1       9.775  -5.137  24.184  0.00  0.00    +0.119 HD
ENDBRANCH   6  12
BRANCH   4  15
ATOM     15  C   UNL     1       5.745  -5.717  22.491  0.00  0.00    +0.372 C 
ATOM     16  O   UNL     1       5.609  -5.628  21.281  0.00  0.00    -0.242 OA
BRANCH  15  17
ATOM     17  O   UNL     1       5.212  -6.709  23.235  0.00  0.00    -0.475 OA
ATOM     18  H   UNL     1       5.813  -7.484  23.257  0.00  0.00    +0.296 HD
ENDBRANCH  15  17
ENDBRANCH   4  15
BRANCH   2  19
ATOM     19  C   UNL     1       6.610  -4.052  26.608  0.00  0.00    +0.187 C 
BRANCH  19  20
ATOM     20  O   UNL     1       7.898  -3.700  27.172  0.00  0.00    -0.385 OA
ATOM     21  H   UNL     1       8.376  -4.552  27.277  0.00  0.00    +0.210 HD
ENDBRANCH  19  20
BRANCH  19  22
ATOM     22  C   UNL     1       6.597  -5.588  26.414  0.00  0.00    +0.172 C 
BRANCH  22  23
ATOM     23  O   UNL     1       7.707  -6.113  27.162  0.00  0.00    -0.387 OA
ATOM     24  H   UNL     1       8.160  -6.773  26.597  0.00  0.00    +0.210 HD
ENDBRANCH  22  23
BRANCH  22  25
ATOM     25  C   UNL     1       5.309  -6.249  26.928  0.00  0.00    +0.189 C 
BRANCH  25  26
ATOM     26  O   UNL     1       4.281  -6.200  25.931  0.00  0.00    -0.392 OA
ATOM     27  H   UNL     1       4.358  -5.359  25.452  0.00  0.00    +0.210 HD
ENDBRANCH  25  26
ENDBRANCH  22  25
ENDBRANCH  19  22
ENDBRANCH   2  19
TORSDOF 10
ENDMDL
