MODEL 1
REMARK VINA RESULT:      -6.5      0.000      0.000
REMARK  Name = 
REMARK  4 active torsions:
REMARK  status: ('A' for Active; 'I' for Inactive)
REMARK    1  A    between atoms: C_1  and  C_2
REMARK    2  A    between atoms: N_5  and  S_6
REMARK    3  A    between atoms: S_6  and  C_9
REMARK    4  A    between atoms: C_12  and  N_13
REMARK                            x       y       z     vdW  Elec       q    Type
REMARK                         _______ _______ _______ _____ _____    ______ ____
ROOT
ATOM      1  S   UNL     1       8.995  -2.248  23.702  0.00  0.00    +0.075 S 
ATOM      2  O   UNL     1      10.178  -3.080  23.732  0.00  0.00    -0.150 OA
ATOM      3  O   UNL     1       8.084  -2.223  24.830  0.00  0.00    -0.150 OA
ENDROOT
BRANCH   1  10
ATOM      4  C   UNL     1       3.828  -4.454  23.584  0.00  0.00    +0.066 C 
ATOM      5  C   UNL     1       5.219  -4.625  23.049  0.00  0.00    +0.043 A 
ATOM      6  C   UNL     1       5.641  -5.860  22.588  0.00  0.00    +0.043 A 
ATOM      7  C   UNL     1       6.916  -5.911  22.073  0.00  0.00    +0.116 A 
ATOM      8  N   UNL     1       7.730  -4.844  21.994  0.00  0.00    -0.222 NA
ATOM      9  C   UNL     1       7.226  -3.711  22.490  0.00  0.00    +0.235 A 
ATOM     10  N   UNL     1       8.052  -2.597  22.361  0.00  0.00    -0.184 N 
ATOM     11  H   UNL     1       8.629  -2.684  21.534  0.00  0.00    +0.177 HD
ATOM     12  N   UNL     1       6.017  -3.539  23.023  0.00  0.00    -0.219 NA
ENDBRANCH   1  10
BRANCH   1  13
ATOM     13  C   UNL     1       9.526  -0.562  23.449  0.00  0.00    +0.109 A 
ATOM     14  C   UNL     1       9.414   0.013  22.181  0.00  0.00    +0.030 A 
ATOM     15  C   UNL     1       9.843   1.327  21.980  0.00  0.00    +0.024 A 
ATOM     16  C   UNL     1      10.364   2.082  23.037  0.00  0.00    +0.025 A 
ATOM     17  C   UNL     1      10.571   1.456  24.270  0.00  0.00    +0.024 A 
ATOM     18  C   UNL     1      10.138   0.143  24.488  0.00  0.00    +0.030 A 
BRANCH  16  19
ATOM     19  N   UNL     1      10.882   3.359  22.798  0.00  0.00    -0.358 N 
ATOM     20  H   UNL     1      11.789   3.356  22.341  0.00  0.00    +0.142 HD
ATOM     21  H   UNL     1      10.228   3.991  22.345  0.00  0.00    +0.142 HD
ENDBRANCH  16  19
ENDBRANCH   1  13
TORSDOF 3
ENDMDL
MODEL 2
REMARK VINA RESULT:      -6.4      3.016      3.522
REMARK  Name = 
REMARK  4 active torsions:
REMARK  status: ('A' for Active; 'I' for Inactive)
REMARK    1  A    between atoms: C_1  and  C_2
REMARK    2  A    between atoms: N_5  and  S_6
REMARK    3  A    between atoms: S_6  and  C_9
REMARK    4  A    between atoms: C_12  and  N_13
REMARK                            x       y       z     vdW  Elec       q    Type
REMARK                         _______ _______ _______ _____ _____    ______ ____
ROOT
ATOM      1  S   UNL     1       8.942  -2.937  24.320  0.00  0.00    +0.075 S 
ATOM      2  O   UNL     1       7.721  -3.443  23.731  0.00  0.00    -0.150 OA
ATOM      3  O   UNL     1      10.163  -3.718  24.269  0.00  0.00    -0.150 OA
ENDROOT
BRANCH   1  10
ATOM      4  C   UNL     1       6.318  -5.966  28.259  0.00  0.00    +0.066 C 
ATOM      5  C   UNL     1       6.355  -4.613  27.612  0.00  0.00    +0.043 A 
ATOM      6  C   UNL     1       5.246  -3.787  27.660  0.00  0.00    +0.043 A 
ATOM      7  C   UNL     1       5.388  -2.547  27.080  0.00  0.00    +0.116 A 
ATOM      8  N   UNL     1       6.525  -2.123  26.500  0.00  0.00    -0.222 NA
ATOM      9  C   UNL     1       7.521  -3.012  26.491  0.00  0.00    +0.235 A 
ATOM     10  N   UNL     1       8.712  -2.552  25.935  0.00  0.00    -0.184 N 
ATOM     11  H   UNL     1       8.802  -1.554  26.079  0.00  0.00    +0.177 HD
ATOM     12  N   UNL     1       7.501  -4.241  27.006  0.00  0.00    -0.219 NA
ENDBRANCH   1  10
BRANCH   1  13
ATOM     13  C   UNL     1       9.313  -1.376  23.537  0.00  0.00    +0.109 A 
ATOM     14  C   UNL     1       9.042  -1.205  22.177  0.00  0.00    +0.030 A 
ATOM     15  C   UNL     1       9.346   0.012  21.562  0.00  0.00    +0.024 A 
ATOM     16  C   UNL     1       9.898   1.069  22.293  0.00  0.00    +0.025 A 
ATOM     17  C   UNL     1      10.265   0.843  23.624  0.00  0.00    +0.024 A 
ATOM     18  C   UNL     1       9.959  -0.367  24.256  0.00  0.00    +0.030 A 
BRANCH  16  19
ATOM     19  N   UNL     1      10.291   2.243  21.643  0.00  0.00    -0.358 N 
ATOM     20  H   UNL     1       9.717   2.479  20.839  0.00  0.00    +0.142 HD
ATOM     21  H   UNL     1      10.420   3.036  22.265  0.00  0.00    +0.142 HD
ENDBRANCH  16  19
ENDBRANCH   1  13
TORSDOF 3
ENDMDL
MODEL 3
REMARK VINA RESULT:      -6.4      1.866      6.353
REMARK  Name = 
REMARK  4 active torsions:
REMARK  status: ('A' for Active; 'I' for Inactive)
REMARK    1  A    between atoms: C_1  and  C_2
REMARK    2  A    between atoms: N_5  and  S_6
REMARK    3  A    between atoms: S_6  and  C_9
REMARK    4  A    between atoms: C_12  and  N_13
REMARK                            x       y       z     vdW  Elec       q    Type
REMARK                         _______ _______ _______ _____ _____    ______ ____
ROOT
ATOM      1  S   UNL     1       8.415  -2.495  24.831  0.00  0.00    +0.075 S 
ATOM      2  O   UNL     1       7.548  -1.354  25.027  0.00  0.00    -0.150 OA
ATOM      3  O   UNL     1       8.836  -3.304  25.960  0.00  0.00    -0.150 OA
ENDROOT
BRANCH   1  10
ATOM      4  C   UNL     1      10.329   2.694  23.839  0.00  0.00    +0.066 C 
ATOM      5  C   UNL     1       9.990   1.392  23.175  0.00  0.00    +0.043 A 
ATOM      6  C   UNL     1       9.703   1.355  21.822  0.00  0.00    +0.043 A 
ATOM      7  C   UNL     1       9.450   0.110  21.290  0.00  0.00    +0.116 A 
ATOM      8  N   UNL     1       9.480  -1.026  22.009  0.00  0.00    -0.222 NA
ATOM      9  C   UNL     1       9.744  -0.865  23.308  0.00  0.00    +0.235 A 
ATOM     10  N   UNL     1       9.823  -2.048  24.040  0.00  0.00    -0.184 N 
ATOM     11  H   UNL     1      10.154  -2.802  23.450  0.00  0.00    +0.177 HD
ATOM     12  N   UNL     1       9.992   0.282  23.939  0.00  0.00    -0.219 NA
ENDBRANCH   1  10
BRANCH   1  13
ATOM     13  C   UNL     1       7.598  -3.606  23.696  0.00  0.00    +0.109 A 
ATOM     14  C   UNL     1       7.986  -4.947  23.643  0.00  0.00    +0.030 A 
ATOM     15  C   UNL     1       7.356  -5.811  22.745  0.00  0.00    +0.024 A 
ATOM     16  C   UNL     1       6.327  -5.358  21.913  0.00  0.00    +0.025 A 
ATOM     17  C   UNL     1       6.028  -3.992  21.900  0.00  0.00    +0.024 A 
ATOM     18  C   UNL     1       6.644  -3.115  22.800  0.00  0.00    +0.030 A 
BRANCH  16  19
ATOM     19  N   UNL     1       5.777  -6.209  20.949  0.00  0.00    -0.358 N 
ATOM     20  H   UNL     1       6.197  -6.115  20.030  0.00  0.00    +0.142 HD
ATOM     21  H   UNL     1       5.716  -7.180  21.244  0.00  0.00    +0.142 HD
ENDBRANCH  16  19
ENDBRANCH   1  13
TORSDOF 3
ENDMDL
MODEL 4
REMARK VINA RESULT:      -6.3      3.269      6.701
REMARK  Name = 
REMARK  4 active torsions:
REMARK  status: ('A' for Active; 'I' for Inactive)
REMARK    1  A    between atoms: C_1  and  C_2
REMARK    2  A    between atoms: N_5  and  S_6
REMARK    3  A    between atoms: S_6  and  C_9
REMARK    4  A    between atoms: C_12  and  N_13
REMARK                            x       y       z     vdW  Elec       q    Type
REMARK                         _______ _______ _______ _____ _____    ______ ____
ROOT
ATOM      1  S   UNL     1       9.573  -1.411  23.653  0.00  0.00    +0.075 S 
ATOM      2  O   UNL     1      10.526  -1.966  22.717  0.00  0.00    -0.150 OA
ATOM      3  O   UNL     1       8.353  -0.787  23.178  0.00  0.00    -0.150 OA
ENDROOT
BRANCH   1  10
ATOM      4  C   UNL     1       7.395   3.368  25.651  0.00  0.00    +0.066 C 
ATOM      5  C   UNL     1       8.564   2.804  24.900  0.00  0.00    +0.043 A 
ATOM      6  C   UNL     1       9.322   3.618  24.078  0.00  0.00    +0.043 A 
ATOM      7  C   UNL     1      10.403   3.024  23.465  0.00  0.00    +0.116 A 
ATOM      8  N   UNL     1      10.740   1.734  23.640  0.00  0.00    -0.222 NA
ATOM      9  C   UNL     1       9.924   1.039  24.435  0.00  0.00    +0.235 A 
ATOM     10  N   UNL     1      10.304  -0.283  24.653  0.00  0.00    -0.184 N 
ATOM     11  H   UNL     1      11.312  -0.368  24.609  0.00  0.00    +0.177 HD
ATOM     12  N   UNL     1       8.846   1.496  25.071  0.00  0.00    -0.219 NA
ENDBRANCH   1  10
BRANCH   1  13
ATOM     13  C   UNL     1       9.069  -2.724  24.753  0.00  0.00    +0.109 A 
ATOM     14  C   UNL     1       9.617  -4.000  24.601  0.00  0.00    +0.030 A 
ATOM     15  C   UNL     1       9.212  -5.030  25.452  0.00  0.00    +0.024 A 
ATOM     16  C   UNL     1       8.279  -4.797  26.469  0.00  0.00    +0.025 A 
ATOM     17  C   UNL     1       7.660  -3.545  26.536  0.00  0.00    +0.024 A 
ATOM     18  C   UNL     1       8.062  -2.501  25.696  0.00  0.00    +0.030 A 
BRANCH  16  19
ATOM     19  N   UNL     1       7.808  -5.860  27.247  0.00  0.00    -0.358 N 
ATOM     20  H   UNL     1       8.541  -6.382  27.717  0.00  0.00    +0.142 HD
ATOM     21  H   UNL     1       7.055  -5.605  27.879  0.00  0.00    +0.142 HD
ENDBRANCH  16  19
ENDBRANCH   1  13
TORSDOF 3
ENDMDL
MODEL 5
REMARK VINA RESULT:      -6.3      1.531      2.033
REMARK  Name = 
REMARK  4 active torsions:
REMARK  status: ('A' for Active; 'I' for Inactive)
REMARK    1  A    between atoms: C_1  and  C_2
REMARK    2  A    between atoms: N_5  and  S_6
REMARK    3  A    between atoms: S_6  and  C_9
REMARK    4  A    between atoms: C_12  and  N_13
REMARK                            x       y       z     vdW  Elec       q    Type
REMARK                         _______ _______ _______ _____ _____    ______ ____
ROOT
ATOM      1  S   UNL     1       8.512  -2.650  24.575  0.00  0.00    +0.075 S 
ATOM      2  O   UNL     1       9.146  -3.806  23.979  0.00  0.00    -0.150 OA
ATOM      3  O   UNL     1       8.694  -2.355  25.984  0.00  0.00    -0.150 OA
ENDROOT
BRANCH   1  10
ATOM      4  C   UNL     1       4.871  -6.687  25.998  0.00  0.00    +0.066 C 
ATOM      5  C   UNL     1       5.352  -5.856  24.845  0.00  0.00    +0.043 A 
ATOM      6  C   UNL     1       5.164  -6.293  23.546  0.00  0.00    +0.043 A 
ATOM      7  C   UNL     1       5.596  -5.444  22.552  0.00  0.00    +0.116 A 
ATOM      8  N   UNL     1       6.162  -4.248  22.790  0.00  0.00    -0.222 NA
ATOM      9  C   UNL     1       6.314  -3.941  24.082  0.00  0.00    +0.235 A 
ATOM     10  N   UNL     1       6.855  -2.681  24.325  0.00  0.00    -0.184 N 
ATOM     11  H   UNL     1       6.596  -2.041  23.584  0.00  0.00    +0.177 HD
ATOM     12  N   UNL     1       5.950  -4.682  25.128  0.00  0.00    -0.219 NA
ENDBRANCH   1  10
BRANCH   1  13
ATOM     13  C   UNL     1       9.072  -1.207  23.684  0.00  0.00    +0.109 A 
ATOM     14  C   UNL     1       9.447  -0.063  24.392  0.00  0.00    +0.030 A 
ATOM     15  C   UNL     1       9.871   1.070  23.694  0.00  0.00    +0.024 A 
ATOM     16  C   UNL     1       9.947   1.068  22.297  0.00  0.00    +0.025 A 
ATOM     17  C   UNL     1       9.464  -0.046  21.603  0.00  0.00    +0.024 A 
ATOM     18  C   UNL     1       9.044  -1.191  22.287  0.00  0.00    +0.030 A 
BRANCH  16  19
ATOM     19  N   UNL     1      10.276   2.241  21.610  0.00  0.00    -0.358 N 
ATOM     20  H   UNL     1      10.736   2.080  20.719  0.00  0.00    +0.142 HD
ATOM     21  H   UNL     1       9.507   2.900  21.529  0.00  0.00    +0.142 HD
ENDBRANCH  16  19
ENDBRANCH   1  13
TORSDOF 3
ENDMDL
MODEL 6
REMARK VINA RESULT:      -6.3      2.314      2.730
REMARK  Name = 
REMARK  4 active torsions:
REMARK  status: ('A' for Active; 'I' for Inactive)
REMARK    1  A    between atoms: C_1  and  C_2
REMARK    2  A    between atoms: N_5  and  S_6
REMARK    3  A    between atoms: S_6  and  C_9
REMARK    4  A    between atoms: C_12  and  N_13
REMARK                            x       y       z     vdW  Elec       q    Type
REMARK                         _______ _______ _______ _____ _____    ______ ____
ROOT
ATOM      1  S   UNL     1      10.012  -0.110  24.547  0.00  0.00    +0.075 S 
ATOM      2  O   UNL     1      11.334   0.377  24.872  0.00  0.00    -0.150 OA
ATOM      3  O   UNL     1       9.134  -0.609  25.588  0.00  0.00    -0.150 OA
ENDROOT
BRANCH   1  10
ATOM      4  C   UNL     1       5.774  -3.105  22.392  0.00  0.00    +0.066 C 
ATOM      5  C   UNL     1       7.107  -3.227  23.069  0.00  0.00    +0.043 A 
ATOM      6  C   UNL     1       7.442  -4.386  23.745  0.00  0.00    +0.043 A 
ATOM      7  C   UNL     1       8.703  -4.425  24.295  0.00  0.00    +0.116 A 
ATOM      8  N   UNL     1       9.590  -3.419  24.193  0.00  0.00    -0.222 NA
ATOM      9  C   UNL     1       9.150  -2.341  23.539  0.00  0.00    +0.235 A 
ATOM     10  N   UNL     1      10.087  -1.322  23.392  0.00  0.00    -0.184 N 
ATOM     11  H   UNL     1      11.021  -1.710  23.345  0.00  0.00    +0.177 HD
ATOM     12  N   UNL     1       7.952  -2.180  22.976  0.00  0.00    -0.219 NA
ENDBRANCH   1  10
BRANCH   1  13
ATOM     13  C   UNL     1       9.130   1.219  23.743  0.00  0.00    +0.109 A 
ATOM     14  C   UNL     1       8.954   1.191  22.358  0.00  0.00    +0.030 A 
ATOM     15  C   UNL     1       8.277   2.238  21.728  0.00  0.00    +0.024 A 
ATOM     16  C   UNL     1       7.754   3.304  22.468  0.00  0.00    +0.025 A 
ATOM     17  C   UNL     1       8.036   3.371  23.836  0.00  0.00    +0.024 A 
ATOM     18  C   UNL     1       8.705   2.326  24.482  0.00  0.00    +0.030 A 
BRANCH  16  19
ATOM     19  N   UNL     1       7.169   4.393  21.814  0.00  0.00    -0.358 N 
ATOM     20  H   UNL     1       6.710   4.150  20.941  0.00  0.00    +0.142 HD
ATOM     21  H   UNL     1       6.577   4.963  22.411  0.00  0.00    +0.142 HD
ENDBRANCH  16  19
ENDBRANCH   1  13
TORSDOF 3
ENDMDL
MODEL 7
REMARK VINA RESULT:      -6.3      2.813      6.761
REMARK  Name = 
REMARK  4 active torsions:
REMARK  status: ('A' for Active; 'I' for Inactive)
REMARK    1  A    between atoms: C_1  and  C_2
REMARK    2  A    between atoms: N_5  and  S_6
REMARK    3  A    between atoms: S_6  and  C_9
REMARK    4  A    between atoms: C_12  and  N_13
REMARK                            x       y       z     vdW  Elec       q    Type
REMARK                         _______ _______ _______ _____ _____    ______ ____
ROOT
ATOM      1  S   UNL     1       8.697  -2.928  24.079  0.00  0.00    +0.075 S 
ATOM      2  O   UNL     1      10.081  -3.344  24.131  0.00  0.00    -0.150 OA
ATOM      3  O   UNL     1       8.018  -2.787  22.805  0.00  0.00    -0.150 OA
ENDROOT
BRANCH   1  10
ATOM      4  C   UNL     1       8.307   2.214  21.847  0.00  0.00    +0.066 C 
ATOM      5  C   UNL     1       9.049   1.401  22.866  0.00  0.00    +0.043 A 
ATOM      6  C   UNL     1      10.302   1.799  23.296  0.00  0.00    +0.043 A 
ATOM      7  C   UNL     1      10.887   1.017  24.267  0.00  0.00    +0.116 A 
ATOM      8  N   UNL     1      10.302  -0.071  24.798  0.00  0.00    -0.222 NA
ATOM      9  C   UNL     1       9.104  -0.373  24.290  0.00  0.00    +0.235 A 
ATOM     10  N   UNL     1       8.479  -1.471  24.877  0.00  0.00    -0.184 N 
ATOM     11  H   UNL     1       8.755  -1.552  25.847  0.00  0.00    +0.177 HD
ATOM     12  N   UNL     1       8.444   0.295  23.345  0.00  0.00    -0.219 NA
ENDBRANCH   1  10
BRANCH   1  13
ATOM     13  C   UNL     1       7.743  -4.104  25.026  0.00  0.00    +0.109 A 
ATOM     14  C   UNL     1       6.583  -4.654  24.476  0.00  0.00    +0.030 A 
ATOM     15  C   UNL     1       5.830  -5.563  25.223  0.00  0.00    +0.024 A 
ATOM     16  C   UNL     1       6.233  -5.945  26.507  0.00  0.00    +0.025 A 
ATOM     17  C   UNL     1       7.332  -5.302  27.084  0.00  0.00    +0.024 A 
ATOM     18  C   UNL     1       8.102  -4.396  26.345  0.00  0.00    +0.030 A 
BRANCH  16  19
ATOM     19  N   UNL     1       5.416  -6.776  27.281  0.00  0.00    -0.358 N 
ATOM     20  H   UNL     1       5.518  -7.764  27.071  0.00  0.00    +0.142 HD
ATOM     21  H   UNL     1       5.467  -6.591  28.278  0.00  0.00    +0.142 HD
ENDBRANCH  16  19
ENDBRANCH   1  13
TORSDOF 3
ENDMDL
MODEL 8
REMARK VINA RESULT:      -6.2      2.289      3.036
REMARK  Name = 
REMARK  4 active torsions:
REMARK  status: ('A' for Active; 'I' for Inactive)
REMARK    1  A    between atoms: C_1  and  C_2
REMARK    2  A    between atoms: N_5  and  S_6
REMARK    3  A    between atoms: S_6  and  C_9
REMARK    4  A    between atoms: C_12  and  N_13
REMARK                            x       y       z     vdW  Elec       q    Type
REMARK                         _______ _______ _______ _____ _____    ______ ____
ROOT
ATOM      1  S   UNL     1       8.623  -4.591  25.620  0.00  0.00    +0.075 S 
ATOM      2  O   UNL     1       9.426  -5.308  24.655  0.00  0.00    -0.150 OA
ATOM      3  O   UNL     1       8.764  -4.858  27.039  0.00  0.00    -0.150 OA
ENDROOT
BRANCH   1  10
ATOM      4  C   UNL     1       6.216  -5.873  20.707  0.00  0.00    +0.066 C 
ATOM      5  C   UNL     1       6.209  -4.869  21.821  0.00  0.00    +0.043 A 
ATOM      6  C   UNL     1       5.723  -3.592  21.604  0.00  0.00    +0.043 A 
ATOM      7  C   UNL     1       5.712  -2.754  22.697  0.00  0.00    +0.116 A 
ATOM      8  N   UNL     1       6.132  -3.121  23.920  0.00  0.00    -0.222 NA
ATOM      9  C   UNL     1       6.603  -4.368  24.005  0.00  0.00    +0.235 A 
ATOM     10  N   UNL     1       6.990  -4.761  25.284  0.00  0.00    -0.184 N 
ATOM     11  H   UNL     1       6.432  -4.283  25.981  0.00  0.00    +0.177 HD
ATOM     12  N   UNL     1       6.675  -5.265  23.023  0.00  0.00    -0.219 NA
ENDBRANCH   1  10
BRANCH   1  13
ATOM     13  C   UNL     1       8.945  -2.848  25.403  0.00  0.00    +0.109 A 
ATOM     14  C   UNL     1       9.667  -2.414  24.288  0.00  0.00    +0.030 A 
ATOM     15  C   UNL     1       9.931  -1.052  24.127  0.00  0.00    +0.024 A 
ATOM     16  C   UNL     1       9.464  -0.115  25.055  0.00  0.00    +0.025 A 
ATOM     17  C   UNL     1       8.841  -0.576  26.218  0.00  0.00    +0.024 A 
ATOM     18  C   UNL     1       8.562  -1.937  26.390  0.00  0.00    +0.030 A 
BRANCH  16  19
ATOM     19  N   UNL     1       9.823   1.232  24.933  0.00  0.00    -0.358 N 
ATOM     20  H   UNL     1       9.294   1.854  25.536  0.00  0.00    +0.142 HD
ATOM     21  H   UNL     1      10.823   1.399  24.996  0.00  0.00    +0.142 HD
ENDBRANCH  16  19
ENDBRANCH   1  13
TORSDOF 3
ENDMDL
MODEL 9
REMARK VINA RESULT:      -6.1      2.127      6.813
REMARK  Name = 
REMARK  4 active torsions:
REMARK  status: ('A' for Active; 'I' for Inactive)
REMARK    1  A    between atoms: C_1  and  C_2
REMARK    2  A    between atoms: N_5  and  S_6
REMARK    3  A    between atoms: S_6  and  C_9
REMARK    4  A    between atoms: C_12  and  N_13
REMARK                            x       y       z     vdW  Elec       q    Type
REMARK                         _______ _______ _______ _____ _____    ______ ____
ROOT
ATOM      1  S   UNL     1       8.757  -4.016  24.806  0.00  0.00    +0.075 S 
ATOM      2  O   UNL     1       8.531  -3.152  25.943  0.00  0.00    -0.150 OA
ATOM      3  O   UNL     1       9.828  -4.994  24.825  0.00  0.00    -0.150 OA
ENDROOT
BRANCH   1  10
ATOM      4  C   UNL     1      10.804   1.195  24.329  0.00  0.00    +0.066 C 
ATOM      5  C   UNL     1       9.636   0.326  23.966  0.00  0.00    +0.043 A 
ATOM      6  C   UNL     1       8.411   0.896  23.668  0.00  0.00    +0.043 A 
ATOM      7  C   UNL     1       7.410   0.023  23.300  0.00  0.00    +0.116 A 
ATOM      8  N   UNL     1       7.579  -1.308  23.214  0.00  0.00    -0.222 NA
ATOM      9  C   UNL     1       8.796  -1.746  23.547  0.00  0.00    +0.235 A 
ATOM     10  N   UNL     1       8.981  -3.120  23.408  0.00  0.00    -0.184 N 
ATOM     11  H   UNL     1       8.401  -3.477  22.659  0.00  0.00    +0.177 HD
ATOM     12  N   UNL     1       9.836  -1.007  23.928  0.00  0.00    -0.219 NA
ENDBRANCH   1  10
BRANCH   1  13
ATOM     13  C   UNL     1       7.250  -4.929  24.514  0.00  0.00    +0.109 A 
ATOM     14  C   UNL     1       6.492  -5.373  25.600  0.00  0.00    +0.030 A 
ATOM     15  C   UNL     1       5.321  -6.100  25.371  0.00  0.00    +0.024 A 
ATOM     16  C   UNL     1       4.886  -6.370  24.069  0.00  0.00    +0.025 A 
ATOM     17  C   UNL     1       5.713  -6.015  22.999  0.00  0.00    +0.024 A 
ATOM     18  C   UNL     1       6.884  -5.280  23.212  0.00  0.00    +0.030 A 
BRANCH  16  19
ATOM     19  N   UNL     1       3.768  -7.185  23.857  0.00  0.00    -0.358 N 
ATOM     20  H   UNL     1       2.907  -6.669  23.703  0.00  0.00    +0.142 HD
ATOM     21  H   UNL     1       3.912  -7.906  23.157  0.00  0.00    +0.142 HD
ENDBRANCH  16  19
ENDBRANCH   1  13
TORSDOF 3
ENDMDL
