MODEL 1
REMARK VINA RESULT:      -6.8      0.000      0.000
REMARK  Name = 
REMARK  14 active torsions:
REMARK  status: ('A' for Active; 'I' for Inactive)
REMARK    1  A    between atoms: C_1  and  C_2
REMARK    2  A    between atoms: N_4  and  C_5
REMARK    3  A    between atoms: C_5  and  C_7
REMARK    4  A    between atoms: C_5  and  C_21
REMARK    5  A    between atoms: C_7  and  C_8
REMARK    6  A    between atoms: C_11  and  O_12
REMARK    7  A    between atoms: O_12  and  P_13
REMARK    8  A    between atoms: P_13  and  O_14
REMARK    9  A    between atoms: P_13  and  O_15
REMARK   10  A    between atoms: C_17  and  C_18
REMARK   11  A    between atoms: N_23  and  C_24
REMARK   12  A    between atoms: N_30  and  C_31
REMARK   13  A    between atoms: C_31  and  C_32
REMARK   14  A    between atoms: C_35  and  C_38
REMARK                            x       y       z     vdW  Elec       q    Type
REMARK                         _______ _______ _______ _____ _____    ______ ____
ROOT
ATOM      1  C   UNL     1       7.041   1.146  26.199  0.00  0.00    +0.234 C 
ATOM      2  N   UNL     1       7.907   0.674  25.241  0.00  0.00    -0.302 N 
ATOM      3  H   UNL     1       7.702  -0.185  24.749  0.00  0.00    +0.150 HD
ATOM      4  O   UNL     1       7.207   2.211  26.793  0.00  0.00    -0.274 OA
ENDROOT
BRANCH   2   5
ATOM      5  C   UNL     1       9.052   1.432  24.732  0.00  0.00    +0.159 C 
ATOM      6  C   UNL     1      10.171   0.461  24.327  0.00  0.00    +0.236 C 
ATOM      7  O   UNL     1      11.356   0.781  24.321  0.00  0.00    -0.274 OA
ATOM      8  N   UNL     1       9.659  -0.636  23.612  0.00  0.00    -0.296 N 
ATOM      9  C   UNL     1       9.827  -0.564  22.163  0.00  0.00    +0.108 C 
ATOM     10  C   UNL     1       9.457   0.797  21.563  0.00  0.00    +0.019 C 
ATOM     11  C   UNL     1       8.273   1.469  22.250  0.00  0.00    +0.004 C 
ATOM     12  C   UNL     1       8.653   2.277  23.511  0.00  0.00    +0.032 C 
BRANCH   8  13
ATOM     13  C   UNL     1       9.754  -1.958  24.240  0.00  0.00    +0.143 C 
BRANCH  13  14
ATOM     14  C   UNL     1       8.659  -2.920  23.858  0.00  0.00    -0.030 A 
ATOM     15  C   UNL     1       8.637  -4.225  24.360  0.00  0.00    +0.006 A 
ATOM     16  C   UNL     1       7.513  -5.037  24.166  0.00  0.00    +0.009 A 
ATOM     17  C   UNL     1       6.369  -4.561  23.500  0.00  0.00    -0.018 A 
ATOM     18  C   UNL     1       6.471  -3.300  22.889  0.00  0.00    +0.009 A 
ATOM     19  C   UNL     1       7.602  -2.501  23.049  0.00  0.00    +0.006 A 
BRANCH  17  20
ATOM     20  C   UNL     1       5.071  -5.280  23.552  0.00  0.00    -0.018 A 
ATOM     21  C   UNL     1       4.984  -6.568  24.116  0.00  0.00    +0.008 A 
ATOM     22  C   UNL     1       3.755  -7.204  24.312  0.00  0.00    +0.001 A 
ATOM     23  C   UNL     1       2.575  -6.562  23.951  0.00  0.00    +0.000 A 
ATOM     24  C   UNL     1       2.629  -5.300  23.372  0.00  0.00    +0.001 A 
ATOM     25  C   UNL     1       3.863  -4.672  23.163  0.00  0.00    +0.008 A 
ENDBRANCH  17  20
ENDBRANCH  13  14
ENDBRANCH   8  13
ENDBRANCH   2   5
BRANCH   1  26
ATOM     26  C   UNL     1       5.833   0.215  26.495  0.00  0.00    +0.163 C 
BRANCH  26  29
ATOM     27  C   UNL     1       2.404   1.796  27.000  0.00  0.00    +0.109 C 
ATOM     28  C   UNL     1       3.641   1.019  27.361  0.00  0.00    +0.211 C 
ATOM     29  N   UNL     1       4.600   0.997  26.381  0.00  0.00    -0.304 N 
ATOM     30  H   UNL     1       4.485   1.541  25.530  0.00  0.00    +0.149 HD
ATOM     31  O   UNL     1       3.760   0.437  28.433  0.00  0.00    -0.276 OA
ENDBRANCH  26  29
BRANCH  26  32
ATOM     32  C   UNL     1       5.856  -1.044  25.594  0.00  0.00    +0.067 C 
BRANCH  32  33
ATOM     33  C   UNL     1       5.269  -2.273  26.259  0.00  0.00    -0.044 A 
ATOM     34  C   UNL     1       6.100  -3.228  26.855  0.00  0.00    +0.018 A 
ATOM     35  C   UNL     1       5.594  -4.447  27.306  0.00  0.00    +0.057 A 
ATOM     36  C   UNL     1       4.231  -4.701  27.175  0.00  0.00    +0.142 A 
ATOM     37  C   UNL     1       3.375  -3.734  26.648  0.00  0.00    +0.047 A 
ATOM     38  C   UNL     1       3.892  -2.519  26.207  0.00  0.00    +0.007 A 
BRANCH  35  39
ATOM     39  C   UNL     1       6.485  -5.462  27.894  0.00  0.00    +0.262 C 
ATOM     40  O   UNL     1       6.507  -5.693  29.098  0.00  0.00    -0.296 OA
ENDBRANCH  35  39
BRANCH  36  41
ATOM     41  O   UNL     1       3.766  -5.949  27.451  0.00  0.00    -0.403 OA
BRANCH  41  42
ATOM     42  P   UNL     1       3.021  -6.322  28.817  0.00  0.00    +0.528 P 
ATOM     43  O   UNL     1       1.554  -6.571  28.756  0.00  0.00    -0.216 OA
BRANCH  42  44
ATOM     44  O   UNL     1       3.480  -5.159  29.814  0.00  0.00    -0.293 OA
ATOM     45  H   UNL     1       2.769  -4.877  30.415  0.00  0.00    +0.223 HD
ENDBRANCH  42  44
BRANCH  42  46
ATOM     46  O   UNL     1       3.890  -7.570  29.303  0.00  0.00    -0.293 OA
ATOM     47  H   UNL     1       3.620  -7.861  30.192  0.00  0.00    +0.223 HD
ENDBRANCH  42  46
ENDBRANCH  41  42
ENDBRANCH  36  41
ENDBRANCH  32  33
ENDBRANCH  26  32
ENDBRANCH   1  26
TORSDOF 13
ENDMDL
MODEL 2
REMARK VINA RESULT:      -6.5      1.991      3.380
REMARK  Name = 
REMARK  14 active torsions:
REMARK  status: ('A' for Active; 'I' for Inactive)
REMARK    1  A    between atoms: C_1  and  C_2
REMARK    2  A    between atoms: N_4  and  C_5
REMARK    3  A    between atoms: C_5  and  C_7
REMARK    4  A    between atoms: C_5  and  C_21
REMARK    5  A    between atoms: C_7  and  C_8
REMARK    6  A    between atoms: C_11  and  O_12
REMARK    7  A    between atoms: O_12  and  P_13
REMARK    8  A    between atoms: P_13  and  O_14
REMARK    9  A    between atoms: P_13  and  O_15
REMARK   10  A    between atoms: C_17  and  C_18
REMARK   11  A    between atoms: N_23  and  C_24
REMARK   12  A    between atoms: N_30  and  C_31
REMARK   13  A    between atoms: C_31  and  C_32
REMARK   14  A    between atoms: C_35  and  C_38
REMARK                            x       y       z     vdW  Elec       q    Type
REMARK                         _______ _______ _______ _____ _____    ______ ____
ROOT
ATOM      1  C   UNL     1       6.358   2.088  27.007  0.00  0.00    +0.234 C 
ATOM      2  N   UNL     1       6.269   2.682  25.770  0.00  0.00    -0.302 N 
ATOM      3  H   UNL     1       5.768   2.224  25.021  0.00  0.00    +0.150 HD
ATOM      4  O   UNL     1       6.906   2.618  27.973  0.00  0.00    -0.274 OA
ENDROOT
BRANCH   2   5
ATOM      5  C   UNL     1       6.703   4.053  25.491  0.00  0.00    +0.159 C 
ATOM      6  C   UNL     1       8.176   4.044  25.055  0.00  0.00    +0.236 C 
ATOM      7  O   UNL     1       8.919   5.010  25.210  0.00  0.00    -0.274 OA
ATOM      8  N   UNL     1       8.430   3.008  24.140  0.00  0.00    -0.296 N 
ATOM      9  C   UNL     1       8.497   3.420  22.740  0.00  0.00    +0.108 C 
ATOM     10  C   UNL     1       7.363   4.361  22.316  0.00  0.00    +0.019 C 
ATOM     11  C   UNL     1       6.026   4.047  22.979  0.00  0.00    +0.004 C 
ATOM     12  C   UNL     1       5.852   4.683  24.377  0.00  0.00    +0.032 C 
BRANCH   8  13
ATOM     13  C   UNL     1       9.324   1.927  24.570  0.00  0.00    +0.143 C 
BRANCH  13  14
ATOM     14  C   UNL     1       9.037   0.585  23.949  0.00  0.00    -0.030 A 
ATOM     15  C   UNL     1       9.748  -0.556  24.336  0.00  0.00    +0.006 A 
ATOM     16  C   UNL     1       9.335  -1.824  23.908  0.00  0.00    +0.009 A 
ATOM     17  C   UNL     1       8.186  -1.993  23.114  0.00  0.00    -0.018 A 
ATOM     18  C   UNL     1       7.574  -0.825  22.629  0.00  0.00    +0.009 A 
ATOM     19  C   UNL     1       8.002   0.441  23.024  0.00  0.00    +0.006 A 
BRANCH  17  20
ATOM     20  C   UNL     1       7.559  -3.323  22.908  0.00  0.00    -0.018 A 
ATOM     21  C   UNL     1       6.475  -3.478  22.022  0.00  0.00    +0.008 A 
ATOM     22  C   UNL     1       5.965  -4.738  21.697  0.00  0.00    +0.001 A 
ATOM     23  C   UNL     1       6.532  -5.881  22.248  0.00  0.00    +0.000 A 
ATOM     24  C   UNL     1       7.589  -5.760  23.143  0.00  0.00    +0.001 A 
ATOM     25  C   UNL     1       8.088  -4.496  23.478  0.00  0.00    +0.008 A 
ENDBRANCH  17  20
ENDBRANCH  13  14
ENDBRANCH   8  13
ENDBRANCH   2   5
BRANCH   1  26
ATOM     26  C   UNL     1       5.726   0.671  27.091  0.00  0.00    +0.163 C 
BRANCH  26  29
ATOM     27  C   UNL     1       2.437   0.144  28.941  0.00  0.00    +0.109 C 
ATOM     28  C   UNL     1       3.875  -0.099  28.570  0.00  0.00    +0.211 C 
ATOM     29  N   UNL     1       4.380   0.792  27.657  0.00  0.00    -0.304 N 
ATOM     30  H   UNL     1       3.826   1.585  27.344  0.00  0.00    +0.149 HD
ATOM     31  O   UNL     1       4.523  -1.031  29.031  0.00  0.00    -0.276 OA
ENDBRANCH  26  29
BRANCH  26  32
ATOM     32  C   UNL     1       5.761  -0.046  25.720  0.00  0.00    +0.067 C 
BRANCH  32  33
ATOM     33  C   UNL     1       5.879  -1.553  25.830  0.00  0.00    -0.044 A 
ATOM     34  C   UNL     1       4.929  -2.390  25.232  0.00  0.00    +0.018 A 
ATOM     35  C   UNL     1       4.919  -3.763  25.477  0.00  0.00    +0.057 A 
ATOM     36  C   UNL     1       5.887  -4.305  26.318  0.00  0.00    +0.142 A 
ATOM     37  C   UNL     1       6.883  -3.499  26.868  0.00  0.00    +0.047 A 
ATOM     38  C   UNL     1       6.887  -2.131  26.610  0.00  0.00    +0.007 A 
BRANCH  35  39
ATOM     39  C   UNL     1       3.890  -4.628  24.875  0.00  0.00    +0.262 C 
ATOM     40  O   UNL     1       3.132  -4.227  23.997  0.00  0.00    -0.296 OA
ENDBRANCH  35  39
BRANCH  36  41
ATOM     41  O   UNL     1       5.775  -5.607  26.695  0.00  0.00    -0.403 OA
BRANCH  41  42
ATOM     42  P   UNL     1       5.894  -6.090  28.215  0.00  0.00    +0.528 P 
ATOM     43  O   UNL     1       5.347  -5.192  29.269  0.00  0.00    -0.216 OA
BRANCH  42  44
ATOM     44  O   UNL     1       7.444  -6.457  28.362  0.00  0.00    -0.293 OA
ATOM     45  H   UNL     1       8.016  -5.900  27.807  0.00  0.00    +0.223 HD
ENDBRANCH  42  44
BRANCH  42  46
ATOM     46  O   UNL     1       5.196  -7.524  28.132  0.00  0.00    -0.293 OA
ATOM     47  H   UNL     1       5.270  -8.001  28.977  0.00  0.00    +0.223 HD
ENDBRANCH  42  46
ENDBRANCH  41  42
ENDBRANCH  36  41
ENDBRANCH  32  33
ENDBRANCH  26  32
ENDBRANCH   1  26
TORSDOF 13
ENDMDL
MODEL 3
REMARK VINA RESULT:      -6.4      3.753      8.533
REMARK  Name = 
REMARK  14 active torsions:
REMARK  status: ('A' for Active; 'I' for Inactive)
REMARK    1  A    between atoms: C_1  and  C_2
REMARK    2  A    between atoms: N_4  and  C_5
REMARK    3  A    between atoms: C_5  and  C_7
REMARK    4  A    between atoms: C_5  and  C_21
REMARK    5  A    between atoms: C_7  and  C_8
REMARK    6  A    between atoms: C_11  and  O_12
REMARK    7  A    between atoms: O_12  and  P_13
REMARK    8  A    between atoms: P_13  and  O_14
REMARK    9  A    between atoms: P_13  and  O_15
REMARK   10  A    between atoms: C_17  and  C_18
REMARK   11  A    between atoms: N_23  and  C_24
REMARK   12  A    between atoms: N_30  and  C_31
REMARK   13  A    between atoms: C_31  and  C_32
REMARK   14  A    between atoms: C_35  and  C_38
REMARK                            x       y       z     vdW  Elec       q    Type
REMARK                         _______ _______ _______ _____ _____    ______ ____
ROOT
ATOM      1  C   UNL     1       5.195  -1.996  25.694  0.00  0.00    +0.234 C 
ATOM      2  N   UNL     1       6.283  -2.495  25.016  0.00  0.00    -0.302 N 
ATOM      3  H   UNL     1       6.998  -1.869  24.673  0.00  0.00    +0.150 HD
ATOM      4  O   UNL     1       4.318  -2.709  26.183  0.00  0.00    -0.274 OA
ENDROOT
BRANCH   2   5
ATOM      5  C   UNL     1       6.587  -3.923  24.902  0.00  0.00    +0.159 C 
ATOM      6  C   UNL     1       7.493  -4.158  23.684  0.00  0.00    +0.236 C 
ATOM      7  O   UNL     1       7.524  -5.226  23.078  0.00  0.00    -0.274 OA
ATOM      8  N   UNL     1       8.515  -3.196  23.616  0.00  0.00    -0.296 N 
ATOM      9  C   UNL     1       9.820  -3.645  24.093  0.00  0.00    +0.108 C 
ATOM     10  C   UNL     1       9.767  -4.402  25.425  0.00  0.00    +0.019 C 
ATOM     11  C   UNL     1       8.718  -3.866  26.394  0.00  0.00    +0.004 C 
ATOM     12  C   UNL     1       7.300  -4.435  26.165  0.00  0.00    +0.032 C 
BRANCH   8  13
ATOM     13  C   UNL     1       8.493  -2.261  22.486  0.00  0.00    +0.143 C 
BRANCH  13  14
ATOM     14  C   UNL     1       9.227  -0.967  22.721  0.00  0.00    -0.030 A 
ATOM     15  C   UNL     1       9.421  -0.049  21.684  0.00  0.00    +0.006 A 
ATOM     16  C   UNL     1       9.918   1.232  21.959  0.00  0.00    +0.009 A 
ATOM     17  C   UNL     1      10.200   1.643  23.274  0.00  0.00    -0.018 A 
ATOM     18  C   UNL     1      10.128   0.660  24.274  0.00  0.00    +0.009 A 
ATOM     19  C   UNL     1       9.667  -0.627  24.001  0.00  0.00    +0.006 A 
BRANCH  17  20
ATOM     20  C   UNL     1      10.427   3.068  23.622  0.00  0.00    -0.018 A 
ATOM     21  C   UNL     1      11.659   3.691  23.335  0.00  0.00    +0.008 A 
ATOM     22  C   UNL     1      11.847   5.065  23.515  0.00  0.00    +0.001 A 
ATOM     23  C   UNL     1      10.803   5.855  23.983  0.00  0.00    +0.000 A 
ATOM     24  C   UNL     1       9.584   5.266  24.296  0.00  0.00    +0.001 A 
ATOM     25  C   UNL     1       9.402   3.888  24.130  0.00  0.00    +0.008 A 
ENDBRANCH  17  20
ENDBRANCH  13  14
ENDBRANCH   8  13
ENDBRANCH   2   5
BRANCH   1  26
ATOM     26  C   UNL     1       5.142  -0.446  25.781  0.00  0.00    +0.163 C 
BRANCH  26  29
ATOM     27  C   UNL     1       3.252   1.072  28.720  0.00  0.00    +0.109 C 
ATOM     28  C   UNL     1       3.529   0.710  27.286  0.00  0.00    +0.211 C 
ATOM     29  N   UNL     1       4.643  -0.069  27.106  0.00  0.00    -0.304 N 
ATOM     30  H   UNL     1       5.166  -0.421  27.904  0.00  0.00    +0.149 HD
ATOM     31  O   UNL     1       2.826   1.104  26.363  0.00  0.00    -0.276 OA
ENDBRANCH  26  29
BRANCH  26  32
ATOM     32  C   UNL     1       6.510   0.187  25.428  0.00  0.00    +0.067 C 
BRANCH  32  33
ATOM     33  C   UNL     1       6.393   1.540  24.755  0.00  0.00    -0.044 A 
ATOM     34  C   UNL     1       6.082   2.684  25.498  0.00  0.00    +0.018 A 
ATOM     35  C   UNL     1       5.791   3.896  24.872  0.00  0.00    +0.057 A 
ATOM     36  C   UNL     1       5.831   3.964  23.482  0.00  0.00    +0.142 A 
ATOM     37  C   UNL     1       6.206   2.854  22.727  0.00  0.00    +0.047 A 
ATOM     38  C   UNL     1       6.501   1.652  23.364  0.00  0.00    +0.007 A 
BRANCH  35  39
ATOM     39  C   UNL     1       5.424   5.083  25.663  0.00  0.00    +0.262 C 
ATOM     40  O   UNL     1       6.253   5.724  26.302  0.00  0.00    -0.296 OA
ENDBRANCH  35  39
BRANCH  36  41
ATOM     41  O   UNL     1       5.379   5.090  22.867  0.00  0.00    -0.403 OA
BRANCH  41  42
ATOM     42  P   UNL     1       6.341   6.284  22.412  0.00  0.00    +0.528 P 
ATOM     43  O   UNL     1       6.970   7.108  23.480  0.00  0.00    -0.216 OA
BRANCH  42  44
ATOM     44  O   UNL     1       5.449   7.091  21.358  0.00  0.00    -0.293 OA
ATOM     45  H   UNL     1       4.849   7.728  21.783  0.00  0.00    +0.223 HD
ENDBRANCH  42  44
BRANCH  42  46
ATOM     46  O   UNL     1       7.373   5.502  21.478  0.00  0.00    -0.293 OA
ATOM     47  H   UNL     1       7.996   6.115  21.051  0.00  0.00    +0.223 HD
ENDBRANCH  42  46
ENDBRANCH  41  42
ENDBRANCH  36  41
ENDBRANCH  32  33
ENDBRANCH  26  32
ENDBRANCH   1  26
TORSDOF 13
ENDMDL
MODEL 4
REMARK VINA RESULT:      -6.2      2.429      4.936
REMARK  Name = 
REMARK  14 active torsions:
REMARK  status: ('A' for Active; 'I' for Inactive)
REMARK    1  A    between atoms: C_1  and  C_2
REMARK    2  A    between atoms: N_4  and  C_5
REMARK    3  A    between atoms: C_5  and  C_7
REMARK    4  A    between atoms: C_5  and  C_21
REMARK    5  A    between atoms: C_7  and  C_8
REMARK    6  A    between atoms: C_11  and  O_12
REMARK    7  A    between atoms: O_12  and  P_13
REMARK    8  A    between atoms: P_13  and  O_14
REMARK    9  A    between atoms: P_13  and  O_15
REMARK   10  A    between atoms: C_17  and  C_18
REMARK   11  A    between atoms: N_23  and  C_24
REMARK   12  A    between atoms: N_30  and  C_31
REMARK   13  A    between atoms: C_31  and  C_32
REMARK   14  A    between atoms: C_35  and  C_38
REMARK                            x       y       z     vdW  Elec       q    Type
REMARK                         _______ _______ _______ _____ _____    ______ ____
ROOT
ATOM      1  C   UNL     1       8.250  -2.217  22.464  0.00  0.00    +0.234 C 
ATOM      2  N   UNL     1       7.921  -0.899  22.679  0.00  0.00    -0.302 N 
ATOM      3  H   UNL     1       7.248  -0.653  23.391  0.00  0.00    +0.150 HD
ATOM      4  O   UNL     1       9.100  -2.578  21.651  0.00  0.00    -0.274 OA
ENDROOT
BRANCH   2   5
ATOM      5  C   UNL     1       8.624   0.227  22.060  0.00  0.00    +0.159 C 
ATOM      6  C   UNL     1       8.059   1.546  22.608  0.00  0.00    +0.236 C 
ATOM      7  O   UNL     1       8.097   2.597  21.973  0.00  0.00    -0.274 OA
ATOM      8  N   UNL     1       7.882   1.485  24.001  0.00  0.00    -0.296 N 
ATOM      9  C   UNL     1       8.924   2.141  24.786  0.00  0.00    +0.108 C 
ATOM     10  C   UNL     1      10.349   1.811  24.325  0.00  0.00    +0.019 C 
ATOM     11  C   UNL     1      10.518   0.375  23.837  0.00  0.00    +0.004 C 
ATOM     12  C   UNL     1      10.131   0.164  22.356  0.00  0.00    +0.032 C 
BRANCH   8  13
ATOM     13  C   UNL     1       6.509   1.546  24.514  0.00  0.00    +0.143 C 
BRANCH  13  14
ATOM     14  C   UNL     1       6.161   0.479  25.519  0.00  0.00    -0.030 A 
ATOM     15  C   UNL     1       4.833   0.233  25.879  0.00  0.00    +0.006 A 
ATOM     16  C   UNL     1       4.508  -0.891  26.650  0.00  0.00    +0.009 A 
ATOM     17  C   UNL     1       5.489  -1.815  27.051  0.00  0.00    -0.018 A 
ATOM     18  C   UNL     1       6.826  -1.471  26.794  0.00  0.00    +0.009 A 
ATOM     19  C   UNL     1       7.159  -0.335  26.057  0.00  0.00    +0.006 A 
BRANCH  17  20
ATOM     20  C   UNL     1       5.137  -3.152  27.593  0.00  0.00    -0.018 A 
ATOM     21  C   UNL     1       6.010  -4.247  27.429  0.00  0.00    +0.008 A 
ATOM     22  C   UNL     1       5.774  -5.475  28.055  0.00  0.00    +0.001 A 
ATOM     23  C   UNL     1       4.659  -5.638  28.868  0.00  0.00    +0.000 A 
ATOM     24  C   UNL     1       3.768  -4.584  29.032  0.00  0.00    +0.001 A 
ATOM     25  C   UNL     1       3.998  -3.360  28.392  0.00  0.00    +0.008 A 
ENDBRANCH  17  20
ENDBRANCH  13  14
ENDBRANCH   8  13
ENDBRANCH   2   5
BRANCH   1  26
ATOM     26  C   UNL     1       7.443  -3.233  23.319  0.00  0.00    +0.163 C 
BRANCH  26  29
ATOM     27  C   UNL     1       9.386  -4.622  26.288  0.00  0.00    +0.109 C 
ATOM     28  C   UNL     1       8.836  -4.576  24.888  0.00  0.00    +0.211 C 
ATOM     29  N   UNL     1       8.141  -3.431  24.592  0.00  0.00    -0.304 N 
ATOM     30  H   UNL     1       8.094  -2.665  25.259  0.00  0.00    +0.149 HD
ATOM     31  O   UNL     1       8.981  -5.500  24.096  0.00  0.00    -0.276 OA
ENDBRANCH  26  29
BRANCH  26  32
ATOM     32  C   UNL     1       5.969  -2.790  23.482  0.00  0.00    +0.067 C 
BRANCH  32  33
ATOM     33  C   UNL     1       5.040  -3.920  23.880  0.00  0.00    -0.044 A 
ATOM     34  C   UNL     1       3.783  -3.650  24.434  0.00  0.00    +0.018 A 
ATOM     35  C   UNL     1       2.997  -4.669  24.973  0.00  0.00    +0.057 A 
ATOM     36  C   UNL     1       3.471  -5.977  24.937  0.00  0.00    +0.142 A 
ATOM     37  C   UNL     1       4.689  -6.276  24.327  0.00  0.00    +0.047 A 
ATOM     38  C   UNL     1       5.461  -5.251  23.787  0.00  0.00    +0.007 A 
BRANCH  35  39
ATOM     39  C   UNL     1       1.695  -4.368  25.591  0.00  0.00    +0.262 C 
ATOM     40  O   UNL     1       1.288  -3.219  25.730  0.00  0.00    -0.296 OA
ENDBRANCH  35  39
BRANCH  36  41
ATOM     41  O   UNL     1       2.790  -6.941  25.613  0.00  0.00    -0.403 OA
BRANCH  41  42
ATOM     42  P   UNL     1       1.887  -8.045  24.890  0.00  0.00    +0.528 P 
ATOM     43  O   UNL     1       1.636  -7.883  23.432  0.00  0.00    -0.216 OA
BRANCH  42  44
ATOM     44  O   UNL     1       0.578  -8.105  25.809  0.00  0.00    -0.293 OA
ATOM     45  H   UNL     1      -0.185  -8.499  25.351  0.00  0.00    +0.223 HD
ENDBRANCH  42  44
BRANCH  42  46
ATOM     46  O   UNL     1       2.663  -9.381  25.291  0.00  0.00    -0.293 OA
ATOM     47  H   UNL     1       2.618  -9.540  26.250  0.00  0.00    +0.223 HD
ENDBRANCH  42  46
ENDBRANCH  41  42
ENDBRANCH  36  41
ENDBRANCH  32  33
ENDBRANCH  26  32
ENDBRANCH   1  26
TORSDOF 13
ENDMDL
MODEL 5
REMARK VINA RESULT:      -6.1      3.154      4.364
REMARK  Name = 
REMARK  14 active torsions:
REMARK  status: ('A' for Active; 'I' for Inactive)
REMARK    1  A    between atoms: C_1  and  C_2
REMARK    2  A    between atoms: N_4  and  C_5
REMARK    3  A    between atoms: C_5  and  C_7
REMARK    4  A    between atoms: C_5  and  C_21
REMARK    5  A    between atoms: C_7  and  C_8
REMARK    6  A    between atoms: C_11  and  O_12
REMARK    7  A    between atoms: O_12  and  P_13
REMARK    8  A    between atoms: P_13  and  O_14
REMARK    9  A    between atoms: P_13  and  O_15
REMARK   10  A    between atoms: C_17  and  C_18
REMARK   11  A    between atoms: N_23  and  C_24
REMARK   12  A    between atoms: N_30  and  C_31
REMARK   13  A    between atoms: C_31  and  C_32
REMARK   14  A    between atoms: C_35  and  C_38
REMARK                            x       y       z     vdW  Elec       q    Type
REMARK                         _______ _______ _______ _____ _____    ______ ____
ROOT
ATOM      1  C   UNL     1       5.887   1.447  26.094  0.00  0.00    +0.234 C 
ATOM      2  N   UNL     1       7.109   1.645  25.496  0.00  0.00    -0.302 N 
ATOM      3  H   UNL     1       7.805   0.912  25.505  0.00  0.00    +0.150 HD
ATOM      4  O   UNL     1       4.980   2.278  26.070  0.00  0.00    -0.274 OA
ENDROOT
BRANCH   2   5
ATOM      5  C   UNL     1       7.431   2.807  24.665  0.00  0.00    +0.159 C 
ATOM      6  C   UNL     1       8.905   2.741  24.240  0.00  0.00    +0.236 C 
ATOM      7  O   UNL     1       9.561   3.742  23.965  0.00  0.00    -0.274 OA
ATOM      8  N   UNL     1       9.259   1.444  23.832  0.00  0.00    -0.296 N 
ATOM      9  C   UNL     1       9.312   1.242  22.386  0.00  0.00    +0.108 C 
ATOM     10  C   UNL     1       8.109   1.825  21.635  0.00  0.00    +0.019 C 
ATOM     11  C   UNL     1       6.793   1.704  22.397  0.00  0.00    +0.004 C 
ATOM     12  C   UNL     1       6.546   2.846  23.408  0.00  0.00    +0.032 C 
BRANCH   8  13
ATOM     13  C   UNL     1      10.234   0.717  24.652  0.00  0.00    +0.143 C 
BRANCH  13  14
ATOM     14  C   UNL     1       9.732  -0.580  25.231  0.00  0.00    -0.030 A 
ATOM     15  C   UNL     1       9.124  -0.621  26.490  0.00  0.00    +0.006 A 
ATOM     16  C   UNL     1       8.479  -1.786  26.925  0.00  0.00    +0.009 A 
ATOM     17  C   UNL     1       8.391  -2.926  26.106  0.00  0.00    -0.018 A 
ATOM     18  C   UNL     1       9.126  -2.904  24.910  0.00  0.00    +0.009 A 
ATOM     19  C   UNL     1       9.799  -1.759  24.487  0.00  0.00    +0.006 A 
BRANCH  17  20
ATOM     20  C   UNL     1       7.464  -4.045  26.411  0.00  0.00    -0.018 A 
ATOM     21  C   UNL     1       6.604  -3.983  27.526  0.00  0.00    +0.008 A 
ATOM     22  C   UNL     1       5.620  -4.950  27.750  0.00  0.00    +0.001 A 
ATOM     23  C   UNL     1       5.467  -6.006  26.858  0.00  0.00    +0.000 A 
ATOM     24  C   UNL     1       6.314  -6.107  25.761  0.00  0.00    +0.001 A 
ATOM     25  C   UNL     1       7.308  -5.145  25.547  0.00  0.00    +0.008 A 
ENDBRANCH  17  20
ENDBRANCH  13  14
ENDBRANCH   8  13
ENDBRANCH   2   5
BRANCH   1  26
ATOM     26  C   UNL     1       5.739   0.086  26.828  0.00  0.00    +0.163 C 
BRANCH  26  29
ATOM     27  C   UNL     1       6.434   1.168  30.415  0.00  0.00    +0.109 C 
ATOM     28  C   UNL     1       6.599   1.131  28.919  0.00  0.00    +0.211 C 
ATOM     29  N   UNL     1       5.689   0.335  28.271  0.00  0.00    -0.304 N 
ATOM     30  H   UNL     1       4.931  -0.110  28.782  0.00  0.00    +0.149 HD
ATOM     31  O   UNL     1       7.489   1.744  28.343  0.00  0.00    -0.276 OA
ENDBRANCH  26  29
BRANCH  26  32
ATOM     32  C   UNL     1       4.527  -0.717  26.295  0.00  0.00    +0.067 C 
BRANCH  32  33
ATOM     33  C   UNL     1       4.888  -1.692  25.192  0.00  0.00    -0.044 A 
ATOM     34  C   UNL     1       5.844  -1.357  24.226  0.00  0.00    +0.018 A 
ATOM     35  C   UNL     1       6.053  -2.162  23.106  0.00  0.00    +0.057 A 
ATOM     36  C   UNL     1       5.306  -3.329  22.965  0.00  0.00    +0.142 A 
ATOM     37  C   UNL     1       4.399  -3.716  23.951  0.00  0.00    +0.047 A 
ATOM     38  C   UNL     1       4.204  -2.907  25.068  0.00  0.00    +0.007 A 
BRANCH  35  39
ATOM     39  C   UNL     1       7.031  -1.778  22.075  0.00  0.00    +0.262 C 
ATOM     40  O   UNL     1       8.104  -2.359  21.943  0.00  0.00    -0.296 OA
ENDBRANCH  35  39
BRANCH  36  41
ATOM     41  O   UNL     1       5.381  -4.020  21.797  0.00  0.00    -0.403 OA
BRANCH  41  42
ATOM     42  P   UNL     1       6.116  -5.434  21.663  0.00  0.00    +0.528 P 
ATOM     43  O   UNL     1       7.484  -5.558  22.239  0.00  0.00    -0.216 OA
BRANCH  42  44
ATOM     44  O   UNL     1       5.998  -5.761  20.101  0.00  0.00    -0.293 OA
ATOM     45  H   UNL     1       5.089  -5.982  19.831  0.00  0.00    +0.223 HD
ENDBRANCH  42  44
BRANCH  42  46
ATOM     46  O   UNL     1       5.027  -6.404  22.312  0.00  0.00    -0.293 OA
ATOM     47  H   UNL     1       4.652  -7.007  21.647  0.00  0.00    +0.223 HD
ENDBRANCH  42  46
ENDBRANCH  41  42
ENDBRANCH  36  41
ENDBRANCH  32  33
ENDBRANCH  26  32
ENDBRANCH   1  26
TORSDOF 13
ENDMDL
MODEL 6
REMARK VINA RESULT:      -5.8      3.387      8.688
REMARK  Name = 
REMARK  14 active torsions:
REMARK  status: ('A' for Active; 'I' for Inactive)
REMARK    1  A    between atoms: C_1  and  C_2
REMARK    2  A    between atoms: N_4  and  C_5
REMARK    3  A    between atoms: C_5  and  C_7
REMARK    4  A    between atoms: C_5  and  C_21
REMARK    5  A    between atoms: C_7  and  C_8
REMARK    6  A    between atoms: C_11  and  O_12
REMARK    7  A    between atoms: O_12  and  P_13
REMARK    8  A    between atoms: P_13  and  O_14
REMARK    9  A    between atoms: P_13  and  O_15
REMARK   10  A    between atoms: C_17  and  C_18
REMARK   11  A    between atoms: N_23  and  C_24
REMARK   12  A    between atoms: N_30  and  C_31
REMARK   13  A    between atoms: C_31  and  C_32
REMARK   14  A    between atoms: C_35  and  C_38
REMARK                            x       y       z     vdW  Elec       q    Type
REMARK                         _______ _______ _______ _____ _____    ______ ____
ROOT
ATOM      1  C   UNL     1       5.491  -5.483  22.993  0.00  0.00    +0.234 C 
ATOM      2  N   UNL     1       4.337  -5.744  23.695  0.00  0.00    -0.302 N 
ATOM      3  H   UNL     1       3.984  -5.071  24.361  0.00  0.00    +0.150 HD
ATOM      4  O   UNL     1       5.942  -6.236  22.131  0.00  0.00    -0.274 OA
ENDROOT
BRANCH   2   5
ATOM      5  C   UNL     1       3.454  -6.878  23.417  0.00  0.00    +0.159 C 
ATOM      6  C   UNL     1       2.988  -7.502  24.741  0.00  0.00    +0.236 C 
ATOM      7  O   UNL     1       2.655  -8.680  24.838  0.00  0.00    -0.274 OA
ATOM      8  N   UNL     1       2.619  -6.512  25.668  0.00  0.00    -0.296 N 
ATOM      9  C   UNL     1       1.181  -6.291  25.799  0.00  0.00    +0.108 C 
ATOM     10  C   UNL     1       0.444  -6.194  24.458  0.00  0.00    +0.019 C 
ATOM     11  C   UNL     1       1.249  -5.498  23.364  0.00  0.00    +0.004 C 
ATOM     12  C   UNL     1       2.223  -6.431  22.611  0.00  0.00    +0.032 C 
BRANCH   8  13
ATOM     13  C   UNL     1       3.437  -6.376  26.878  0.00  0.00    +0.143 C 
BRANCH  13  14
ATOM     14  C   UNL     1       4.077  -5.025  27.061  0.00  0.00    -0.030 A 
ATOM     15  C   UNL     1       5.234  -4.873  27.832  0.00  0.00    +0.006 A 
ATOM     16  C   UNL     1       5.932  -3.658  27.824  0.00  0.00    +0.009 A 
ATOM     17  C   UNL     1       5.518  -2.578  27.024  0.00  0.00    -0.018 A 
ATOM     18  C   UNL     1       4.282  -2.711  26.371  0.00  0.00    +0.009 A 
ATOM     19  C   UNL     1       3.565  -3.906  26.402  0.00  0.00    +0.006 A 
BRANCH  17  20
ATOM     20  C   UNL     1       6.396  -1.410  26.763  0.00  0.00    -0.018 A 
ATOM     21  C   UNL     1       5.925  -0.097  26.963  0.00  0.00    +0.008 A 
ATOM     22  C   UNL     1       6.772   1.011  26.870  0.00  0.00    +0.001 A 
ATOM     23  C   UNL     1       8.120   0.833  26.576  0.00  0.00    +0.000 A 
ATOM     24  C   UNL     1       8.610  -0.448  26.350  0.00  0.00    +0.001 A 
ATOM     25  C   UNL     1       7.756  -1.554  26.431  0.00  0.00    +0.008 A 
ENDBRANCH  17  20
ENDBRANCH  13  14
ENDBRANCH   8  13
ENDBRANCH   2   5
BRANCH   1  26
ATOM     26  C   UNL     1       6.202  -4.159  23.388  0.00  0.00    +0.163 C 
BRANCH  26  29
ATOM     27  C   UNL     1       8.644  -5.266  26.095  0.00  0.00    +0.109 C 
ATOM     28  C   UNL     1       8.117  -5.063  24.700  0.00  0.00    +0.211 C 
ATOM     29  N   UNL     1       6.932  -4.375  24.640  0.00  0.00    -0.304 N 
ATOM     30  H   UNL     1       6.517  -3.980  25.480  0.00  0.00    +0.149 HD
ATOM     31  O   UNL     1       8.693  -5.501  23.711  0.00  0.00    -0.276 OA
ENDBRANCH  26  29
BRANCH  26  32
ATOM     32  C   UNL     1       7.091  -3.630  22.235  0.00  0.00    +0.067 C 
BRANCH  32  33
ATOM     33  C   UNL     1       7.670  -2.255  22.503  0.00  0.00    -0.044 A 
ATOM     34  C   UNL     1       6.840  -1.190  22.874  0.00  0.00    +0.018 A 
ATOM     35  C   UNL     1       7.327   0.116  22.944  0.00  0.00    +0.057 A 
ATOM     36  C   UNL     1       8.669   0.351  22.657  0.00  0.00    +0.142 A 
ATOM     37  C   UNL     1       9.527  -0.705  22.355  0.00  0.00    +0.047 A 
ATOM     38  C   UNL     1       9.031  -2.005  22.294  0.00  0.00    +0.007 A 
BRANCH  35  39
ATOM     39  C   UNL     1       6.435   1.234  23.294  0.00  0.00    +0.262 C 
ATOM     40  O   UNL     1       6.067   2.060  22.465  0.00  0.00    -0.296 OA
ENDBRANCH  35  39
BRANCH  36  41
ATOM     41  O   UNL     1       9.103   1.636  22.554  0.00  0.00    -0.403 OA
BRANCH  41  42
ATOM     42  P   UNL     1      10.113   2.304  23.599  0.00  0.00    +0.528 P 
ATOM     43  O   UNL     1      10.945   1.394  24.433  0.00  0.00    -0.216 OA
BRANCH  42  44
ATOM     44  O   UNL     1       9.181   3.319  24.411  0.00  0.00    -0.293 OA
ATOM     45  H   UNL     1       8.691   3.927  23.830  0.00  0.00    +0.223 HD
ENDBRANCH  42  44
BRANCH  42  46
ATOM     46  O   UNL     1      10.942   3.274  22.639  0.00  0.00    -0.293 OA
ATOM     47  H   UNL     1      11.508   3.877  23.152  0.00  0.00    +0.223 HD
ENDBRANCH  42  46
ENDBRANCH  41  42
ENDBRANCH  36  41
ENDBRANCH  32  33
ENDBRANCH  26  32
ENDBRANCH   1  26
TORSDOF 13
ENDMDL
MODEL 7
REMARK VINA RESULT:      -5.7      2.742      7.042
REMARK  Name = 
REMARK  14 active torsions:
REMARK  status: ('A' for Active; 'I' for Inactive)
REMARK    1  A    between atoms: C_1  and  C_2
REMARK    2  A    between atoms: N_4  and  C_5
REMARK    3  A    between atoms: C_5  and  C_7
REMARK    4  A    between atoms: C_5  and  C_21
REMARK    5  A    between atoms: C_7  and  C_8
REMARK    6  A    between atoms: C_11  and  O_12
REMARK    7  A    between atoms: O_12  and  P_13
REMARK    8  A    between atoms: P_13  and  O_14
REMARK    9  A    between atoms: P_13  and  O_15
REMARK   10  A    between atoms: C_17  and  C_18
REMARK   11  A    between atoms: N_23  and  C_24
REMARK   12  A    between atoms: N_30  and  C_31
REMARK   13  A    between atoms: C_31  and  C_32
REMARK   14  A    between atoms: C_35  and  C_38
REMARK                            x       y       z     vdW  Elec       q    Type
REMARK                         _______ _______ _______ _____ _____    ______ ____
ROOT
ATOM      1  C   UNL     1       6.116  -5.340  22.993  0.00  0.00    +0.234 C 
ATOM      2  N   UNL     1       6.818  -4.271  23.497  0.00  0.00    -0.302 N 
ATOM      3  H   UNL     1       6.328  -3.451  23.827  0.00  0.00    +0.150 HD
ATOM      4  O   UNL     1       6.649  -6.387  22.627  0.00  0.00    -0.274 OA
ENDROOT
BRANCH   2   5
ATOM      5  C   UNL     1       8.257  -4.297  23.769  0.00  0.00    +0.159 C 
ATOM      6  C   UNL     1       8.850  -2.902  23.519  0.00  0.00    +0.236 C 
ATOM      7  O   UNL     1      10.026  -2.728  23.210  0.00  0.00    -0.274 OA
ATOM      8  N   UNL     1       8.033  -1.896  24.062  0.00  0.00    -0.296 N 
ATOM      9  C   UNL     1       8.485  -1.353  25.340  0.00  0.00    +0.108 C 
ATOM     10  C   UNL     1       8.910  -2.423  26.353  0.00  0.00    +0.019 C 
ATOM     11  C   UNL     1       8.067  -3.694  26.293  0.00  0.00    +0.004 C 
ATOM     12  C   UNL     1       8.534  -4.708  25.224  0.00  0.00    +0.032 C 
BRANCH   8  13
ATOM     13  C   UNL     1       7.383  -0.972  23.126  0.00  0.00    +0.143 C 
BRANCH  13  14
ATOM     14  C   UNL     1       7.999   0.401  23.063  0.00  0.00    -0.030 A 
ATOM     15  C   UNL     1       7.442   1.476  23.762  0.00  0.00    +0.006 A 
ATOM     16  C   UNL     1       8.136   2.689  23.863  0.00  0.00    +0.009 A 
ATOM     17  C   UNL     1       9.415   2.852  23.301  0.00  0.00    -0.018 A 
ATOM     18  C   UNL     1       9.888   1.807  22.491  0.00  0.00    +0.009 A 
ATOM     19  C   UNL     1       9.186   0.610  22.358  0.00  0.00    +0.006 A 
BRANCH  17  20
ATOM     20  C   UNL     1      10.288   4.001  23.651  0.00  0.00    -0.018 A 
ATOM     21  C   UNL     1      11.654   3.997  23.305  0.00  0.00    +0.008 A 
ATOM     22  C   UNL     1      12.462   5.123  23.488  0.00  0.00    +0.001 A 
ATOM     23  C   UNL     1      11.921   6.288  24.020  0.00  0.00    +0.000 A 
ATOM     24  C   UNL     1      10.582   6.316  24.392  0.00  0.00    +0.001 A 
ATOM     25  C   UNL     1       9.779   5.182  24.221  0.00  0.00    +0.008 A 
ENDBRANCH  17  20
ENDBRANCH  13  14
ENDBRANCH   8  13
ENDBRANCH   2   5
BRANCH   1  26
ATOM     26  C   UNL     1       4.581  -5.120  22.899  0.00  0.00    +0.163 C 
BRANCH  26  29
ATOM     27  C   UNL     1       2.050  -7.875  23.621  0.00  0.00    +0.109 C 
ATOM     28  C   UNL     1       2.567  -6.576  23.063  0.00  0.00    +0.211 C 
ATOM     29  N   UNL     1       3.905  -6.364  23.276  0.00  0.00    -0.304 N 
ATOM     30  H   UNL     1       4.483  -7.082  23.704  0.00  0.00    +0.149 HD
ATOM     31  O   UNL     1       1.840  -5.773  22.489  0.00  0.00    -0.276 OA
ENDBRANCH  26  29
BRANCH  26  32
ATOM     32  C   UNL     1       4.133  -3.894  23.733  0.00  0.00    +0.067 C 
BRANCH  32  33
ATOM     33  C   UNL     1       3.747  -4.241  25.157  0.00  0.00    -0.044 A 
ATOM     34  C   UNL     1       4.674  -4.831  26.025  0.00  0.00    +0.018 A 
ATOM     35  C   UNL     1       4.285  -5.322  27.272  0.00  0.00    +0.057 A 
ATOM     36  C   UNL     1       2.953  -5.203  27.658  0.00  0.00    +0.142 A 
ATOM     37  C   UNL     1       2.029  -4.557  26.837  0.00  0.00    +0.047 A 
ATOM     38  C   UNL     1       2.431  -4.064  25.598  0.00  0.00    +0.007 A 
BRANCH  35  39
ATOM     39  C   UNL     1       5.260  -5.978  28.159  0.00  0.00    +0.262 C 
ATOM     40  O   UNL     1       5.495  -7.181  28.097  0.00  0.00    -0.296 OA
ENDBRANCH  35  39
BRANCH  36  41
ATOM     41  O   UNL     1       2.539  -5.834  28.789  0.00  0.00    -0.403 OA
BRANCH  41  42
ATOM     42  P   UNL     1       1.858  -7.281  28.785  0.00  0.00    +0.528 P 
ATOM     43  O   UNL     1       0.443  -7.379  29.237  0.00  0.00    -0.216 OA
BRANCH  42  44
ATOM     44  O   UNL     1       2.902  -8.179  29.599  0.00  0.00    -0.293 OA
ATOM     45  H   UNL     1       2.469  -8.800  30.210  0.00  0.00    +0.223 HD
ENDBRANCH  42  44
BRANCH  42  46
ATOM     46  O   UNL     1       2.109  -7.729  27.273  0.00  0.00    -0.293 OA
ATOM     47  H   UNL     1       2.925  -8.252  27.192  0.00  0.00    +0.223 HD
ENDBRANCH  42  46
ENDBRANCH  41  42
ENDBRANCH  36  41
ENDBRANCH  32  33
ENDBRANCH  26  32
ENDBRANCH   1  26
TORSDOF 13
ENDMDL
MODEL 8
REMARK VINA RESULT:      -5.7      3.288      8.615
REMARK  Name = 
REMARK  14 active torsions:
REMARK  status: ('A' for Active; 'I' for Inactive)
REMARK    1  A    between atoms: C_1  and  C_2
REMARK    2  A    between atoms: N_4  and  C_5
REMARK    3  A    between atoms: C_5  and  C_7
REMARK    4  A    between atoms: C_5  and  C_21
REMARK    5  A    between atoms: C_7  and  C_8
REMARK    6  A    between atoms: C_11  and  O_12
REMARK    7  A    between atoms: O_12  and  P_13
REMARK    8  A    between atoms: P_13  and  O_14
REMARK    9  A    between atoms: P_13  and  O_15
REMARK   10  A    between atoms: C_17  and  C_18
REMARK   11  A    between atoms: N_23  and  C_24
REMARK   12  A    between atoms: N_30  and  C_31
REMARK   13  A    between atoms: C_31  and  C_32
REMARK   14  A    between atoms: C_35  and  C_38
REMARK                            x       y       z     vdW  Elec       q    Type
REMARK                         _______ _______ _______ _____ _____    ______ ____
ROOT
ATOM      1  C   UNL     1       6.943  -5.305  26.295  0.00  0.00    +0.234 C 
ATOM      2  N   UNL     1       5.602  -5.582  26.166  0.00  0.00    -0.302 N 
ATOM      3  H   UNL     1       5.023  -5.020  25.557  0.00  0.00    +0.150 HD
ATOM      4  O   UNL     1       7.710  -5.985  26.976  0.00  0.00    -0.274 OA
ENDROOT
BRANCH   2   5
ATOM      5  C   UNL     1       4.960  -6.775  26.720  0.00  0.00    +0.159 C 
ATOM      6  C   UNL     1       4.397  -6.455  28.113  0.00  0.00    +0.236 C 
ATOM      7  O   UNL     1       4.242  -7.312  28.978  0.00  0.00    -0.274 OA
ATOM      8  N   UNL     1       3.740  -5.213  28.123  0.00  0.00    -0.296 N 
ATOM      9  C   UNL     1       2.283  -5.283  28.058  0.00  0.00    +0.108 C 
ATOM     10  C   UNL     1       1.755  -6.257  26.998  0.00  0.00    +0.019 C 
ATOM     11  C   UNL     1       2.601  -6.299  25.729  0.00  0.00    +0.004 C 
ATOM     12  C   UNL     1       3.814  -7.254  25.813  0.00  0.00    +0.032 C 
BRANCH   8  13
ATOM     13  C   UNL     1       4.331  -4.139  28.930  0.00  0.00    +0.143 C 
BRANCH  13  14
ATOM     14  C   UNL     1       4.214  -2.761  28.333  0.00  0.00    -0.030 A 
ATOM     15  C   UNL     1       4.173  -1.624  29.145  0.00  0.00    +0.006 A 
ATOM     16  C   UNL     1       4.274  -0.347  28.577  0.00  0.00    +0.009 A 
ATOM     17  C   UNL     1       4.454  -0.171  27.194  0.00  0.00    -0.018 A 
ATOM     18  C   UNL     1       4.353  -1.319  26.391  0.00  0.00    +0.009 A 
ATOM     19  C   UNL     1       4.218  -2.590  26.948  0.00  0.00    +0.006 A 
BRANCH  17  20
ATOM     20  C   UNL     1       4.868   1.131  26.613  0.00  0.00    -0.018 A 
ATOM     21  C   UNL     1       5.207   2.216  27.446  0.00  0.00    +0.008 A 
ATOM     22  C   UNL     1       5.741   3.400  26.931  0.00  0.00    +0.001 A 
ATOM     23  C   UNL     1       5.956   3.530  25.564  0.00  0.00    +0.000 A 
ATOM     24  C   UNL     1       5.611   2.486  24.713  0.00  0.00    +0.001 A 
ATOM     25  C   UNL     1       5.063   1.306  25.230  0.00  0.00    +0.008 A 
ENDBRANCH  17  20
ENDBRANCH  13  14
ENDBRANCH   8  13
ENDBRANCH   2   5
BRANCH   1  26
ATOM     26  C   UNL     1       7.421  -4.044  25.524  0.00  0.00    +0.163 C 
BRANCH  26  29
ATOM     27  C   UNL     1       5.457  -3.523  22.301  0.00  0.00    +0.109 C 
ATOM     28  C   UNL     1       6.542  -4.062  23.193  0.00  0.00    +0.211 C 
ATOM     29  N   UNL     1       6.417  -3.706  24.511  0.00  0.00    -0.304 N 
ATOM     30  H   UNL     1       5.602  -3.191  24.835  0.00  0.00    +0.149 HD
ATOM     31  O   UNL     1       7.468  -4.739  22.763  0.00  0.00    -0.276 OA
ENDBRANCH  26  29
BRANCH  26  32
ATOM     32  C   UNL     1       7.744  -2.879  26.491  0.00  0.00    +0.067 C 
BRANCH  32  33
ATOM     33  C   UNL     1       8.269  -1.642  25.790  0.00  0.00    -0.044 A 
ATOM     34  C   UNL     1       9.021  -1.751  24.614  0.00  0.00    +0.018 A 
ATOM     35  C   UNL     1       9.663  -0.643  24.061  0.00  0.00    +0.057 A 
ATOM     36  C   UNL     1       9.534   0.594  24.687  0.00  0.00    +0.142 A 
ATOM     37  C   UNL     1       8.733   0.737  25.819  0.00  0.00    +0.047 A 
ATOM     38  C   UNL     1       8.091  -0.375  26.358  0.00  0.00    +0.007 A 
BRANCH  35  39
ATOM     39  C   UNL     1      10.485  -0.778  22.847  0.00  0.00    +0.262 C 
ATOM     40  O   UNL     1      10.663  -1.860  22.295  0.00  0.00    -0.296 OA
ENDBRANCH  35  39
BRANCH  36  41
ATOM     41  O   UNL     1      10.296   1.632  24.252  0.00  0.00    -0.403 OA
BRANCH  41  42
ATOM     42  P   UNL     1       9.680   2.963  23.614  0.00  0.00    +0.528 P 
ATOM     43  O   UNL     1       9.202   4.018  24.549  0.00  0.00    -0.216 OA
BRANCH  42  44
ATOM     44  O   UNL     1       8.585   2.405  22.590  0.00  0.00    -0.293 OA
ATOM     45  H   UNL     1       7.673   2.581  22.882  0.00  0.00    +0.223 HD
ENDBRANCH  42  44
BRANCH  42  46
ATOM     46  O   UNL     1      10.869   3.415  22.650  0.00  0.00    -0.293 OA
ATOM     47  H   UNL     1      10.648   4.238  22.179  0.00  0.00    +0.223 HD
ENDBRANCH  42  46
ENDBRANCH  41  42
ENDBRANCH  36  41
ENDBRANCH  32  33
ENDBRANCH  26  32
ENDBRANCH   1  26
TORSDOF 13
ENDMDL
MODEL 9
REMARK VINA RESULT:      -5.7      3.226      7.993
REMARK  Name = 
REMARK  14 active torsions:
REMARK  status: ('A' for Active; 'I' for Inactive)
REMARK    1  A    between atoms: C_1  and  C_2
REMARK    2  A    between atoms: N_4  and  C_5
REMARK    3  A    between atoms: C_5  and  C_7
REMARK    4  A    between atoms: C_5  and  C_21
REMARK    5  A    between atoms: C_7  and  C_8
REMARK    6  A    between atoms: C_11  and  O_12
REMARK    7  A    between atoms: O_12  and  P_13
REMARK    8  A    between atoms: P_13  and  O_14
REMARK    9  A    between atoms: P_13  and  O_15
REMARK   10  A    between atoms: C_17  and  C_18
REMARK   11  A    between atoms: N_23  and  C_24
REMARK   12  A    between atoms: N_30  and  C_31
REMARK   13  A    between atoms: C_31  and  C_32
REMARK   14  A    between atoms: C_35  and  C_38
REMARK                            x       y       z     vdW  Elec       q    Type
REMARK                         _______ _______ _______ _____ _____    ______ ____
ROOT
ATOM      1  C   UNL     1       2.844  -1.873  26.857  0.00  0.00    +0.234 C 
ATOM      2  N   UNL     1       3.468  -3.047  27.206  0.00  0.00    -0.302 N 
ATOM      3  H   UNL     1       4.424  -3.037  27.537  0.00  0.00    +0.150 HD
ATOM      4  O   UNL     1       1.668  -1.813  26.501  0.00  0.00    -0.274 OA
ENDROOT
BRANCH   2   5
ATOM      5  C   UNL     1       2.780  -4.336  27.311  0.00  0.00    +0.159 C 
ATOM      6  C   UNL     1       2.791  -5.035  25.944  0.00  0.00    +0.236 C 
ATOM      7  O   UNL     1       1.935  -5.849  25.609  0.00  0.00    -0.274 OA
ATOM      8  N   UNL     1       4.054  -4.941  25.334  0.00  0.00    -0.296 N 
ATOM      9  C   UNL     1       4.883  -6.139  25.437  0.00  0.00    +0.108 C 
ATOM     10  C   UNL     1       4.915  -6.751  26.842  0.00  0.00    +0.019 C 
ATOM     11  C   UNL     1       4.886  -5.717  27.963  0.00  0.00    +0.004 C 
ATOM     12  C   UNL     1       3.466  -5.243  28.346  0.00  0.00    +0.032 C 
BRANCH   8  13
ATOM     13  C   UNL     1       4.154  -4.153  24.100  0.00  0.00    +0.143 C 
BRANCH  13  14
ATOM     14  C   UNL     1       5.502  -3.526  23.858  0.00  0.00    -0.030 A 
ATOM     15  C   UNL     1       5.748  -2.764  22.711  0.00  0.00    +0.006 A 
ATOM     16  C   UNL     1       6.930  -2.020  22.599  0.00  0.00    +0.009 A 
ATOM     17  C   UNL     1       7.878  -1.987  23.637  0.00  0.00    -0.018 A 
ATOM     18  C   UNL     1       7.672  -2.866  24.712  0.00  0.00    +0.009 A 
ATOM     19  C   UNL     1       6.514  -3.635  24.813  0.00  0.00    +0.006 A 
BRANCH  17  20
ATOM     20  C   UNL     1       8.970  -0.981  23.674  0.00  0.00    -0.018 A 
ATOM     21  C   UNL     1       9.250  -0.181  22.547  0.00  0.00    +0.008 A 
ATOM     22  C   UNL     1      10.168   0.871  22.603  0.00  0.00    +0.001 A 
ATOM     23  C   UNL     1      10.830   1.155  23.792  0.00  0.00    +0.000 A 
ATOM     24  C   UNL     1      10.592   0.370  24.914  0.00  0.00    +0.001 A 
ATOM     25  C   UNL     1       9.683  -0.693  24.852  0.00  0.00    +0.008 A 
ENDBRANCH  17  20
ENDBRANCH  13  14
ENDBRANCH   8  13
ENDBRANCH   2   5
BRANCH   1  26
ATOM     26  C   UNL     1       3.750  -0.613  26.927  0.00  0.00    +0.163 C 
BRANCH  26  29
ATOM     27  C   UNL     1       3.735   1.495  30.101  0.00  0.00    +0.109 C 
ATOM     28  C   UNL     1       3.563   1.188  28.638  0.00  0.00    +0.211 C 
ATOM     29  N   UNL     1       3.771  -0.127  28.310  0.00  0.00    -0.304 N 
ATOM     30  H   UNL     1       3.943  -0.822  29.031  0.00  0.00    +0.149 HD
ATOM     31  O   UNL     1       3.285   2.052  27.815  0.00  0.00    -0.276 OA
ENDBRANCH  26  29
BRANCH  26  32
ATOM     32  C   UNL     1       5.158  -0.895  26.348  0.00  0.00    +0.067 C 
BRANCH  32  33
ATOM     33  C   UNL     1       5.857   0.345  25.830  0.00  0.00    -0.044 A 
ATOM     34  C   UNL     1       5.688   0.760  24.503  0.00  0.00    +0.018 A 
ATOM     35  C   UNL     1       6.463   1.786  23.962  0.00  0.00    +0.057 A 
ATOM     36  C   UNL     1       7.406   2.417  24.769  0.00  0.00    +0.142 A 
ATOM     37  C   UNL     1       7.540   2.066  26.112  0.00  0.00    +0.047 A 
ATOM     38  C   UNL     1       6.757   1.045  26.642  0.00  0.00    +0.007 A 
BRANCH  35  39
ATOM     39  C   UNL     1       6.306   2.185  22.554  0.00  0.00    +0.262 C 
ATOM     40  O   UNL     1       5.643   3.163  22.222  0.00  0.00    -0.296 OA
ENDBRANCH  35  39
BRANCH  36  41
ATOM     41  O   UNL     1       8.278   3.291  24.200  0.00  0.00    -0.403 OA
BRANCH  41  42
ATOM     42  P   UNL     1       8.201   4.873  24.422  0.00  0.00    +0.528 P 
ATOM     43  O   UNL     1       8.990   5.451  25.545  0.00  0.00    -0.216 OA
BRANCH  42  44
ATOM     44  O   UNL     1       6.628   5.160  24.470  0.00  0.00    -0.293 OA
ATOM     45  H   UNL     1       6.101   4.348  24.576  0.00  0.00    +0.223 HD
ENDBRANCH  42  44
BRANCH  42  46
ATOM     46  O   UNL     1       8.614   5.402  22.974  0.00  0.00    -0.293 OA
ATOM     47  H   UNL     1       8.687   4.668  22.339  0.00  0.00    +0.223 HD
ENDBRANCH  42  46
ENDBRANCH  41  42
ENDBRANCH  36  41
ENDBRANCH  32  33
ENDBRANCH  26  32
ENDBRANCH   1  26
TORSDOF 13
ENDMDL
