MODEL 1
REMARK VINA RESULT:      -6.3      0.000      0.000
REMARK  Name = 
REMARK  3 active torsions:
REMARK  status: ('A' for Active; 'I' for Inactive)
REMARK    1  A    between atoms: O_1  and  C_2
REMARK    2  A    between atoms: C_2  and  C_3
REMARK    3  A    between atoms: C_7  and  N_10
REMARK                            x       y       z     vdW  Elec       q    Type
REMARK                         _______ _______ _______ _____ _____    ______ ____
ROOT
ATOM      1  N   UNL     1       8.327  -1.921  24.098  0.00  0.00    -0.289 N 
ATOM      2  C   UNL     1       7.422  -2.542  23.298  0.00  0.00    +0.147 A 
ATOM      3  N   UNL     1       6.315  -2.065  22.715  0.00  0.00    -0.330 N 
ATOM      4  H   UNL     1       6.022  -1.086  22.794  0.00  0.00    +0.168 HD
ATOM      5  C   UNL     1       5.594  -2.961  21.966  0.00  0.00    +0.202 A 
ATOM      6  N   UNL     1       5.875  -4.212  21.757  0.00  0.00    -0.198 NA
ATOM      7  C   UNL     1       7.025  -4.768  22.335  0.00  0.00    +0.301 A 
ATOM      8  O   UNL     1       7.346  -5.939  22.162  0.00  0.00    -0.263 OA
ATOM      9  C   UNL     1       7.825  -3.844  23.158  0.00  0.00    +0.172 A 
ATOM     10  N   UNL     1       8.990  -4.048  23.866  0.00  0.00    -0.229 NA
ATOM     11  C   UNL     1       9.256  -2.883  24.426  0.00  0.00    +0.203 A 
ENDROOT
BRANCH   1  14
ATOM     12  C   UNL     1       8.795   1.371  23.291  0.00  0.00    +0.146 C 
ATOM     13  O   UNL     1       7.829   0.334  23.556  0.00  0.00    -0.351 OA
ATOM     14  C   UNL     1       8.349  -0.549  24.572  0.00  0.00    +0.222 C 
ATOM     15  C   UNL     1       9.742  -0.042  24.927  0.00  0.00    +0.057 C 
ATOM     16  C   UNL     1       9.681   1.412  24.521  0.00  0.00    +0.038 C 
BRANCH  12  17
ATOM     17  C   UNL     1       9.574   1.039  22.007  0.00  0.00    +0.187 C 
BRANCH  17  18
ATOM     18  O   UNL     1      10.228   2.210  21.520  0.00  0.00    -0.392 OA
ATOM     19  H   UNL     1      10.999   1.907  21.007  0.00  0.00    +0.210 HD
ENDBRANCH  17  18
ENDBRANCH  12  17
ENDBRANCH   1  14
TORSDOF 3
ENDMDL
MODEL 2
REMARK VINA RESULT:      -6.1      2.351      2.527
REMARK  Name = 
REMARK  3 active torsions:
REMARK  status: ('A' for Active; 'I' for Inactive)
REMARK    1  A    between atoms: O_1  and  C_2
REMARK    2  A    between atoms: C_2  and  C_3
REMARK    3  A    between atoms: C_7  and  N_10
REMARK                            x       y       z     vdW  Elec       q    Type
REMARK                         _______ _______ _______ _____ _____    ______ ____
ROOT
ATOM      1  N   UNL     1       9.326  -1.156  24.502  0.00  0.00    -0.289 N 
ATOM      2  C   UNL     1       8.840  -2.256  25.130  0.00  0.00    +0.147 A 
ATOM      3  N   UNL     1       8.035  -2.356  26.197  0.00  0.00    -0.330 N 
ATOM      4  H   UNL     1       7.643  -1.540  26.675  0.00  0.00    +0.168 HD
ATOM      5  C   UNL     1       7.730  -3.631  26.604  0.00  0.00    +0.202 A 
ATOM      6  N   UNL     1       8.129  -4.742  26.065  0.00  0.00    -0.198 NA
ATOM      7  C   UNL     1       8.969  -4.703  24.942  0.00  0.00    +0.301 A 
ATOM      8  O   UNL     1       9.367  -5.720  24.384  0.00  0.00    -0.263 OA
ATOM      9  C   UNL     1       9.331  -3.354  24.474  0.00  0.00    +0.172 A 
ATOM     10  N   UNL     1      10.127  -2.949  23.424  0.00  0.00    -0.229 NA
ATOM     11  C   UNL     1      10.113  -1.630  23.477  0.00  0.00    +0.203 A 
ENDROOT
BRANCH   1  14
ATOM     12  C   UNL     1       8.550   1.954  23.301  0.00  0.00    +0.146 C 
ATOM     13  O   UNL     1       8.065   0.790  24.000  0.00  0.00    -0.351 OA
ATOM     14  C   UNL     1       9.127   0.248  24.814  0.00  0.00    +0.222 C 
ATOM     15  C   UNL     1      10.356   1.115  24.570  0.00  0.00    +0.057 C 
ATOM     16  C   UNL     1       9.756   2.418  24.095  0.00  0.00    +0.038 C 
BRANCH  12  17
ATOM     17  C   UNL     1       8.901   1.580  21.851  0.00  0.00    +0.187 C 
BRANCH  17  18
ATOM     18  O   UNL     1      10.086   2.265  21.447  0.00  0.00    -0.392 OA
ATOM     19  H   UNL     1       9.803   3.129  21.097  0.00  0.00    +0.210 HD
ENDBRANCH  17  18
ENDBRANCH  12  17
ENDBRANCH   1  14
TORSDOF 3
ENDMDL
MODEL 3
REMARK VINA RESULT:      -5.9      1.773      3.126
REMARK  Name = 
REMARK  3 active torsions:
REMARK  status: ('A' for Active; 'I' for Inactive)
REMARK    1  A    between atoms: O_1  and  C_2
REMARK    2  A    between atoms: C_2  and  C_3
REMARK    3  A    between atoms: C_7  and  N_10
REMARK                            x       y       z     vdW  Elec       q    Type
REMARK                         _______ _______ _______ _____ _____    ______ ____
ROOT
ATOM      1  N   UNL     1       8.617  -2.157  22.773  0.00  0.00    -0.289 N 
ATOM      2  C   UNL     1       8.724  -3.155  23.687  0.00  0.00    +0.147 A 
ATOM      3  N   UNL     1       9.772  -3.540  24.426  0.00  0.00    -0.330 N 
ATOM      4  H   UNL     1      10.677  -3.060  24.400  0.00  0.00    +0.168 HD
ATOM      5  C   UNL     1       9.561  -4.609  25.261  0.00  0.00    +0.202 A 
ATOM      6  N   UNL     1       8.458  -5.277  25.415  0.00  0.00    -0.198 NA
ATOM      7  C   UNL     1       7.324  -4.918  24.673  0.00  0.00    +0.301 A 
ATOM      8  O   UNL     1       6.253  -5.505  24.786  0.00  0.00    -0.263 OA
ATOM      9  C   UNL     1       7.506  -3.780  23.755  0.00  0.00    +0.172 A 
ATOM     10  N   UNL     1       6.624  -3.174  22.886  0.00  0.00    -0.229 NA
ATOM     11  C   UNL     1       7.324  -2.217  22.306  0.00  0.00    +0.203 A 
ENDROOT
BRANCH   1  14
ATOM     12  C   UNL     1      10.439   0.650  23.492  0.00  0.00    +0.146 C 
ATOM     13  O   UNL     1      10.445  -0.791  23.423  0.00  0.00    -0.351 OA
ATOM     14  C   UNL     1       9.623  -1.215  22.315  0.00  0.00    +0.222 C 
ATOM     15  C   UNL     1       9.045   0.046  21.684  0.00  0.00    +0.057 C 
ATOM     16  C   UNL     1      10.031   1.111  22.105  0.00  0.00    +0.038 C 
BRANCH  12  17
ATOM     17  C   UNL     1       9.461   1.113  24.585  0.00  0.00    +0.187 C 
BRANCH  17  18
ATOM     18  O   UNL     1       9.562   0.253  25.720  0.00  0.00    -0.392 OA
ATOM     19  H   UNL     1       8.823  -0.378  25.659  0.00  0.00    +0.210 HD
ENDBRANCH  17  18
ENDBRANCH  12  17
ENDBRANCH   1  14
TORSDOF 3
ENDMDL
MODEL 4
REMARK VINA RESULT:      -5.8      2.603      3.291
REMARK  Name = 
REMARK  3 active torsions:
REMARK  status: ('A' for Active; 'I' for Inactive)
REMARK    1  A    between atoms: O_1  and  C_2
REMARK    2  A    between atoms: C_2  and  C_3
REMARK    3  A    between atoms: C_7  and  N_10
REMARK                            x       y       z     vdW  Elec       q    Type
REMARK                         _______ _______ _______ _____ _____    ______ ____
ROOT
ATOM      1  N   UNL     1      10.146  -0.484  23.588  0.00  0.00    -0.289 N 
ATOM      2  C   UNL     1       9.536  -1.316  24.470  0.00  0.00    +0.147 A 
ATOM      3  N   UNL     1       9.016  -1.062  25.678  0.00  0.00    -0.330 N 
ATOM      4  H   UNL     1       8.995  -0.124  26.088  0.00  0.00    +0.168 HD
ATOM      5  C   UNL     1       8.474  -2.136  26.339  0.00  0.00    +0.202 A 
ATOM      6  N   UNL     1       8.404  -3.362  25.916  0.00  0.00    -0.198 NA
ATOM      7  C   UNL     1       8.926  -3.689  24.656  0.00  0.00    +0.301 A 
ATOM      8  O   UNL     1       8.877  -4.827  24.201  0.00  0.00    -0.263 OA
ATOM      9  C   UNL     1       9.528  -2.568  23.914  0.00  0.00    +0.172 A 
ATOM     10  N   UNL     1      10.129  -2.529  22.674  0.00  0.00    -0.229 NA
ATOM     11  C   UNL     1      10.498  -1.272  22.515  0.00  0.00    +0.203 A 
ENDROOT
BRANCH   1  14
ATOM     12  C   UNL     1       8.932   2.613  24.393  0.00  0.00    +0.146 C 
ATOM     13  O   UNL     1       9.723   1.490  24.833  0.00  0.00    -0.351 OA
ATOM     14  C   UNL     1      10.428   0.935  23.703  0.00  0.00    +0.222 C 
ATOM     15  C   UNL     1      10.015   1.748  22.482  0.00  0.00    +0.057 C 
ATOM     16  C   UNL     1       9.566   3.057  23.089  0.00  0.00    +0.038 C 
BRANCH  12  17
ATOM     17  C   UNL     1       7.465   2.180  24.225  0.00  0.00    +0.187 C 
BRANCH  17  18
ATOM     18  O   UNL     1       7.122   1.229  25.232  0.00  0.00    -0.392 OA
ATOM     19  H   UNL     1       7.578   0.400  25.000  0.00  0.00    +0.210 HD
ENDBRANCH  17  18
ENDBRANCH  12  17
ENDBRANCH   1  14
TORSDOF 3
ENDMDL
MODEL 5
REMARK VINA RESULT:      -5.7      2.418      3.606
REMARK  Name = 
REMARK  3 active torsions:
REMARK  status: ('A' for Active; 'I' for Inactive)
REMARK    1  A    between atoms: O_1  and  C_2
REMARK    2  A    between atoms: C_2  and  C_3
REMARK    3  A    between atoms: C_7  and  N_10
REMARK                            x       y       z     vdW  Elec       q    Type
REMARK                         _______ _______ _______ _____ _____    ______ ____
ROOT
ATOM      1  N   UNL     1       7.847  -3.369  23.359  0.00  0.00    -0.289 N 
ATOM      2  C   UNL     1       8.051  -4.000  24.543  0.00  0.00    +0.147 A 
ATOM      3  N   UNL     1       9.101  -3.957  25.374  0.00  0.00    -0.330 N 
ATOM      4  H   UNL     1       9.922  -3.368  25.204  0.00  0.00    +0.168 HD
ATOM      5  C   UNL     1       9.007  -4.731  26.504  0.00  0.00    +0.202 A 
ATOM      6  N   UNL     1       8.012  -5.488  26.854  0.00  0.00    -0.198 NA
ATOM      7  C   UNL     1       6.882  -5.570  26.028  0.00  0.00    +0.301 A 
ATOM      8  O   UNL     1       5.908  -6.260  26.314  0.00  0.00    -0.263 OA
ATOM      9  C   UNL     1       6.942  -4.763  24.797  0.00  0.00    +0.172 A 
ATOM     10  N   UNL     1       6.031  -4.612  23.774  0.00  0.00    -0.229 NA
ATOM     11  C   UNL     1       6.608  -3.783  22.925  0.00  0.00    +0.203 A 
ENDROOT
BRANCH   1  14
ATOM     12  C   UNL     1      10.160  -0.854  23.561  0.00  0.00    +0.146 C 
ATOM     13  O   UNL     1       9.948  -2.267  23.367  0.00  0.00    -0.351 OA
ATOM     14  C   UNL     1       8.722  -2.467  22.632  0.00  0.00    +0.222 C 
ATOM     15  C   UNL     1       8.122  -1.086  22.391  0.00  0.00    +0.057 C 
ATOM     16  C   UNL     1       9.326  -0.178  22.490  0.00  0.00    +0.038 C 
BRANCH  12  17
ATOM     17  C   UNL     1       9.735  -0.457  24.985  0.00  0.00    +0.187 C 
BRANCH  17  18
ATOM     18  O   UNL     1      10.418   0.732  25.380  0.00  0.00    -0.392 OA
ATOM     19  H   UNL     1      11.337   0.643  25.069  0.00  0.00    +0.210 HD
ENDBRANCH  17  18
ENDBRANCH  12  17
ENDBRANCH   1  14
TORSDOF 3
ENDMDL
MODEL 6
REMARK VINA RESULT:      -5.7      1.992      5.136
REMARK  Name = 
REMARK  3 active torsions:
REMARK  status: ('A' for Active; 'I' for Inactive)
REMARK    1  A    between atoms: O_1  and  C_2
REMARK    2  A    between atoms: C_2  and  C_3
REMARK    3  A    between atoms: C_7  and  N_10
REMARK                            x       y       z     vdW  Elec       q    Type
REMARK                         _______ _______ _______ _____ _____    ______ ____
ROOT
ATOM      1  N   UNL     1       8.752  -2.352  24.304  0.00  0.00    -0.289 N 
ATOM      2  C   UNL     1       9.077  -1.380  23.413  0.00  0.00    +0.147 A 
ATOM      3  N   UNL     1       9.094  -1.409  22.073  0.00  0.00    -0.330 N 
ATOM      4  H   UNL     1       8.811  -2.230  21.531  0.00  0.00    +0.168 HD
ATOM      5  C   UNL     1       9.487  -0.250  21.452  0.00  0.00    +0.202 A 
ATOM      6  N   UNL     1       9.833   0.866  22.019  0.00  0.00    -0.198 NA
ATOM      7  C   UNL     1       9.828   0.959  23.418  0.00  0.00    +0.301 A 
ATOM      8  O   UNL     1      10.134   1.990  24.008  0.00  0.00    -0.263 OA
ATOM      9  C   UNL     1       9.423  -0.266  24.130  0.00  0.00    +0.172 A 
ATOM     10  N   UNL     1       9.313  -0.529  25.478  0.00  0.00    -0.229 NA
ATOM     11  C   UNL     1       8.922  -1.788  25.548  0.00  0.00    +0.203 A 
ENDROOT
BRANCH   1  14
ATOM     12  C   UNL     1       6.412  -4.428  22.916  0.00  0.00    +0.146 C 
ATOM     13  O   UNL     1       7.717  -3.832  22.766  0.00  0.00    -0.351 OA
ATOM     14  C   UNL     1       8.340  -3.723  24.063  0.00  0.00    +0.222 C 
ATOM     15  C   UNL     1       7.337  -4.253  25.082  0.00  0.00    +0.057 C 
ATOM     16  C   UNL     1       6.460  -5.157  24.246  0.00  0.00    +0.038 C 
BRANCH  12  17
ATOM     17  C   UNL     1       5.333  -3.333  22.876  0.00  0.00    +0.187 C 
BRANCH  17  18
ATOM     18  O   UNL     1       5.882  -2.132  22.334  0.00  0.00    -0.392 OA
ATOM     19  H   UNL     1       5.195  -1.743  21.764  0.00  0.00    +0.210 HD
ENDBRANCH  17  18
ENDBRANCH  12  17
ENDBRANCH   1  14
TORSDOF 3
ENDMDL
MODEL 7
REMARK VINA RESULT:      -5.6      2.156      5.578
REMARK  Name = 
REMARK  3 active torsions:
REMARK  status: ('A' for Active; 'I' for Inactive)
REMARK    1  A    between atoms: O_1  and  C_2
REMARK    2  A    between atoms: C_2  and  C_3
REMARK    3  A    between atoms: C_7  and  N_10
REMARK                            x       y       z     vdW  Elec       q    Type
REMARK                         _______ _______ _______ _____ _____    ______ ____
ROOT
ATOM      1  N   UNL     1       8.203  -1.685  23.053  0.00  0.00    -0.289 N 
ATOM      2  C   UNL     1       8.454  -0.471  23.606  0.00  0.00    +0.147 A 
ATOM      3  N   UNL     1       8.009   0.064  24.751  0.00  0.00    -0.330 N 
ATOM      4  H   UNL     1       7.401  -0.442  25.402  0.00  0.00    +0.168 HD
ATOM      5  C   UNL     1       8.440   1.337  25.028  0.00  0.00    +0.202 A 
ATOM      6  N   UNL     1       9.236   2.069  24.309  0.00  0.00    -0.198 NA
ATOM      7  C   UNL     1       9.740   1.561  23.103  0.00  0.00    +0.301 A 
ATOM      8  O   UNL     1      10.505   2.202  22.389  0.00  0.00    -0.263 OA
ATOM      9  C   UNL     1       9.295   0.200  22.758  0.00  0.00    +0.172 A 
ATOM     10  N   UNL     1       9.583  -0.592  21.667  0.00  0.00    -0.229 NA
ATOM     11  C   UNL     1       8.904  -1.707  21.868  0.00  0.00    +0.203 A 
ENDROOT
BRANCH   1  14
ATOM     12  C   UNL     1       7.948  -4.409  25.109  0.00  0.00    +0.146 C 
ATOM     13  O   UNL     1       7.629  -3.014  24.933  0.00  0.00    -0.351 OA
ATOM     14  C   UNL     1       7.359  -2.762  23.537  0.00  0.00    +0.222 C 
ATOM     15  C   UNL     1       7.561  -4.083  22.803  0.00  0.00    +0.057 C 
ATOM     16  C   UNL     1       7.361  -5.106  23.897  0.00  0.00    +0.038 C 
BRANCH  12  17
ATOM     17  C   UNL     1       9.473  -4.583  25.216  0.00  0.00    +0.187 C 
BRANCH  17  18
ATOM     18  O   UNL     1       9.846  -5.879  24.749  0.00  0.00    -0.392 OA
ATOM     19  H   UNL     1      10.712  -5.780  24.314  0.00  0.00    +0.210 HD
ENDBRANCH  17  18
ENDBRANCH  12  17
ENDBRANCH   1  14
TORSDOF 3
ENDMDL
MODEL 8
REMARK VINA RESULT:      -5.6      2.395      5.608
REMARK  Name = 
REMARK  3 active torsions:
REMARK  status: ('A' for Active; 'I' for Inactive)
REMARK    1  A    between atoms: O_1  and  C_2
REMARK    2  A    between atoms: C_2  and  C_3
REMARK    3  A    between atoms: C_7  and  N_10
REMARK                            x       y       z     vdW  Elec       q    Type
REMARK                         _______ _______ _______ _____ _____    ______ ____
ROOT
ATOM      1  N   UNL     1       7.649  -1.564  24.632  0.00  0.00    -0.289 N 
ATOM      2  C   UNL     1       8.691  -0.708  24.479  0.00  0.00    +0.147 A 
ATOM      3  N   UNL     1       9.761  -0.502  25.260  0.00  0.00    -0.330 N 
ATOM      4  H   UNL     1       9.936  -1.038  26.115  0.00  0.00    +0.168 HD
ATOM      5  C   UNL     1      10.643   0.458  24.831  0.00  0.00    +0.202 A 
ATOM      6  N   UNL     1      10.557   1.177  23.753  0.00  0.00    -0.198 NA
ATOM      7  C   UNL     1       9.463   1.003  22.893  0.00  0.00    +0.301 A 
ATOM      8  O   UNL     1       9.336   1.646  21.856  0.00  0.00    -0.263 OA
ATOM      9  C   UNL     1       8.483  -0.011  23.318  0.00  0.00    +0.172 A 
ATOM     10  N   UNL     1       7.309  -0.431  22.730  0.00  0.00    -0.229 NA
ATOM     11  C   UNL     1       6.829  -1.349  23.547  0.00  0.00    +0.203 A 
ENDROOT
BRANCH   1  14
ATOM     12  C   UNL     1       8.765  -4.271  26.403  0.00  0.00    +0.146 C 
ATOM     13  O   UNL     1       8.604  -2.838  26.391  0.00  0.00    -0.351 OA
ATOM     14  C   UNL     1       7.379  -2.506  25.703  0.00  0.00    +0.222 C 
ATOM     15  C   UNL     1       6.767  -3.819  25.230  0.00  0.00    +0.057 C 
ATOM     16  C   UNL     1       7.373  -4.829  26.176  0.00  0.00    +0.038 C 
BRANCH  12  17
ATOM     17  C   UNL     1       9.761  -4.691  25.307  0.00  0.00    +0.187 C 
BRANCH  17  18
ATOM     18  O   UNL     1       9.856  -6.114  25.259  0.00  0.00    -0.392 OA
ATOM     19  H   UNL     1       9.217  -6.459  25.909  0.00  0.00    +0.210 HD
ENDBRANCH  17  18
ENDBRANCH  12  17
ENDBRANCH   1  14
TORSDOF 3
ENDMDL
MODEL 9
REMARK VINA RESULT:      -5.5      1.839      5.770
REMARK  Name = 
REMARK  3 active torsions:
REMARK  status: ('A' for Active; 'I' for Inactive)
REMARK    1  A    between atoms: O_1  and  C_2
REMARK    2  A    between atoms: C_2  and  C_3
REMARK    3  A    between atoms: C_7  and  N_10
REMARK                            x       y       z     vdW  Elec       q    Type
REMARK                         _______ _______ _______ _____ _____    ______ ____
ROOT
ATOM      1  N   UNL     1       8.633  -2.246  23.450  0.00  0.00    -0.289 N 
ATOM      2  C   UNL     1       9.244  -1.100  23.844  0.00  0.00    +0.147 A 
ATOM      3  N   UNL     1       9.626  -0.700  25.064  0.00  0.00    -0.330 N 
ATOM      4  H   UNL     1       9.514  -1.281  25.900  0.00  0.00    +0.168 HD
ATOM      5  C   UNL     1      10.216   0.537  25.136  0.00  0.00    +0.202 A 
ATOM      6  N   UNL     1      10.449   1.352  24.152  0.00  0.00    -0.198 NA
ATOM      7  C   UNL     1      10.077   0.988  22.850  0.00  0.00    +0.301 A 
ATOM      8  O   UNL     1      10.283   1.712  21.881  0.00  0.00    -0.263 OA
ATOM      9  C   UNL     1       9.431  -0.330  22.726  0.00  0.00    +0.172 A 
ATOM     10  N   UNL     1       8.941  -0.992  21.620  0.00  0.00    -0.229 NA
ATOM     11  C   UNL     1       8.460  -2.128  22.090  0.00  0.00    +0.203 A 
ENDROOT
BRANCH   1  14
ATOM     12  C   UNL     1       7.449  -5.457  23.441  0.00  0.00    +0.146 C 
ATOM     13  O   UNL     1       8.604  -4.612  23.619  0.00  0.00    -0.351 OA
ATOM     14  C   UNL     1       8.196  -3.378  24.247  0.00  0.00    +0.222 C 
ATOM     15  C   UNL     1       6.685  -3.456  24.434  0.00  0.00    +0.057 C 
ATOM     16  C   UNL     1       6.426  -4.944  24.436  0.00  0.00    +0.038 C 
BRANCH  12  17
ATOM     17  C   UNL     1       6.961  -5.368  21.985  0.00  0.00    +0.187 C 
BRANCH  17  18
ATOM     18  O   UNL     1       6.044  -6.429  21.716  0.00  0.00    -0.392 OA
ATOM     19  H   UNL     1       5.854  -6.857  22.571  0.00  0.00    +0.210 HD
ENDBRANCH  17  18
ENDBRANCH  12  17
ENDBRANCH   1  14
TORSDOF 3
ENDMDL
