MODEL 1
REMARK VINA RESULT:      -7.6      0.000      0.000
REMARK  Name = 
REMARK  16 active torsions:
REMARK  status: ('A' for Active; 'I' for Inactive)
REMARK    1  A    between atoms: C_1  and  C_2
REMARK    2  A    between atoms: N_4  and  C_5
REMARK    3  A    between atoms: C_7  and  O_9
REMARK    4  A    between atoms: C_10  and  O_12
REMARK    5  A    between atoms: C_13  and  C_15
REMARK    6  A    between atoms: C_15  and  O_16
REMARK    7  A    between atoms: C_18  and  O_20
REMARK    8  A    between atoms: O_20  and  C_21
REMARK    9  A    between atoms: C_23  and  O_25
REMARK   10  A    between atoms: C_26  and  N_28
REMARK   11  A    between atoms: C_29  and  C_30
REMARK   12  A    between atoms: C_32  and  O_34
REMARK   13  A    between atoms: O_34  and  C_35
REMARK   14  A    between atoms: C_39  and  C_40
REMARK   15  A    between atoms: C_48  and  C_50
REMARK   16  A    between atoms: C_50  and  O_51
REMARK                            x       y       z     vdW  Elec       q    Type
REMARK                         _______ _______ _______ _____ _____    ______ ____
ROOT
ATOM      1  C   UNL     1       6.846  -4.508  24.946  0.00  0.00    +0.183 C 
ATOM      2  C   UNL     1       8.189  -4.060  25.582  0.00  0.00    +0.179 C 
ATOM      3  O   UNL     1       8.011  -2.843  26.325  0.00  0.00    -0.332 OA
ATOM      4  C   UNL     1       7.670  -1.720  25.491  0.00  0.00    +0.331 C 
ATOM      5  C   UNL     1       6.315  -1.997  24.784  0.00  0.00    +0.173 C 
ATOM      6  C   UNL     1       6.400  -3.341  24.008  0.00  0.00    +0.172 C 
ENDROOT
BRANCH   5   7
ATOM      7  N   UNL     1       5.212  -2.030  25.756  0.00  0.00    -0.304 N 
ATOM      8  H   UNL     1       5.031  -2.927  26.196  0.00  0.00    +0.149 HD
ATOM      9  C   UNL     1       4.526  -0.921  26.173  0.00  0.00    +0.210 C 
ATOM     10  O   UNL     1       4.722   0.203  25.721  0.00  0.00    -0.276 OA
ATOM     11  C   UNL     1       3.530  -1.192  27.267  0.00  0.00    +0.109 C 
ENDBRANCH   5   7
BRANCH   6  12
ATOM     12  O   UNL     1       7.263  -3.247  22.869  0.00  0.00    -0.387 OA
ATOM     13  H   UNL     1       8.188  -3.140  23.169  0.00  0.00    +0.210 HD
ENDBRANCH   6  12
BRANCH   1  14
ATOM     14  O   UNL     1       5.751  -4.709  25.868  0.00  0.00    -0.341 OA
BRANCH  14  16
ATOM     15  C   UNL     1       4.410  -6.669  26.226  0.00  0.00    +0.160 C 
ATOM     16  C   UNL     1       4.608  -5.398  25.364  0.00  0.00    +0.274 C 
ATOM     17  O   UNL     1       3.422  -4.609  25.375  0.00  0.00    -0.341 OA
ATOM     18  C   UNL     1       2.277  -5.271  24.780  0.00  0.00    +0.178 C 
ATOM     19  C   UNL     1       2.003  -6.651  25.422  0.00  0.00    +0.176 C 
ATOM     20  C   UNL     1       3.287  -7.493  25.557  0.00  0.00    +0.171 C 
BRANCH  15  23
ATOM     21  C   UNL     1       4.480  -6.336  30.020  0.00  0.00    +0.109 C 
ATOM     22  C   UNL     1       4.922  -6.799  28.658  0.00  0.00    +0.210 C 
ATOM     23  N   UNL     1       4.132  -6.334  27.633  0.00  0.00    -0.305 N 
ATOM     24  H   UNL     1       3.518  -5.543  27.809  0.00  0.00    +0.149 HD
ATOM     25  O   UNL     1       5.894  -7.524  28.483  0.00  0.00    -0.276 OA
ENDBRANCH  15  23
BRANCH  19  26
ATOM     26  O   UNL     1       1.409  -6.429  26.711  0.00  0.00    -0.387 OA
ATOM     27  H   UNL     1       1.539  -7.246  27.224  0.00  0.00    +0.210 HD
ENDBRANCH  19  26
BRANCH  20  28
ATOM     28  O   UNL     1       3.676  -7.931  24.243  0.00  0.00    -0.387 OA
ATOM     29  H   UNL     1       3.156  -8.705  23.972  0.00  0.00    +0.210 HD
ENDBRANCH  20  28
BRANCH  18  30
ATOM     30  C   UNL     1       2.325  -5.322  23.242  0.00  0.00    +0.190 C 
BRANCH  30  31
ATOM     31  O   UNL     1       1.583  -6.414  22.706  0.00  0.00    -0.392 OA
ATOM     32  H   UNL     1       1.960  -6.646  21.840  0.00  0.00    +0.210 HD
ENDBRANCH  30  31
ENDBRANCH  18  30
ENDBRANCH  14  16
ENDBRANCH   1  14
BRANCH   2  33
ATOM     33  C   UNL     1       8.943  -5.030  26.491  0.00  0.00    +0.190 C 
BRANCH  33  34
ATOM     34  O   UNL     1       8.052  -5.766  27.305  0.00  0.00    -0.392 OA
ATOM     35  H   UNL     1       8.033  -5.334  28.179  0.00  0.00    +0.210 HD
ENDBRANCH  33  34
ENDBRANCH   2  33
BRANCH   4  36
ATOM     36  O   UNL     1       8.651  -1.423  24.478  0.00  0.00    -0.461 OA
BRANCH  36  37
ATOM     37  C   UNL     1       9.131  -0.149  24.373  0.00  0.00    +0.127 A 
ATOM     38  C   UNL     1       8.161   0.850  24.316  0.00  0.00    +0.092 A 
ATOM     39  C   UNL     1       8.547   2.180  24.130  0.00  0.00    +0.143 A 
ATOM     40  C   UNL     1       9.883   2.557  23.984  0.00  0.00    +0.021 A 
ATOM     41  C   UNL     1      10.197   3.976  23.738  0.00  0.00    -0.033 A 
ATOM     42  C   UNL     1       9.190   4.853  23.741  0.00  0.00    +0.096 A 
ATOM     43  C   UNL     1       7.779   4.484  23.968  0.00  0.00    +0.337 A 
ATOM     44  O   UNL     1       6.908   5.334  24.006  0.00  0.00    -0.245 OA
ATOM     45  C   UNL     1      11.594   4.441  23.471  0.00  0.00    +0.045 C 
ATOM     46  C   UNL     1      10.842   1.548  24.075  0.00  0.00    +0.015 A 
ATOM     47  O   UNL     1       7.507   3.131  24.104  0.00  0.00    -0.422 OA
ATOM     48  C   UNL     1      10.474   0.211  24.283  0.00  0.00    +0.046 A 
ENDBRANCH  36  37
ENDBRANCH   4  36
TORSDOF 13
ENDMDL
MODEL 2
REMARK VINA RESULT:      -7.6      1.511      1.966
REMARK  Name = 
REMARK  16 active torsions:
REMARK  status: ('A' for Active; 'I' for Inactive)
REMARK    1  A    between atoms: C_1  and  C_2
REMARK    2  A    between atoms: N_4  and  C_5
REMARK    3  A    between atoms: C_7  and  O_9
REMARK    4  A    between atoms: C_10  and  O_12
REMARK    5  A    between atoms: C_13  and  C_15
REMARK    6  A    between atoms: C_15  and  O_16
REMARK    7  A    between atoms: C_18  and  O_20
REMARK    8  A    between atoms: O_20  and  C_21
REMARK    9  A    between atoms: C_23  and  O_25
REMARK   10  A    between atoms: C_26  and  N_28
REMARK   11  A    between atoms: C_29  and  C_30
REMARK   12  A    between atoms: C_32  and  O_34
REMARK   13  A    between atoms: O_34  and  C_35
REMARK   14  A    between atoms: C_39  and  C_40
REMARK   15  A    between atoms: C_48  and  C_50
REMARK   16  A    between atoms: C_50  and  O_51
REMARK                            x       y       z     vdW  Elec       q    Type
REMARK                         _______ _______ _______ _____ _____    ______ ____
ROOT
ATOM      1  C   UNL     1       7.190  -3.642  24.333  0.00  0.00    +0.183 C 
ATOM      2  C   UNL     1       8.643  -3.238  24.702  0.00  0.00    +0.179 C 
ATOM      3  O   UNL     1       8.640  -2.236  25.730  0.00  0.00    -0.332 OA
ATOM      4  C   UNL     1       8.070  -0.987  25.297  0.00  0.00    +0.331 C 
ATOM      5  C   UNL     1       6.583  -1.209  24.906  0.00  0.00    +0.173 C 
ATOM      6  C   UNL     1       6.490  -2.335  23.838  0.00  0.00    +0.172 C 
ENDROOT
BRANCH   5   7
ATOM      7  N   UNL     1       5.773  -1.547  26.085  0.00  0.00    -0.304 N 
ATOM      8  H   UNL     1       6.061  -2.370  26.604  0.00  0.00    +0.149 HD
ATOM      9  C   UNL     1       4.764  -0.760  26.571  0.00  0.00    +0.210 C 
ATOM     10  O   UNL     1       4.392   0.274  26.025  0.00  0.00    -0.276 OA
ATOM     11  C   UNL     1       4.170  -1.253  27.863  0.00  0.00    +0.109 C 
ENDBRANCH   5   7
BRANCH   6  12
ATOM     12  O   UNL     1       7.023  -1.921  22.576  0.00  0.00    -0.387 OA
ATOM     13  H   UNL     1       6.616  -1.072  22.313  0.00  0.00    +0.210 HD
ENDBRANCH   6  12
BRANCH   1  14
ATOM     14  O   UNL     1       6.379  -4.131  25.425  0.00  0.00    -0.341 OA
BRANCH  14  16
ATOM     15  C   UNL     1       5.259  -6.173  26.012  0.00  0.00    +0.160 C 
ATOM     16  C   UNL     1       5.256  -4.939  25.076  0.00  0.00    +0.274 C 
ATOM     17  O   UNL     1       4.012  -4.250  25.175  0.00  0.00    -0.341 OA
ATOM     18  C   UNL     1       2.876  -5.037  24.735  0.00  0.00    +0.178 C 
ATOM     19  C   UNL     1       2.791  -6.397  25.466  0.00  0.00    +0.176 C 
ATOM     20  C   UNL     1       4.150  -7.122  25.504  0.00  0.00    +0.171 C 
BRANCH  15  23
ATOM     21  C   UNL     1       5.769  -5.409  29.709  0.00  0.00    +0.109 C 
ATOM     22  C   UNL     1       6.135  -5.861  28.321  0.00  0.00    +0.210 C 
ATOM     23  N   UNL     1       5.095  -5.785  27.424  0.00  0.00    -0.305 N 
ATOM     24  H   UNL     1       4.289  -5.210  27.656  0.00  0.00    +0.149 HD
ATOM     25  O   UNL     1       7.253  -6.262  28.022  0.00  0.00    -0.276 OA
ENDBRANCH  15  23
BRANCH  19  26
ATOM     26  O   UNL     1       2.312  -6.154  26.797  0.00  0.00    -0.387 OA
ATOM     27  H   UNL     1       2.001  -5.232  26.821  0.00  0.00    +0.210 HD
ENDBRANCH  19  26
BRANCH  20  28
ATOM     28  O   UNL     1       4.442  -7.597  24.177  0.00  0.00    -0.387 OA
ATOM     29  H   UNL     1       4.419  -6.865  23.539  0.00  0.00    +0.210 HD
ENDBRANCH  20  28
BRANCH  18  30
ATOM     30  C   UNL     1       2.773  -5.169  23.204  0.00  0.00    +0.190 C 
BRANCH  30  31
ATOM     31  O   UNL     1       2.160  -6.389  22.799  0.00  0.00    -0.392 OA
ATOM     32  H   UNL     1       1.203  -6.237  22.709  0.00  0.00    +0.210 HD
ENDBRANCH  30  31
ENDBRANCH  18  30
ENDBRANCH  14  16
ENDBRANCH   1  14
BRANCH   2  33
ATOM     33  C   UNL     1       9.629  -4.322  25.139  0.00  0.00    +0.190 C 
BRANCH  33  34
ATOM     34  O   UNL     1       9.173  -4.990  26.298  0.00  0.00    -0.392 OA
ATOM     35  H   UNL     1       9.891  -5.580  26.594  0.00  0.00    +0.210 HD
ENDBRANCH  33  34
ENDBRANCH   2  33
BRANCH   4  36
ATOM     36  O   UNL     1       8.745  -0.393  24.171  0.00  0.00    -0.461 OA
BRANCH  36  37
ATOM     37  C   UNL     1       8.836   0.967  24.094  0.00  0.00    +0.127 A 
ATOM     38  C   UNL     1      10.104   1.464  23.800  0.00  0.00    +0.092 A 
ATOM     39  C   UNL     1      10.319   2.844  23.776  0.00  0.00    +0.143 A 
ATOM     40  C   UNL     1       9.305   3.763  24.051  0.00  0.00    +0.021 A 
ATOM     41  C   UNL     1       9.631   5.200  24.056  0.00  0.00    -0.033 A 
ATOM     42  C   UNL     1      10.871   5.565  23.722  0.00  0.00    +0.096 A 
ATOM     43  C   UNL     1      11.938   4.612  23.355  0.00  0.00    +0.337 A 
ATOM     44  O   UNL     1      13.039   5.005  23.014  0.00  0.00    -0.245 OA
ATOM     45  C   UNL     1       8.624   6.238  24.440  0.00  0.00    +0.045 C 
ATOM     46  C   UNL     1       8.034   3.249  24.313  0.00  0.00    +0.015 A 
ATOM     47  O   UNL     1      11.624   3.265  23.450  0.00  0.00    -0.422 OA
ATOM     48  C   UNL     1       7.796   1.867  24.319  0.00  0.00    +0.046 A 
ENDBRANCH  36  37
ENDBRANCH   4  36
TORSDOF 13
ENDMDL
MODEL 3
REMARK VINA RESULT:      -7.1      1.989      3.535
REMARK  Name = 
REMARK  16 active torsions:
REMARK  status: ('A' for Active; 'I' for Inactive)
REMARK    1  A    between atoms: C_1  and  C_2
REMARK    2  A    between atoms: N_4  and  C_5
REMARK    3  A    between atoms: C_7  and  O_9
REMARK    4  A    between atoms: C_10  and  O_12
REMARK    5  A    between atoms: C_13  and  C_15
REMARK    6  A    between atoms: C_15  and  O_16
REMARK    7  A    between atoms: C_18  and  O_20
REMARK    8  A    between atoms: O_20  and  C_21
REMARK    9  A    between atoms: C_23  and  O_25
REMARK   10  A    between atoms: C_26  and  N_28
REMARK   11  A    between atoms: C_29  and  C_30
REMARK   12  A    between atoms: C_32  and  O_34
REMARK   13  A    between atoms: O_34  and  C_35
REMARK   14  A    between atoms: C_39  and  C_40
REMARK   15  A    between atoms: C_48  and  C_50
REMARK   16  A    between atoms: C_50  and  O_51
REMARK                            x       y       z     vdW  Elec       q    Type
REMARK                         _______ _______ _______ _____ _____    ______ ____
ROOT
ATOM      1  C   UNL     1       6.841  -2.983  24.314  0.00  0.00    +0.183 C 
ATOM      2  C   UNL     1       8.322  -2.517  24.290  0.00  0.00    +0.179 C 
ATOM      3  O   UNL     1       8.552  -1.521  25.298  0.00  0.00    -0.332 OA
ATOM      4  C   UNL     1       7.835  -0.297  25.053  0.00  0.00    +0.331 C 
ATOM      5  C   UNL     1       6.309  -0.583  25.068  0.00  0.00    +0.173 C 
ATOM      6  C   UNL     1       5.981  -1.707  24.045  0.00  0.00    +0.172 C 
ENDROOT
BRANCH   5   7
ATOM      7  N   UNL     1       5.857  -0.962  26.415  0.00  0.00    -0.304 N 
ATOM      8  H   UNL     1       6.515  -1.498  26.972  0.00  0.00    +0.149 HD
ATOM      9  C   UNL     1       4.686  -0.533  26.978  0.00  0.00    +0.210 C 
ATOM     10  O   UNL     1       3.864   0.156  26.383  0.00  0.00    -0.276 OA
ATOM     11  C   UNL     1       4.507  -0.950  28.413  0.00  0.00    +0.109 C 
ENDBRANCH   5   7
BRANCH   6  12
ATOM     12  O   UNL     1       6.141  -1.263  22.693  0.00  0.00    -0.387 OA
ATOM     13  H   UNL     1       5.803  -0.349  22.608  0.00  0.00    +0.210 HD
ENDBRANCH   6  12
BRANCH   1  14
ATOM     14  O   UNL     1       6.372  -3.513  25.574  0.00  0.00    -0.341 OA
BRANCH  14  16
ATOM     15  C   UNL     1       4.840  -4.546  24.039  0.00  0.00    +0.160 C 
ATOM     16  C   UNL     1       5.206  -4.335  25.528  0.00  0.00    +0.274 C 
ATOM     17  O   UNL     1       5.375  -5.593  26.176  0.00  0.00    -0.341 OA
ATOM     18  C   UNL     1       4.168  -6.395  26.213  0.00  0.00    +0.178 C 
ATOM     19  C   UNL     1       3.560  -6.598  24.806  0.00  0.00    +0.176 C 
ATOM     20  C   UNL     1       3.481  -5.280  24.011  0.00  0.00    +0.171 C 
BRANCH  15  23
ATOM     21  C   UNL     1       7.305  -5.833  21.435  0.00  0.00    +0.109 C 
ATOM     22  C   UNL     1       6.173  -5.011  21.988  0.00  0.00    +0.210 C 
ATOM     23  N   UNL     1       5.906  -5.261  23.314  0.00  0.00    -0.305 N 
ATOM     24  H   UNL     1       6.608  -5.738  23.874  0.00  0.00    +0.149 HD
ATOM     25  O   UNL     1       5.549  -4.197  21.318  0.00  0.00    -0.276 OA
ENDBRANCH  15  23
BRANCH  19  26
ATOM     26  O   UNL     1       4.368  -7.558  24.109  0.00  0.00    -0.387 OA
ATOM     27  H   UNL     1       4.759  -7.096  23.346  0.00  0.00    +0.210 HD
ENDBRANCH  19  26
BRANCH  20  28
ATOM     28  O   UNL     1       2.442  -4.469  24.590  0.00  0.00    -0.387 OA
ATOM     29  H   UNL     1       2.708  -3.535  24.610  0.00  0.00    +0.210 HD
ENDBRANCH  20  28
BRANCH  18  30
ATOM     30  C   UNL     1       3.137  -5.910  27.250  0.00  0.00    +0.190 C 
BRANCH  30  31
ATOM     31  O   UNL     1       1.803  -6.269  26.906  0.00  0.00    -0.392 OA
ATOM     32  H   UNL     1       1.834  -7.048  26.323  0.00  0.00    +0.210 HD
ENDBRANCH  30  31
ENDBRANCH  18  30
ENDBRANCH  14  16
ENDBRANCH   1  14
BRANCH   2  33
ATOM     33  C   UNL     1       9.433  -3.558  24.430  0.00  0.00    +0.190 C 
BRANCH  33  34
ATOM     34  O   UNL     1       8.913  -4.872  24.367  0.00  0.00    -0.392 OA
ATOM     35  H   UNL     1       8.128  -4.846  23.790  0.00  0.00    +0.210 HD
ENDBRANCH  33  34
ENDBRANCH   2  33
BRANCH   4  36
ATOM     36  O   UNL     1       8.161   0.332  23.798  0.00  0.00    -0.461 OA
BRANCH  36  37
ATOM     37  C   UNL     1       8.476   1.660  23.784  0.00  0.00    +0.127 A 
ATOM     38  C   UNL     1       9.823   1.951  23.577  0.00  0.00    +0.092 A 
ATOM     39  C   UNL     1      10.261   3.277  23.623  0.00  0.00    +0.143 A 
ATOM     40  C   UNL     1       9.396   4.341  23.884  0.00  0.00    +0.021 A 
ATOM     41  C   UNL     1       9.951   5.703  23.967  0.00  0.00    -0.033 A 
ATOM     42  C   UNL     1      11.251   5.869  23.713  0.00  0.00    +0.096 A 
ATOM     43  C   UNL     1      12.168   4.766  23.361  0.00  0.00    +0.337 A 
ATOM     44  O   UNL     1      13.336   4.984  23.093  0.00  0.00    -0.245 OA
ATOM     45  C   UNL     1       9.106   6.879  24.342  0.00  0.00    +0.045 C 
ATOM     46  C   UNL     1       8.045   4.034  24.058  0.00  0.00    +0.015 A 
ATOM     47  O   UNL     1      11.633   3.487  23.382  0.00  0.00    -0.422 OA
ATOM     48  C   UNL     1       7.585   2.711  23.994  0.00  0.00    +0.046 A 
ENDBRANCH  36  37
ENDBRANCH   4  36
TORSDOF 13
ENDMDL
MODEL 4
REMARK VINA RESULT:      -7.0      1.796      3.959
REMARK  Name = 
REMARK  16 active torsions:
REMARK  status: ('A' for Active; 'I' for Inactive)
REMARK    1  A    between atoms: C_1  and  C_2
REMARK    2  A    between atoms: N_4  and  C_5
REMARK    3  A    between atoms: C_7  and  O_9
REMARK    4  A    between atoms: C_10  and  O_12
REMARK    5  A    between atoms: C_13  and  C_15
REMARK    6  A    between atoms: C_15  and  O_16
REMARK    7  A    between atoms: C_18  and  O_20
REMARK    8  A    between atoms: O_20  and  C_21
REMARK    9  A    between atoms: C_23  and  O_25
REMARK   10  A    between atoms: C_26  and  N_28
REMARK   11  A    between atoms: C_29  and  C_30
REMARK   12  A    between atoms: C_32  and  O_34
REMARK   13  A    between atoms: O_34  and  C_35
REMARK   14  A    between atoms: C_39  and  C_40
REMARK   15  A    between atoms: C_48  and  C_50
REMARK   16  A    between atoms: C_50  and  O_51
REMARK                            x       y       z     vdW  Elec       q    Type
REMARK                         _______ _______ _______ _____ _____    ______ ____
ROOT
ATOM      1  C   UNL     1       5.526  -3.559  23.686  0.00  0.00    +0.183 C 
ATOM      2  C   UNL     1       6.085  -3.324  22.256  0.00  0.00    +0.179 C 
ATOM      3  O   UNL     1       7.521  -3.306  22.275  0.00  0.00    -0.332 OA
ATOM      4  C   UNL     1       8.059  -2.190  23.008  0.00  0.00    +0.331 C 
ATOM      5  C   UNL     1       7.609  -2.284  24.491  0.00  0.00    +0.173 C 
ATOM      6  C   UNL     1       6.059  -2.378  24.558  0.00  0.00    +0.172 C 
ENDROOT
BRANCH   5   7
ATOM      7  N   UNL     1       8.226  -3.441  25.157  0.00  0.00    -0.304 N 
ATOM      8  H   UNL     1       7.620  -3.982  25.765  0.00  0.00    +0.149 HD
ATOM      9  C   UNL     1       9.498  -3.880  24.905  0.00  0.00    +0.210 C 
ATOM     10  O   UNL     1      10.272  -3.305  24.146  0.00  0.00    -0.276 OA
ATOM     11  C   UNL     1       9.856  -5.158  25.613  0.00  0.00    +0.109 C 
ENDBRANCH   5   7
BRANCH   6  12
ATOM     12  O   UNL     1       5.432  -1.147  24.183  0.00  0.00    -0.387 OA
ATOM     13  H   UNL     1       4.937  -0.787  24.946  0.00  0.00    +0.210 HD
ENDBRANCH   6  12
BRANCH   1  14
ATOM     14  O   UNL     1       5.975  -4.765  24.343  0.00  0.00    -0.341 OA
BRANCH  14  16
ATOM     15  C   UNL     1       3.778  -5.035  25.275  0.00  0.00    +0.160 C 
ATOM     16  C   UNL     1       5.300  -5.128  25.547  0.00  0.00    +0.274 C 
ATOM     17  O   UNL     1       5.636  -6.431  26.014  0.00  0.00    -0.341 OA
ATOM     18  C   UNL     1       5.024  -6.770  27.284  0.00  0.00    +0.178 C 
ATOM     19  C   UNL     1       3.488  -6.596  27.255  0.00  0.00    +0.176 C 
ATOM     20  C   UNL     1       3.067  -5.251  26.631  0.00  0.00    +0.171 C 
BRANCH  15  23
ATOM     21  C   UNL     1       1.956  -6.863  22.474  0.00  0.00    +0.109 C 
ATOM     22  C   UNL     1       2.209  -5.788  23.495  0.00  0.00    +0.210 C 
ATOM     23  N   UNL     1       3.353  -5.986  24.233  0.00  0.00    -0.305 N 
ATOM     24  H   UNL     1       4.052  -6.638  23.887  0.00  0.00    +0.149 HD
ATOM     25  O   UNL     1       1.465  -4.828  23.653  0.00  0.00    -0.276 OA
ENDBRANCH  15  23
BRANCH  19  26
ATOM     26  O   UNL     1       2.932  -7.691  26.511  0.00  0.00    -0.387 OA
ATOM     27  H   UNL     1       2.601  -7.323  25.673  0.00  0.00    +0.210 HD
ENDBRANCH  19  26
BRANCH  20  28
ATOM     28  O   UNL     1       3.395  -4.203  27.561  0.00  0.00    -0.387 OA
ATOM     29  H   UNL     1       3.328  -4.524  28.476  0.00  0.00    +0.210 HD
ENDBRANCH  20  28
BRANCH  18  30
ATOM     30  C   UNL     1       5.685  -6.080  28.491  0.00  0.00    +0.190 C 
BRANCH  30  31
ATOM     31  O   UNL     1       7.075  -6.371  28.595  0.00  0.00    -0.392 OA
ATOM     32  H   UNL     1       7.574  -5.553  28.425  0.00  0.00    +0.210 HD
ENDBRANCH  30  31
ENDBRANCH  18  30
ENDBRANCH  14  16
ENDBRANCH   1  14
BRANCH   2  33
ATOM     33  C   UNL     1       5.666  -4.268  21.128  0.00  0.00    +0.190 C 
BRANCH  33  34
ATOM     34  O   UNL     1       5.270  -5.526  21.636  0.00  0.00    -0.392 OA
ATOM     35  H   UNL     1       4.462  -5.790  21.158  0.00  0.00    +0.210 HD
ENDBRANCH  33  34
ENDBRANCH   2  33
BRANCH   4  36
ATOM     36  O   UNL     1       7.656  -0.904  22.498  0.00  0.00    -0.461 OA
BRANCH  36  37
ATOM     37  C   UNL     1       8.409   0.194  22.799  0.00  0.00    +0.127 A 
ATOM     38  C   UNL     1       7.701   1.282  23.306  0.00  0.00    +0.092 A 
ATOM     39  C   UNL     1       8.368   2.481  23.572  0.00  0.00    +0.143 A 
ATOM     40  C   UNL     1       9.735   2.643  23.337  0.00  0.00    +0.021 A 
ATOM     41  C   UNL     1      10.348   3.958  23.596  0.00  0.00    -0.033 A 
ATOM     42  C   UNL     1       9.581   4.918  24.117  0.00  0.00    +0.096 A 
ATOM     43  C   UNL     1       8.152   4.743  24.443  0.00  0.00    +0.337 A 
ATOM     44  O   UNL     1       7.513   5.641  24.961  0.00  0.00    -0.245 OA
ATOM     45  C   UNL     1      11.782   4.238  23.273  0.00  0.00    +0.045 C 
ATOM     46  C   UNL     1      10.434   1.534  22.859  0.00  0.00    +0.015 A 
ATOM     47  O   UNL     1       7.584   3.525  24.102  0.00  0.00    -0.422 OA
ATOM     48  C   UNL     1       9.784   0.317  22.607  0.00  0.00    +0.046 A 
ENDBRANCH  36  37
ENDBRANCH   4  36
TORSDOF 13
ENDMDL
MODEL 5
REMARK VINA RESULT:      -7.0      2.945      9.937
REMARK  Name = 
REMARK  16 active torsions:
REMARK  status: ('A' for Active; 'I' for Inactive)
REMARK    1  A    between atoms: C_1  and  C_2
REMARK    2  A    between atoms: N_4  and  C_5
REMARK    3  A    between atoms: C_7  and  O_9
REMARK    4  A    between atoms: C_10  and  O_12
REMARK    5  A    between atoms: C_13  and  C_15
REMARK    6  A    between atoms: C_15  and  O_16
REMARK    7  A    between atoms: C_18  and  O_20
REMARK    8  A    between atoms: O_20  and  C_21
REMARK    9  A    between atoms: C_23  and  O_25
REMARK   10  A    between atoms: C_26  and  N_28
REMARK   11  A    between atoms: C_29  and  C_30
REMARK   12  A    between atoms: C_32  and  O_34
REMARK   13  A    between atoms: O_34  and  C_35
REMARK   14  A    between atoms: C_39  and  C_40
REMARK   15  A    between atoms: C_48  and  C_50
REMARK   16  A    between atoms: C_50  and  O_51
REMARK                            x       y       z     vdW  Elec       q    Type
REMARK                         _______ _______ _______ _____ _____    ______ ____
ROOT
ATOM      1  C   UNL     1       8.758   1.811  24.086  0.00  0.00    +0.183 C 
ATOM      2  C   UNL     1       9.046   0.717  23.023  0.00  0.00    +0.179 C 
ATOM      3  O   UNL     1       7.817   0.205  22.485  0.00  0.00    -0.332 OA
ATOM      4  C   UNL     1       7.029  -0.504  23.458  0.00  0.00    +0.331 C 
ATOM      5  C   UNL     1       6.627   0.467  24.601  0.00  0.00    +0.173 C 
ATOM      6  C   UNL     1       7.905   1.121  25.198  0.00  0.00    +0.172 C 
ENDROOT
BRANCH   5   7
ATOM      7  N   UNL     1       5.697   1.497  24.115  0.00  0.00    -0.304 N 
ATOM      8  H   UNL     1       5.745   1.709  23.124  0.00  0.00    +0.149 HD
ATOM      9  C   UNL     1       4.720   2.070  24.884  0.00  0.00    +0.210 C 
ATOM     10  O   UNL     1       4.571   1.827  26.077  0.00  0.00    -0.276 OA
ATOM     11  C   UNL     1       3.813   3.001  24.127  0.00  0.00    +0.109 C 
ENDBRANCH   5   7
BRANCH   6  12
ATOM     12  O   UNL     1       8.694   0.180  25.933  0.00  0.00    -0.387 OA
ATOM     13  H   UNL     1       8.998  -0.530  25.333  0.00  0.00    +0.210 HD
ENDBRANCH   6  12
BRANCH   1  14
ATOM     14  O   UNL     1       7.973   2.936  23.631  0.00  0.00    -0.341 OA
BRANCH  14  16
ATOM     15  C   UNL     1       7.583   5.127  24.534  0.00  0.00    +0.160 C 
ATOM     16  C   UNL     1       8.570   4.226  23.753  0.00  0.00    +0.274 C 
ATOM     17  O   UNL     1       9.836   4.203  24.407  0.00  0.00    -0.341 OA
ATOM     18  C   UNL     1      10.490   5.497  24.453  0.00  0.00    +0.178 C 
ATOM     19  C   UNL     1       9.587   6.584  25.080  0.00  0.00    +0.176 C 
ATOM     20  C   UNL     1       8.160   6.560  24.499  0.00  0.00    +0.171 C 
BRANCH  15  23
ATOM     21  C   UNL     1       6.139   4.281  27.957  0.00  0.00    +0.109 C 
ATOM     22  C   UNL     1       6.189   4.895  26.584  0.00  0.00    +0.210 C 
ATOM     23  N   UNL     1       7.350   4.623  25.899  0.00  0.00    -0.305 N 
ATOM     24  H   UNL     1       7.938   3.856  26.217  0.00  0.00    +0.149 HD
ATOM     25  O   UNL     1       5.280   5.575  26.123  0.00  0.00    -0.276 OA
ENDBRANCH  15  23
BRANCH  19  26
ATOM     26  O   UNL     1       9.557   6.369  26.499  0.00  0.00    -0.387 OA
ATOM     27  H   UNL     1       9.874   7.191  26.915  0.00  0.00    +0.210 HD
ENDBRANCH  19  26
BRANCH  20  28
ATOM     28  O   UNL     1       8.216   7.063  23.152  0.00  0.00    -0.387 OA
ATOM     29  H   UNL     1       8.072   8.024  23.139  0.00  0.00    +0.210 HD
ENDBRANCH  20  28
BRANCH  18  30
ATOM     30  C   UNL     1      11.103   5.926  23.107  0.00  0.00    +0.190 C 
BRANCH  30  31
ATOM     31  O   UNL     1      11.865   4.889  22.496  0.00  0.00    -0.392 OA
ATOM     32  H   UNL     1      12.241   5.231  21.667  0.00  0.00    +0.210 HD
ENDBRANCH  30  31
ENDBRANCH  18  30
ENDBRANCH  14  16
ENDBRANCH   1  14
BRANCH   2  33
ATOM     33  C   UNL     1       9.948   1.051  21.836  0.00  0.00    +0.190 C 
BRANCH  33  34
ATOM     34  O   UNL     1      10.253   2.431  21.798  0.00  0.00    -0.392 OA
ATOM     35  H   UNL     1      10.953   2.556  21.131  0.00  0.00    +0.210 HD
ENDBRANCH  33  34
ENDBRANCH   2  33
BRANCH   4  36
ATOM     36  O   UNL     1       7.701  -1.635  24.046  0.00  0.00    -0.461 OA
BRANCH  36  37
ATOM     37  C   UNL     1       6.960  -2.698  24.475  0.00  0.00    +0.127 A 
ATOM     38  C   UNL     1       7.226  -3.126  25.774  0.00  0.00    +0.092 A 
ATOM     39  C   UNL     1       6.576  -4.255  26.280  0.00  0.00    +0.143 A 
ATOM     40  C   UNL     1       5.665  -4.993  25.523  0.00  0.00    +0.021 A 
ATOM     41  C   UNL     1       5.065  -6.202  26.116  0.00  0.00    -0.033 A 
ATOM     42  C   UNL     1       5.364  -6.495  27.384  0.00  0.00    +0.096 A 
ATOM     43  C   UNL     1       6.267  -5.685  28.224  0.00  0.00    +0.337 A 
ATOM     44  O   UNL     1       6.467  -5.976  29.390  0.00  0.00    -0.245 OA
ATOM     45  C   UNL     1       4.160  -7.100  25.333  0.00  0.00    +0.045 C 
ATOM     46  C   UNL     1       5.386  -4.533  24.235  0.00  0.00    +0.015 A 
ATOM     47  O   UNL     1       6.886  -4.608  27.608  0.00  0.00    -0.422 OA
ATOM     48  C   UNL     1       6.014  -3.389  23.720  0.00  0.00    +0.046 A 
ENDBRANCH  36  37
ENDBRANCH   4  36
TORSDOF 13
ENDMDL
MODEL 6
REMARK VINA RESULT:      -6.9      2.466      9.958
REMARK  Name = 
REMARK  16 active torsions:
REMARK  status: ('A' for Active; 'I' for Inactive)
REMARK    1  A    between atoms: C_1  and  C_2
REMARK    2  A    between atoms: N_4  and  C_5
REMARK    3  A    between atoms: C_7  and  O_9
REMARK    4  A    between atoms: C_10  and  O_12
REMARK    5  A    between atoms: C_13  and  C_15
REMARK    6  A    between atoms: C_15  and  O_16
REMARK    7  A    between atoms: C_18  and  O_20
REMARK    8  A    between atoms: O_20  and  C_21
REMARK    9  A    between atoms: C_23  and  O_25
REMARK   10  A    between atoms: C_26  and  N_28
REMARK   11  A    between atoms: C_29  and  C_30
REMARK   12  A    between atoms: C_32  and  O_34
REMARK   13  A    between atoms: O_34  and  C_35
REMARK   14  A    between atoms: C_39  and  C_40
REMARK   15  A    between atoms: C_48  and  C_50
REMARK   16  A    between atoms: C_50  and  O_51
REMARK                            x       y       z     vdW  Elec       q    Type
REMARK                         _______ _______ _______ _____ _____    ______ ____
ROOT
ATOM      1  C   UNL     1       8.886   1.603  23.974  0.00  0.00    +0.183 C 
ATOM      2  C   UNL     1       8.931   0.502  22.880  0.00  0.00    +0.179 C 
ATOM      3  O   UNL     1       7.634  -0.090  22.710  0.00  0.00    -0.332 OA
ATOM      4  C   UNL     1       7.194  -0.821  23.870  0.00  0.00    +0.331 C 
ATOM      5  C   UNL     1       7.070   0.151  25.074  0.00  0.00    +0.173 C 
ATOM      6  C   UNL     1       8.421   0.891  25.285  0.00  0.00    +0.172 C 
ENDROOT
BRANCH   5   7
ATOM      7  N   UNL     1       5.980   1.116  24.862  0.00  0.00    -0.304 N 
ATOM      8  H   UNL     1       5.961   1.576  23.957  0.00  0.00    +0.149 HD
ATOM      9  C   UNL     1       4.956   1.320  25.747  0.00  0.00    +0.210 C 
ATOM     10  O   UNL     1       4.887   0.765  26.839  0.00  0.00    -0.276 OA
ATOM     11  C   UNL     1       3.894   2.262  25.248  0.00  0.00    +0.109 C 
ENDBRANCH   5   7
BRANCH   6  12
ATOM     12  O   UNL     1       9.440   0.013  25.775  0.00  0.00    -0.387 OA
ATOM     13  H   UNL     1       9.235  -0.906  25.508  0.00  0.00    +0.210 HD
ENDBRANCH   6  12
BRANCH   1  14
ATOM     14  O   UNL     1       7.938   2.670  23.751  0.00  0.00    -0.341 OA
BRANCH  14  16
ATOM     15  C   UNL     1       7.311   4.986  23.639  0.00  0.00    +0.160 C 
ATOM     16  C   UNL     1       8.479   3.974  23.541  0.00  0.00    +0.274 C 
ATOM     17  O   UNL     1       9.505   4.317  24.468  0.00  0.00    -0.341 OA
ATOM     18  C   UNL     1      10.122   5.602  24.204  0.00  0.00    +0.178 C 
ATOM     19  C   UNL     1       9.080   6.742  24.117  0.00  0.00    +0.176 C 
ATOM     20  C   UNL     1       7.878   6.364  23.229  0.00  0.00    +0.171 C 
BRANCH  15  23
ATOM     21  C   UNL     1       4.997   5.401  26.636  0.00  0.00    +0.109 C 
ATOM     22  C   UNL     1       5.451   5.516  25.206  0.00  0.00    +0.210 C 
ATOM     23  N   UNL     1       6.697   4.980  24.978  0.00  0.00    -0.305 N 
ATOM     24  H   UNL     1       7.088   4.339  25.664  0.00  0.00    +0.149 HD
ATOM     25  O   UNL     1       4.774   6.040  24.330  0.00  0.00    -0.276 OA
ENDBRANCH  15  23
BRANCH  19  26
ATOM     26  O   UNL     1       8.644   7.044  25.452  0.00  0.00    -0.387 OA
ATOM     27  H   UNL     1       8.511   8.008  25.492  0.00  0.00    +0.210 HD
ENDBRANCH  19  26
BRANCH  20  28
ATOM     28  O   UNL     1       8.318   6.358  21.859  0.00  0.00    -0.387 OA
ATOM     29  H   UNL     1       9.134   6.876  21.759  0.00  0.00    +0.210 HD
ENDBRANCH  20  28
BRANCH  18  30
ATOM     30  C   UNL     1      11.095   5.586  23.010  0.00  0.00    +0.190 C 
BRANCH  30  31
ATOM     31  O   UNL     1      11.708   4.314  22.821  0.00  0.00    -0.392 OA
ATOM     32  H   UNL     1      11.747   3.861  23.681  0.00  0.00    +0.210 HD
ENDBRANCH  30  31
ENDBRANCH  18  30
ENDBRANCH  14  16
ENDBRANCH   1  14
BRANCH   2  33
ATOM     33  C   UNL     1       9.444   0.860  21.485  0.00  0.00    +0.190 C 
BRANCH  33  34
ATOM     34  O   UNL     1      10.090   2.118  21.485  0.00  0.00    -0.392 OA
ATOM     35  H   UNL     1      10.352   2.309  22.404  0.00  0.00    +0.210 HD
ENDBRANCH  33  34
ENDBRANCH   2  33
BRANCH   4  36
ATOM     36  O   UNL     1       8.071  -1.898  24.252  0.00  0.00    -0.461 OA
BRANCH  36  37
ATOM     37  C   UNL     1       7.568  -2.936  24.983  0.00  0.00    +0.127 A 
ATOM     38  C   UNL     1       6.704  -3.785  24.296  0.00  0.00    +0.092 A 
ATOM     39  C   UNL     1       6.074  -4.831  24.975  0.00  0.00    +0.143 A 
ATOM     40  C   UNL     1       6.267  -5.060  26.339  0.00  0.00    +0.021 A 
ATOM     41  C   UNL     1       5.523  -6.154  26.988  0.00  0.00    -0.033 A 
ATOM     42  C   UNL     1       4.751  -6.929  26.223  0.00  0.00    +0.096 A 
ATOM     43  C   UNL     1       4.592  -6.750  24.766  0.00  0.00    +0.337 A 
ATOM     44  O   UNL     1       3.910  -7.518  24.112  0.00  0.00    -0.245 OA
ATOM     45  C   UNL     1       5.599  -6.395  28.462  0.00  0.00    +0.045 C 
ATOM     46  C   UNL     1       7.160  -4.219  27.005  0.00  0.00    +0.015 A 
ATOM     47  O   UNL     1       5.233  -5.657  24.204  0.00  0.00    -0.422 OA
ATOM     48  C   UNL     1       7.817  -3.177  26.333  0.00  0.00    +0.046 A 
ENDBRANCH  36  37
ENDBRANCH   4  36
TORSDOF 13
ENDMDL
MODEL 7
REMARK VINA RESULT:      -6.8      2.000      4.183
REMARK  Name = 
REMARK  16 active torsions:
REMARK  status: ('A' for Active; 'I' for Inactive)
REMARK    1  A    between atoms: C_1  and  C_2
REMARK    2  A    between atoms: N_4  and  C_5
REMARK    3  A    between atoms: C_7  and  O_9
REMARK    4  A    between atoms: C_10  and  O_12
REMARK    5  A    between atoms: C_13  and  C_15
REMARK    6  A    between atoms: C_15  and  O_16
REMARK    7  A    between atoms: C_18  and  O_20
REMARK    8  A    between atoms: O_20  and  C_21
REMARK    9  A    between atoms: C_23  and  O_25
REMARK   10  A    between atoms: C_26  and  N_28
REMARK   11  A    between atoms: C_29  and  C_30
REMARK   12  A    between atoms: C_32  and  O_34
REMARK   13  A    between atoms: O_34  and  C_35
REMARK   14  A    between atoms: C_39  and  C_40
REMARK   15  A    between atoms: C_48  and  C_50
REMARK   16  A    between atoms: C_50  and  O_51
REMARK                            x       y       z     vdW  Elec       q    Type
REMARK                         _______ _______ _______ _____ _____    ______ ____
ROOT
ATOM      1  C   UNL     1       7.234  -3.300  25.418  0.00  0.00    +0.183 C 
ATOM      2  C   UNL     1       6.853  -1.801  25.284  0.00  0.00    +0.179 C 
ATOM      3  O   UNL     1       6.370  -1.522  23.961  0.00  0.00    -0.332 OA
ATOM      4  C   UNL     1       7.381  -1.679  22.948  0.00  0.00    +0.331 C 
ATOM      5  C   UNL     1       7.866  -3.154  22.930  0.00  0.00    +0.173 C 
ATOM      6  C   UNL     1       8.346  -3.561  24.351  0.00  0.00    +0.172 C 
ENDROOT
BRANCH   5   7
ATOM      7  N   UNL     1       6.799  -4.053  22.467  0.00  0.00    -0.304 N 
ATOM      8  H   UNL     1       5.897  -3.622  22.288  0.00  0.00    +0.149 HD
ATOM      9  C   UNL     1       6.990  -5.372  22.156  0.00  0.00    +0.210 C 
ATOM     10  O   UNL     1       8.062  -5.951  22.301  0.00  0.00    -0.276 OA
ATOM     11  C   UNL     1       5.776  -6.050  21.582  0.00  0.00    +0.109 C 
ENDBRANCH   5   7
BRANCH   6  12
ATOM     12  O   UNL     1       9.563  -2.901  24.714  0.00  0.00    -0.387 OA
ATOM     13  H   UNL     1       9.423  -1.933  24.710  0.00  0.00    +0.210 HD
ENDBRANCH   6  12
BRANCH   1  14
ATOM     14  O   UNL     1       6.181  -4.244  25.125  0.00  0.00    -0.341 OA
BRANCH  14  16
ATOM     15  C   UNL     1       3.998  -4.645  26.043  0.00  0.00    +0.160 C 
ATOM     16  C   UNL     1       5.521  -4.836  26.243  0.00  0.00    +0.274 C 
ATOM     17  O   UNL     1       5.825  -6.219  26.411  0.00  0.00    -0.341 OA
ATOM     18  C   UNL     1       5.231  -6.804  27.598  0.00  0.00    +0.178 C 
ATOM     19  C   UNL     1       3.701  -6.584  27.652  0.00  0.00    +0.176 C 
ATOM     20  C   UNL     1       3.312  -5.126  27.342  0.00  0.00    +0.171 C 
BRANCH  15  23
ATOM     21  C   UNL     1       2.033  -5.800  22.991  0.00  0.00    +0.109 C 
ATOM     22  C   UNL     1       2.344  -4.980  24.213  0.00  0.00    +0.210 C 
ATOM     23  N   UNL     1       3.516  -5.338  24.836  0.00  0.00    -0.305 N 
ATOM     24  H   UNL     1       4.193  -5.898  24.321  0.00  0.00    +0.149 HD
ATOM     25  O   UNL     1       1.617  -4.079  24.616  0.00  0.00    -0.276 OA
ENDBRANCH  15  23
BRANCH  19  26
ATOM     26  O   UNL     1       3.092  -7.479  26.710  0.00  0.00    -0.387 OA
ATOM     27  H   UNL     1       3.803  -7.800  26.126  0.00  0.00    +0.210 HD
ENDBRANCH  19  26
BRANCH  20  28
ATOM     28  O   UNL     1       3.697  -4.311  28.464  0.00  0.00    -0.387 OA
ATOM     29  H   UNL     1       4.648  -4.399  28.641  0.00  0.00    +0.210 HD
ENDBRANCH  20  28
BRANCH  18  30
ATOM     30  C   UNL     1       5.943  -6.407  28.904  0.00  0.00    +0.190 C 
BRANCH  30  31
ATOM     31  O   UNL     1       6.754  -7.454  29.426  0.00  0.00    -0.392 OA
ATOM     32  H   UNL     1       7.683  -7.167  29.396  0.00  0.00    +0.210 HD
ENDBRANCH  30  31
ENDBRANCH  18  30
ENDBRANCH  14  16
ENDBRANCH   1  14
BRANCH   2  33
ATOM     33  C   UNL     1       5.844  -1.199  26.263  0.00  0.00    +0.190 C 
BRANCH  33  34
ATOM     34  O   UNL     1       4.549  -1.155  25.699  0.00  0.00    -0.392 OA
ATOM     35  H   UNL     1       4.267  -2.076  25.546  0.00  0.00    +0.210 HD
ENDBRANCH  33  34
ENDBRANCH   2  33
BRANCH   4  36
ATOM     36  O   UNL     1       8.532  -0.832  23.133  0.00  0.00    -0.461 OA
BRANCH  36  37
ATOM     37  C   UNL     1       8.384   0.521  23.022  0.00  0.00    +0.127 A 
ATOM     38  C   UNL     1       8.429   1.226  24.223  0.00  0.00    +0.092 A 
ATOM     39  C   UNL     1       8.210   2.606  24.225  0.00  0.00    +0.143 A 
ATOM     40  C   UNL     1       7.931   3.320  23.059  0.00  0.00    +0.021 A 
ATOM     41  C   UNL     1       7.660   4.766  23.159  0.00  0.00    -0.033 A 
ATOM     42  C   UNL     1       7.770   5.344  24.357  0.00  0.00    +0.096 A 
ATOM     43  C   UNL     1       8.137   4.620  25.589  0.00  0.00    +0.337 A 
ATOM     44  O   UNL     1       8.267   5.210  26.647  0.00  0.00    -0.245 OA
ATOM     45  C   UNL     1       7.255   5.577  21.969  0.00  0.00    +0.045 C 
ATOM     46  C   UNL     1       7.921   2.603  21.861  0.00  0.00    +0.015 A 
ATOM     47  O   UNL     1       8.295   3.247  25.477  0.00  0.00    -0.422 OA
ATOM     48  C   UNL     1       8.159   1.222  21.838  0.00  0.00    +0.046 A 
ENDBRANCH  36  37
ENDBRANCH   4  36
TORSDOF 13
ENDMDL
MODEL 8
REMARK VINA RESULT:      -6.8      2.299      4.203
REMARK  Name = 
REMARK  16 active torsions:
REMARK  status: ('A' for Active; 'I' for Inactive)
REMARK    1  A    between atoms: C_1  and  C_2
REMARK    2  A    between atoms: N_4  and  C_5
REMARK    3  A    between atoms: C_7  and  O_9
REMARK    4  A    between atoms: C_10  and  O_12
REMARK    5  A    between atoms: C_13  and  C_15
REMARK    6  A    between atoms: C_15  and  O_16
REMARK    7  A    between atoms: C_18  and  O_20
REMARK    8  A    between atoms: O_20  and  C_21
REMARK    9  A    between atoms: C_23  and  O_25
REMARK   10  A    between atoms: C_26  and  N_28
REMARK   11  A    between atoms: C_29  and  C_30
REMARK   12  A    between atoms: C_32  and  O_34
REMARK   13  A    between atoms: O_34  and  C_35
REMARK   14  A    between atoms: C_39  and  C_40
REMARK   15  A    between atoms: C_48  and  C_50
REMARK   16  A    between atoms: C_50  and  O_51
REMARK                            x       y       z     vdW  Elec       q    Type
REMARK                         _______ _______ _______ _____ _____    ______ ____
ROOT
ATOM      1  C   UNL     1       6.130  -2.183  26.717  0.00  0.00    +0.183 C 
ATOM      2  C   UNL     1       5.372  -0.830  26.646  0.00  0.00    +0.179 C 
ATOM      3  O   UNL     1       5.170  -0.438  25.280  0.00  0.00    -0.332 OA
ATOM      4  C   UNL     1       6.400  -0.143  24.592  0.00  0.00    +0.331 C 
ATOM      5  C   UNL     1       7.284  -1.419  24.549  0.00  0.00    +0.173 C 
ATOM      6  C   UNL     1       7.496  -1.951  25.994  0.00  0.00    +0.172 C 
ENDROOT
BRANCH   5   7
ATOM      7  N   UNL     1       6.675  -2.453  23.701  0.00  0.00    -0.304 N 
ATOM      8  H   UNL     1       5.842  -2.901  24.070  0.00  0.00    +0.149 HD
ATOM      9  C   UNL     1       7.090  -2.742  22.429  0.00  0.00    +0.210 C 
ATOM     10  O   UNL     1       8.060  -2.209  21.898  0.00  0.00    -0.276 OA
ATOM     11  C   UNL     1       6.228  -3.748  21.716  0.00  0.00    +0.109 C 
ENDBRANCH   5   7
BRANCH   6  12
ATOM     12  O   UNL     1       8.338  -1.088  26.765  0.00  0.00    -0.387 OA
ATOM     13  H   UNL     1       8.041  -1.089  27.697  0.00  0.00    +0.210 HD
ENDBRANCH   6  12
BRANCH   1  14
ATOM     14  O   UNL     1       5.505  -3.288  26.028  0.00  0.00    -0.341 OA
BRANCH  14  16
ATOM     15  C   UNL     1       5.889  -5.638  26.342  0.00  0.00    +0.160 C 
ATOM     16  C   UNL     1       5.101  -4.397  26.830  0.00  0.00    +0.274 C 
ATOM     17  O   UNL     1       5.317  -4.195  28.224  0.00  0.00    -0.341 OA
ATOM     18  C   UNL     1       4.825  -5.280  29.051  0.00  0.00    +0.178 C 
ATOM     19  C   UNL     1       5.397  -6.649  28.617  0.00  0.00    +0.176 C 
ATOM     20  C   UNL     1       5.310  -6.859  27.093  0.00  0.00    +0.171 C 
BRANCH  15  23
ATOM     21  C   UNL     1       9.638  -5.164  25.866  0.00  0.00    +0.109 C 
ATOM     22  C   UNL     1       8.199  -5.339  25.465  0.00  0.00    +0.210 C 
ATOM     23  N   UNL     1       7.340  -5.470  26.531  0.00  0.00    -0.305 N 
ATOM     24  H   UNL     1       7.658  -5.183  27.454  0.00  0.00    +0.149 HD
ATOM     25  O   UNL     1       7.829  -5.363  24.297  0.00  0.00    -0.276 OA
ENDBRANCH  15  23
BRANCH  19  26
ATOM     26  O   UNL     1       6.762  -6.718  29.058  0.00  0.00    -0.387 OA
ATOM     27  H   UNL     1       7.065  -7.629  28.893  0.00  0.00    +0.210 HD
ENDBRANCH  19  26
BRANCH  20  28
ATOM     28  O   UNL     1       3.929  -7.073  26.749  0.00  0.00    -0.387 OA
ATOM     29  H   UNL     1       3.783  -7.995  26.479  0.00  0.00    +0.210 HD
ENDBRANCH  20  28
BRANCH  18  30
ATOM     30  C   UNL     1       3.293  -5.290  29.208  0.00  0.00    +0.190 C 
BRANCH  30  31
ATOM     31  O   UNL     1       2.778  -6.591  29.473  0.00  0.00    -0.392 OA
ATOM     32  H   UNL     1       1.807  -6.553  29.425  0.00  0.00    +0.210 HD
ENDBRANCH  30  31
ENDBRANCH  18  30
ENDBRANCH  14  16
ENDBRANCH   1  14
BRANCH   2  33
ATOM     33  C   UNL     1       4.022  -0.695  27.352  0.00  0.00    +0.190 C 
BRANCH  33  34
ATOM     34  O   UNL     1       3.847  -1.713  28.317  0.00  0.00    -0.392 OA
ATOM     35  H   UNL     1       2.922  -1.666  28.623  0.00  0.00    +0.210 HD
ENDBRANCH  33  34
ENDBRANCH   2  33
BRANCH   4  36
ATOM     36  O   UNL     1       7.169   0.916  25.195  0.00  0.00    -0.461 OA
BRANCH  36  37
ATOM     37  C   UNL     1       7.321   2.093  24.520  0.00  0.00    +0.127 A 
ATOM     38  C   UNL     1       8.302   2.945  25.022  0.00  0.00    +0.092 A 
ATOM     39  C   UNL     1       8.482   4.208  24.449  0.00  0.00    +0.143 A 
ATOM     40  C   UNL     1       7.702   4.664  23.386  0.00  0.00    +0.021 A 
ATOM     41  C   UNL     1       7.924   6.029  22.878  0.00  0.00    -0.033 A 
ATOM     42  C   UNL     1       8.918   6.744  23.409  0.00  0.00    +0.096 A 
ATOM     43  C   UNL     1       9.803   6.251  24.483  0.00  0.00    +0.337 A 
ATOM     44  O   UNL     1      10.724   6.932  24.897  0.00  0.00    -0.245 OA
ATOM     45  C   UNL     1       7.061   6.625  21.810  0.00  0.00    +0.045 C 
ATOM     46  C   UNL     1       6.745   3.785  22.876  0.00  0.00    +0.015 A 
ATOM     47  O   UNL     1       9.508   5.000  25.001  0.00  0.00    -0.422 OA
ATOM     48  C   UNL     1       6.565   2.507  23.424  0.00  0.00    +0.046 A 
ENDBRANCH  36  37
ENDBRANCH   4  36
TORSDOF 13
ENDMDL
MODEL 9
REMARK VINA RESULT:      -6.6      2.122      4.148
REMARK  Name = 
REMARK  16 active torsions:
REMARK  status: ('A' for Active; 'I' for Inactive)
REMARK    1  A    between atoms: C_1  and  C_2
REMARK    2  A    between atoms: N_4  and  C_5
REMARK    3  A    between atoms: C_7  and  O_9
REMARK    4  A    between atoms: C_10  and  O_12
REMARK    5  A    between atoms: C_13  and  C_15
REMARK    6  A    between atoms: C_15  and  O_16
REMARK    7  A    between atoms: C_18  and  O_20
REMARK    8  A    between atoms: O_20  and  C_21
REMARK    9  A    between atoms: C_23  and  O_25
REMARK   10  A    between atoms: C_26  and  N_28
REMARK   11  A    between atoms: C_29  and  C_30
REMARK   12  A    between atoms: C_32  and  O_34
REMARK   13  A    between atoms: O_34  and  C_35
REMARK   14  A    between atoms: C_39  and  C_40
REMARK   15  A    between atoms: C_48  and  C_50
REMARK   16  A    between atoms: C_50  and  O_51
REMARK                            x       y       z     vdW  Elec       q    Type
REMARK                         _______ _______ _______ _____ _____    ______ ____
ROOT
ATOM      1  C   UNL     1       6.307  -1.828  25.756  0.00  0.00    +0.183 C 
ATOM      2  C   UNL     1       6.322  -0.327  25.360  0.00  0.00    +0.179 C 
ATOM      3  O   UNL     1       6.709  -0.173  23.986  0.00  0.00    -0.332 OA
ATOM      4  C   UNL     1       8.068  -0.575  23.736  0.00  0.00    +0.331 C 
ATOM      5  C   UNL     1       8.226  -2.085  24.063  0.00  0.00    +0.173 C 
ATOM      6  C   UNL     1       7.761  -2.351  25.522  0.00  0.00    +0.172 C 
ENDROOT
BRANCH   5   7
ATOM      7  N   UNL     1       7.462  -2.911  23.117  0.00  0.00    -0.304 N 
ATOM      8  H   UNL     1       6.831  -2.413  22.497  0.00  0.00    +0.149 HD
ATOM      9  C   UNL     1       7.648  -4.257  22.953  0.00  0.00    +0.210 C 
ATOM     10  O   UNL     1       8.427  -4.918  23.632  0.00  0.00    -0.276 OA
ATOM     11  C   UNL     1       6.839  -4.856  21.834  0.00  0.00    +0.109 C 
ENDBRANCH   5   7
BRANCH   6  12
ATOM     12  O   UNL     1       8.662  -1.791  26.482  0.00  0.00    -0.387 OA
ATOM     13  H   UNL     1       8.152  -1.359  27.196  0.00  0.00    +0.210 HD
ENDBRANCH   6  12
BRANCH   1  14
ATOM     14  O   UNL     1       5.452  -2.677  24.958  0.00  0.00    -0.341 OA
BRANCH  14  16
ATOM     15  C   UNL     1       4.386  -3.456  26.964  0.00  0.00    +0.160 C 
ATOM     16  C   UNL     1       4.961  -3.862  25.585  0.00  0.00    +0.274 C 
ATOM     17  O   UNL     1       3.968  -4.537  24.818  0.00  0.00    -0.341 OA
ATOM     18  C   UNL     1       3.531  -5.789  25.406  0.00  0.00    +0.178 C 
ATOM     19  C   UNL     1       3.047  -5.610  26.863  0.00  0.00    +0.176 C 
ATOM     20  C   UNL     1       4.027  -4.766  27.702  0.00  0.00    +0.171 C 
BRANCH  15  23
ATOM     21  C   UNL     1       1.822  -0.674  27.407  0.00  0.00    +0.109 C 
ATOM     22  C   UNL     1       3.028  -1.515  27.728  0.00  0.00    +0.210 C 
ATOM     23  N   UNL     1       3.247  -2.531  26.828  0.00  0.00    -0.305 N 
ATOM     24  H   UNL     1       2.791  -2.488  25.920  0.00  0.00    +0.149 HD
ATOM     25  O   UNL     1       3.744  -1.313  28.701  0.00  0.00    -0.276 OA
ENDBRANCH  15  23
BRANCH  19  26
ATOM     26  O   UNL     1       1.753  -4.989  26.827  0.00  0.00    -0.387 OA
ATOM     27  H   UNL     1       1.471  -4.872  27.751  0.00  0.00    +0.210 HD
ENDBRANCH  19  26
BRANCH  20  28
ATOM     28  O   UNL     1       5.202  -5.559  27.951  0.00  0.00    -0.387 OA
ATOM     29  H   UNL     1       5.532  -5.951  27.125  0.00  0.00    +0.210 HD
ENDBRANCH  20  28
BRANCH  18  30
ATOM     30  C   UNL     1       4.549  -6.933  25.246  0.00  0.00    +0.190 C 
BRANCH  30  31
ATOM     31  O   UNL     1       4.528  -7.507  23.942  0.00  0.00    -0.392 OA
ATOM     32  H   UNL     1       5.445  -7.672  23.664  0.00  0.00    +0.210 HD
ENDBRANCH  30  31
ENDBRANCH  18  30
ENDBRANCH  14  16
ENDBRANCH   1  14
BRANCH   2  33
ATOM     33  C   UNL     1       5.059   0.510  25.564  0.00  0.00    +0.190 C 
BRANCH  33  34
ATOM     34  O   UNL     1       4.843   1.384  24.474  0.00  0.00    -0.392 OA
ATOM     35  H   UNL     1       5.575   2.028  24.470  0.00  0.00    +0.210 HD
ENDBRANCH  33  34
ENDBRANCH   2  33
BRANCH   4  36
ATOM     36  O   UNL     1       9.046   0.154  24.504  0.00  0.00    -0.461 OA
BRANCH  36  37
ATOM     37  C   UNL     1       9.208   1.490  24.274  0.00  0.00    +0.127 A 
ATOM     38  C   UNL     1      10.501   1.883  23.934  0.00  0.00    +0.092 A 
ATOM     39  C   UNL     1      10.788   3.239  23.755  0.00  0.00    +0.143 A 
ATOM     40  C   UNL     1       9.823   4.235  23.916  0.00  0.00    +0.021 A 
ATOM     41  C   UNL     1      10.225   5.644  23.760  0.00  0.00    -0.033 A 
ATOM     42  C   UNL     1      11.483   5.903  23.395  0.00  0.00    +0.096 A 
ATOM     43  C   UNL     1      12.498   4.861  23.146  0.00  0.00    +0.337 A 
ATOM     44  O   UNL     1      13.618   5.155  22.770  0.00  0.00    -0.245 OA
ATOM     45  C   UNL     1       9.273   6.770  24.016  0.00  0.00    +0.045 C 
ATOM     46  C   UNL     1       8.527   3.820  24.226  0.00  0.00    +0.015 A 
ATOM     47  O   UNL     1      12.113   3.551  23.391  0.00  0.00    -0.422 OA
ATOM     48  C   UNL     1       8.217   2.463  24.388  0.00  0.00    +0.046 A 
ENDBRANCH  36  37
ENDBRANCH   4  36
TORSDOF 13
ENDMDL
