MODEL 1
REMARK VINA RESULT:      -5.4      0.000      0.000
REMARK  Name = 
REMARK  6 active torsions:
REMARK  status: ('A' for Active; 'I' for Inactive)
REMARK    1  A    between atoms: N_1  and  C_2
REMARK    2  A    between atoms: C_2  and  C_3
REMARK    3  A    between atoms: C_3  and  C_4
REMARK    4  A    between atoms: C_3  and  C_8
REMARK    5  A    between atoms: C_4  and  C_5
REMARK    6  A    between atoms: C_5  and  O_6
REMARK                            x       y       z     vdW  Elec       q    Type
REMARK                         _______ _______ _______ _____ _____    ______ ____
ROOT
ATOM      1  C   UNL     1      10.754   3.789  23.034  0.00  0.00    +0.043 C 
ENDROOT
BRANCH   1   2
ATOM      2  C   UNL     1      10.479   2.275  23.127  0.00  0.00    -0.042 A 
ATOM      3  C   UNL     1       9.997   1.588  21.996  0.00  0.00    +0.005 A 
ATOM      4  C   UNL     1       9.787   0.205  22.017  0.00  0.00    +0.020 A 
ATOM      5  C   UNL     1      10.024  -0.513  23.183  0.00  0.00    +0.041 A 
ATOM      6 CL   UNL     1       9.778  -2.215  23.212  0.00  0.00    -0.084 Cl
ATOM      7  C   UNL     1      10.455   0.144  24.328  0.00  0.00    +0.020 A 
ATOM      8  C   UNL     1      10.686   1.525  24.299  0.00  0.00    +0.005 A 
ENDBRANCH   1   2
BRANCH   1   9
ATOM      9  C   UNL     1       9.668   4.640  23.743  0.00  0.00    +0.086 C 
BRANCH   9  10
ATOM     10  N   UNL     1       9.552   5.991  23.184  0.00  0.00    -0.329 NA
ATOM     11  H   UNL     1      10.381   6.531  23.461  0.00  0.00    +0.118 HD
ATOM     12  H   UNL     1       9.664   5.919  22.162  0.00  0.00    +0.118 HD
ENDBRANCH   9  10
ENDBRANCH   1   9
BRANCH   1  13
ATOM     13  C   UNL     1      12.166   4.101  23.579  0.00  0.00    +0.129 C 
BRANCH  13  14
ATOM     14  C   UNL     1      13.067   5.098  22.878  0.00  0.00    +0.305 C 
ATOM     15  O   UNL     1      12.622   5.985  22.162  0.00  0.00    -0.251 OA
BRANCH  14  16
ATOM     16  O   UNL     1      14.377   5.045  23.187  0.00  0.00    -0.481 OA
ATOM     17  H   UNL     1      14.878   4.635  22.440  0.00  0.00    +0.295 HD
ENDBRANCH  14  16
ENDBRANCH  13  14
ENDBRANCH   1  13
TORSDOF 6
ENDMDL
MODEL 2
REMARK VINA RESULT:      -5.1      7.120      8.865
REMARK  Name = 
REMARK  6 active torsions:
REMARK  status: ('A' for Active; 'I' for Inactive)
REMARK    1  A    between atoms: N_1  and  C_2
REMARK    2  A    between atoms: C_2  and  C_3
REMARK    3  A    between atoms: C_3  and  C_4
REMARK    4  A    between atoms: C_3  and  C_8
REMARK    5  A    between atoms: C_4  and  C_5
REMARK    6  A    between atoms: C_5  and  O_6
REMARK                            x       y       z     vdW  Elec       q    Type
REMARK                         _______ _______ _______ _____ _____    ______ ____
ROOT
ATOM      1  C   UNL     1       8.050  -4.228  24.948  0.00  0.00    +0.043 C 
ENDROOT
BRANCH   1   2
ATOM      2  C   UNL     1       8.725  -2.854  24.776  0.00  0.00    -0.042 A 
ATOM      3  C   UNL     1       8.552  -1.868  25.767  0.00  0.00    +0.005 A 
ATOM      4  C   UNL     1       9.191  -0.626  25.680  0.00  0.00    +0.020 A 
ATOM      5  C   UNL     1       9.990  -0.334  24.581  0.00  0.00    +0.041 A 
ATOM      6 CL   UNL     1      10.786   1.186  24.474  0.00  0.00    -0.084 Cl
ATOM      7  C   UNL     1      10.143  -1.269  23.565  0.00  0.00    +0.020 A 
ATOM      8  C   UNL     1       9.520  -2.520  23.664  0.00  0.00    +0.005 A 
ENDBRANCH   1   2
BRANCH   1   9
ATOM      9  C   UNL     1       9.048  -5.408  24.812  0.00  0.00    +0.086 C 
BRANCH   9  10
ATOM     10  N   UNL     1      10.106  -5.377  25.828  0.00  0.00    -0.329 NA
ATOM     11  H   UNL     1       9.816  -4.743  26.581  0.00  0.00    +0.118 HD
ATOM     12  H   UNL     1      10.116  -6.293  26.299  0.00  0.00    +0.118 HD
ENDBRANCH   9  10
ENDBRANCH   1   9
BRANCH   1  13
ATOM     13  C   UNL     1       7.295  -4.277  26.296  0.00  0.00    +0.129 C 
BRANCH  13  14
ATOM     14  C   UNL     1       6.877  -5.601  26.906  0.00  0.00    +0.305 C 
ATOM     15  O   UNL     1       5.963  -6.270  26.440  0.00  0.00    -0.251 OA
BRANCH  14  16
ATOM     16  O   UNL     1       7.645  -6.072  27.906  0.00  0.00    -0.481 OA
ATOM     17  H   UNL     1       7.509  -5.523  28.716  0.00  0.00    +0.295 HD
ENDBRANCH  14  16
ENDBRANCH  13  14
ENDBRANCH   1  13
TORSDOF 6
ENDMDL
MODEL 3
REMARK VINA RESULT:      -5.0      4.569      5.916
REMARK  Name = 
REMARK  6 active torsions:
REMARK  status: ('A' for Active; 'I' for Inactive)
REMARK    1  A    between atoms: N_1  and  C_2
REMARK    2  A    between atoms: C_2  and  C_3
REMARK    3  A    between atoms: C_3  and  C_4
REMARK    4  A    between atoms: C_3  and  C_8
REMARK    5  A    between atoms: C_4  and  C_5
REMARK    6  A    between atoms: C_5  and  O_6
REMARK                            x       y       z     vdW  Elec       q    Type
REMARK                         _______ _______ _______ _____ _____    ______ ____
ROOT
ATOM      1  C   UNL     1       9.450  -0.004  24.967  0.00  0.00    +0.043 C 
ENDROOT
BRANCH   1   2
ATOM      2  C   UNL     1       9.573   1.475  24.551  0.00  0.00    -0.042 A 
ATOM      3  C   UNL     1       8.585   2.393  24.956  0.00  0.00    +0.005 A 
ATOM      4  C   UNL     1       8.685   3.754  24.649  0.00  0.00    +0.020 A 
ATOM      5  C   UNL     1       9.761   4.218  23.900  0.00  0.00    +0.041 A 
ATOM      6 CL   UNL     1       9.895   5.892  23.530  0.00  0.00    -0.084 Cl
ATOM      7  C   UNL     1      10.727   3.329  23.448  0.00  0.00    +0.020 A 
ATOM      8  C   UNL     1      10.637   1.970  23.774  0.00  0.00    +0.005 A 
ENDBRANCH   1   2
BRANCH   1   9
ATOM      9  C   UNL     1       8.464  -0.215  26.146  0.00  0.00    +0.086 C 
BRANCH   9  10
ATOM     10  N   UNL     1       9.148  -0.474  27.418  0.00  0.00    -0.329 NA
ATOM     11  H   UNL     1       9.421  -1.464  27.445  0.00  0.00    +0.118 HD
ATOM     12  H   UNL     1      10.058   0.008  27.389  0.00  0.00    +0.118 HD
ENDBRANCH   9  10
ENDBRANCH   1   9
BRANCH   1  13
ATOM     13  C   UNL     1       9.062  -0.864  23.743  0.00  0.00    +0.129 C 
BRANCH  13  14
ATOM     14  C   UNL     1      10.009  -1.915  23.198  0.00  0.00    +0.305 C 
ATOM     15  O   UNL     1      10.243  -2.953  23.803  0.00  0.00    -0.251 OA
BRANCH  14  16
ATOM     16  O   UNL     1      10.479  -1.713  21.953  0.00  0.00    -0.481 OA
ATOM     17  H   UNL     1      10.346  -0.768  21.696  0.00  0.00    +0.295 HD
ENDBRANCH  14  16
ENDBRANCH  13  14
ENDBRANCH   1  13
TORSDOF 6
ENDMDL
MODEL 4
REMARK VINA RESULT:      -5.0      6.227      7.841
REMARK  Name = 
REMARK  6 active torsions:
REMARK  status: ('A' for Active; 'I' for Inactive)
REMARK    1  A    between atoms: N_1  and  C_2
REMARK    2  A    between atoms: C_2  and  C_3
REMARK    3  A    between atoms: C_3  and  C_4
REMARK    4  A    between atoms: C_3  and  C_8
REMARK    5  A    between atoms: C_4  and  C_5
REMARK    6  A    between atoms: C_5  and  O_6
REMARK                            x       y       z     vdW  Elec       q    Type
REMARK                         _______ _______ _______ _____ _____    ______ ____
ROOT
ATOM      1  C   UNL     1       8.808  -3.526  23.530  0.00  0.00    +0.043 C 
ENDROOT
BRANCH   1   2
ATOM      2  C   UNL     1       9.260  -2.091  23.198  0.00  0.00    -0.042 A 
ATOM      3  C   UNL     1       9.090  -1.596  21.891  0.00  0.00    +0.005 A 
ATOM      4  C   UNL     1       9.434  -0.281  21.557  0.00  0.00    +0.020 A 
ATOM      5  C   UNL     1       9.987   0.555  22.521  0.00  0.00    +0.041 A 
ATOM      6 CL   UNL     1      10.401   2.175  22.121  0.00  0.00    -0.084 Cl
ATOM      7  C   UNL     1      10.209   0.081  23.807  0.00  0.00    +0.020 A 
ATOM      8  C   UNL     1       9.844  -1.229  24.144  0.00  0.00    +0.005 A 
ENDBRANCH   1   2
BRANCH   1   9
ATOM      9  C   UNL     1       9.182  -3.955  24.973  0.00  0.00    +0.086 C 
BRANCH   9  10
ATOM     10  N   UNL     1      10.075  -5.118  25.005  0.00  0.00    -0.329 NA
ATOM     11  H   UNL     1      10.817  -4.979  24.309  0.00  0.00    +0.118 HD
ATOM     12  H   UNL     1      10.595  -5.091  25.895  0.00  0.00    +0.118 HD
ENDBRANCH   9  10
ENDBRANCH   1   9
BRANCH   1  13
ATOM     13  C   UNL     1       7.291  -3.673  23.270  0.00  0.00    +0.129 C 
BRANCH  13  14
ATOM     14  C   UNL     1       6.778  -4.456  22.077  0.00  0.00    +0.305 C 
ATOM     15  O   UNL     1       7.259  -5.534  21.754  0.00  0.00    -0.251 OA
BRANCH  14  16
ATOM     16  O   UNL     1       5.679  -3.973  21.468  0.00  0.00    -0.481 OA
ATOM     17  H   UNL     1       5.671  -2.986  21.531  0.00  0.00    +0.295 HD
ENDBRANCH  14  16
ENDBRANCH  13  14
ENDBRANCH   1  13
TORSDOF 6
ENDMDL
MODEL 5
REMARK VINA RESULT:      -5.0      3.747      4.730
REMARK  Name = 
REMARK  6 active torsions:
REMARK  status: ('A' for Active; 'I' for Inactive)
REMARK    1  A    between atoms: N_1  and  C_2
REMARK    2  A    between atoms: C_2  and  C_3
REMARK    3  A    between atoms: C_3  and  C_4
REMARK    4  A    between atoms: C_3  and  C_8
REMARK    5  A    between atoms: C_4  and  C_5
REMARK    6  A    between atoms: C_5  and  O_6
REMARK                            x       y       z     vdW  Elec       q    Type
REMARK                         _______ _______ _______ _____ _____    ______ ____
ROOT
ATOM      1  C   UNL     1      10.175  -0.338  22.543  0.00  0.00    +0.043 C 
ENDROOT
BRANCH   1   2
ATOM      2  C   UNL     1       9.350  -1.556  23.001  0.00  0.00    -0.042 A 
ATOM      3  C   UNL     1       8.026  -1.707  22.545  0.00  0.00    +0.005 A 
ATOM      4  C   UNL     1       7.258  -2.825  22.889  0.00  0.00    +0.020 A 
ATOM      5  C   UNL     1       7.792  -3.800  23.725  0.00  0.00    +0.041 A 
ATOM      6 CL   UNL     1       6.858  -5.182  24.143  0.00  0.00    -0.084 Cl
ATOM      7  C   UNL     1       9.078  -3.656  24.228  0.00  0.00    +0.020 A 
ATOM      8  C   UNL     1       9.853  -2.546  23.865  0.00  0.00    +0.005 A 
ENDBRANCH   1   2
BRANCH   1   9
ATOM      9  C   UNL     1       9.411   0.559  21.533  0.00  0.00    +0.086 C 
BRANCH   9  10
ATOM     10  N   UNL     1       9.853   1.957  21.569  0.00  0.00    -0.329 NA
ATOM     11  H   UNL     1       9.026   2.559  21.665  0.00  0.00    +0.118 HD
ATOM     12  H   UNL     1      10.344   2.109  22.462  0.00  0.00    +0.118 HD
ENDBRANCH   9  10
ENDBRANCH   1   9
BRANCH   1  13
ATOM     13  C   UNL     1      10.647   0.470  23.774  0.00  0.00    +0.129 C 
BRANCH  13  14
ATOM     14  C   UNL     1       9.659   0.925  24.831  0.00  0.00    +0.305 C 
ATOM     15  O   UNL     1       8.837   1.805  24.614  0.00  0.00    -0.251 OA
BRANCH  14  16
ATOM     16  O   UNL     1       9.641   0.222  25.979  0.00  0.00    -0.481 OA
ATOM     17  H   UNL     1       9.669   0.842  26.748  0.00  0.00    +0.295 HD
ENDBRANCH  14  16
ENDBRANCH  13  14
ENDBRANCH   1  13
TORSDOF 6
ENDMDL
MODEL 6
REMARK VINA RESULT:      -4.9      5.535      7.050
REMARK  Name = 
REMARK  6 active torsions:
REMARK  status: ('A' for Active; 'I' for Inactive)
REMARK    1  A    between atoms: N_1  and  C_2
REMARK    2  A    between atoms: C_2  and  C_3
REMARK    3  A    between atoms: C_3  and  C_4
REMARK    4  A    between atoms: C_3  and  C_8
REMARK    5  A    between atoms: C_4  and  C_5
REMARK    6  A    between atoms: C_5  and  O_6
REMARK                            x       y       z     vdW  Elec       q    Type
REMARK                         _______ _______ _______ _____ _____    ______ ____
ROOT
ATOM      1  C   UNL     1       8.684  -2.013  23.542  0.00  0.00    +0.043 C 
ENDROOT
BRANCH   1   2
ATOM      2  C   UNL     1       9.277  -0.594  23.441  0.00  0.00    -0.042 A 
ATOM      3  C   UNL     1       9.800   0.021  24.595  0.00  0.00    +0.005 A 
ATOM      4  C   UNL     1      10.398   1.285  24.541  0.00  0.00    +0.020 A 
ATOM      5  C   UNL     1      10.454   1.973  23.334  0.00  0.00    +0.041 A 
ATOM      6 CL   UNL     1      11.198   3.521  23.259  0.00  0.00    -0.084 Cl
ATOM      7  C   UNL     1       9.905   1.412  22.189  0.00  0.00    +0.020 A 
ATOM      8  C   UNL     1       9.325   0.138  22.241  0.00  0.00    +0.005 A 
ENDBRANCH   1   2
BRANCH   1   9
ATOM      9  C   UNL     1       8.089  -2.511  22.198  0.00  0.00    +0.086 C 
BRANCH   9  10
ATOM     10  N   UNL     1       6.888  -3.334  22.380  0.00  0.00    -0.329 NA
ATOM     11  H   UNL     1       6.096  -2.714  22.586  0.00  0.00    +0.118 HD
ATOM     12  H   UNL     1       6.633  -3.726  21.462  0.00  0.00    +0.118 HD
ENDBRANCH   9  10
ENDBRANCH   1   9
BRANCH   1  13
ATOM     13  C   UNL     1       9.750  -2.990  24.087  0.00  0.00    +0.129 C 
BRANCH  13  14
ATOM     14  C   UNL     1       9.344  -4.264  24.801  0.00  0.00    +0.305 C 
ATOM     15  O   UNL     1       8.174  -4.528  25.044  0.00  0.00    -0.251 OA
BRANCH  14  16
ATOM     16  O   UNL     1      10.323  -5.158  25.039  0.00  0.00    -0.481 OA
ATOM     17  H   UNL     1      11.093  -4.704  25.460  0.00  0.00    +0.295 HD
ENDBRANCH  14  16
ENDBRANCH  13  14
ENDBRANCH   1  13
TORSDOF 6
ENDMDL
MODEL 7
REMARK VINA RESULT:      -4.9      7.935      9.499
REMARK  Name = 
REMARK  6 active torsions:
REMARK  status: ('A' for Active; 'I' for Inactive)
REMARK    1  A    between atoms: N_1  and  C_2
REMARK    2  A    between atoms: C_2  and  C_3
REMARK    3  A    between atoms: C_3  and  C_4
REMARK    4  A    between atoms: C_3  and  C_8
REMARK    5  A    between atoms: C_4  and  C_5
REMARK    6  A    between atoms: C_5  and  O_6
REMARK                            x       y       z     vdW  Elec       q    Type
REMARK                         _______ _______ _______ _____ _____    ______ ____
ROOT
ATOM      1  C   UNL     1       7.596  -4.934  25.238  0.00  0.00    +0.043 C 
ENDROOT
BRANCH   1   2
ATOM      2  C   UNL     1       8.156  -3.867  24.277  0.00  0.00    -0.042 A 
ATOM      3  C   UNL     1       7.377  -3.445  23.182  0.00  0.00    +0.005 A 
ATOM      4  C   UNL     1       7.821  -2.439  22.316  0.00  0.00    +0.020 A 
ATOM      5  C   UNL     1       9.070  -1.859  22.511  0.00  0.00    +0.041 A 
ATOM      6 CL   UNL     1       9.615  -0.615  21.457  0.00  0.00    -0.084 Cl
ATOM      7  C   UNL     1       9.879  -2.287  23.554  0.00  0.00    +0.020 A 
ATOM      8  C   UNL     1       9.425  -3.278  24.433  0.00  0.00    +0.005 A 
ENDBRANCH   1   2
BRANCH   1   9
ATOM      9  C   UNL     1       8.107  -4.758  26.693  0.00  0.00    +0.086 C 
BRANCH   9  10
ATOM     10  N   UNL     1       7.813  -5.919  27.540  0.00  0.00    -0.329 NA
ATOM     11  H   UNL     1       6.955  -5.727  28.070  0.00  0.00    +0.118 HD
ATOM     12  H   UNL     1       7.526  -6.694  26.924  0.00  0.00    +0.118 HD
ENDBRANCH   9  10
ENDBRANCH   1   9
BRANCH   1  13
ATOM     13  C   UNL     1       6.052  -4.938  25.176  0.00  0.00    +0.129 C 
BRANCH  13  14
ATOM     14  C   UNL     1       5.276  -6.240  25.216  0.00  0.00    +0.305 C 
ATOM     15  O   UNL     1       4.794  -6.741  24.209  0.00  0.00    -0.251 OA
BRANCH  14  16
ATOM     16  O   UNL     1       5.255  -6.891  26.395  0.00  0.00    -0.481 OA
ATOM     17  H   UNL     1       5.590  -6.296  27.109  0.00  0.00    +0.295 HD
ENDBRANCH  14  16
ENDBRANCH  13  14
ENDBRANCH   1  13
TORSDOF 6
ENDMDL
MODEL 8
REMARK VINA RESULT:      -4.8      7.035      8.850
REMARK  Name = 
REMARK  6 active torsions:
REMARK  status: ('A' for Active; 'I' for Inactive)
REMARK    1  A    between atoms: N_1  and  C_2
REMARK    2  A    between atoms: C_2  and  C_3
REMARK    3  A    between atoms: C_3  and  C_4
REMARK    4  A    between atoms: C_3  and  C_8
REMARK    5  A    between atoms: C_4  and  C_5
REMARK    6  A    between atoms: C_5  and  O_6
REMARK                            x       y       z     vdW  Elec       q    Type
REMARK                         _______ _______ _______ _____ _____    ______ ____
ROOT
ATOM      1  C   UNL     1       8.280  -4.634  24.013  0.00  0.00    +0.043 C 
ENDROOT
BRANCH   1   2
ATOM      2  C   UNL     1       8.623  -3.220  23.503  0.00  0.00    -0.042 A 
ATOM      3  C   UNL     1       9.867  -2.649  23.832  0.00  0.00    +0.005 A 
ATOM      4  C   UNL     1      10.245  -1.392  23.346  0.00  0.00    +0.020 A 
ATOM      5  C   UNL     1       9.368  -0.668  22.547  0.00  0.00    +0.041 A 
ATOM      6 CL   UNL     1       9.831   0.872  21.937  0.00  0.00    -0.084 Cl
ATOM      7  C   UNL     1       8.116  -1.185  22.243  0.00  0.00    +0.020 A 
ATOM      8  C   UNL     1       7.748  -2.453  22.713  0.00  0.00    +0.005 A 
ENDBRANCH   1   2
BRANCH   1   9
ATOM      9  C   UNL     1       8.650  -4.840  25.505  0.00  0.00    +0.086 C 
BRANCH   9  10
ATOM     10  N   UNL     1       9.761  -5.779  25.689  0.00  0.00    -0.329 NA
ATOM     11  H   UNL     1      10.248  -5.889  24.792  0.00  0.00    +0.118 HD
ATOM     12  H   UNL     1      10.473  -5.314  26.272  0.00  0.00    +0.118 HD
ENDBRANCH   9  10
ENDBRANCH   1   9
BRANCH   1  13
ATOM     13  C   UNL     1       6.787  -4.938  23.751  0.00  0.00    +0.129 C 
BRANCH  13  14
ATOM     14  C   UNL     1       6.367  -5.849  22.614  0.00  0.00    +0.305 C 
ATOM     15  O   UNL     1       7.093  -6.065  21.653  0.00  0.00    -0.251 OA
BRANCH  14  16
ATOM     16  O   UNL     1       5.209  -6.517  22.775  0.00  0.00    -0.481 OA
ATOM     17  H   UNL     1       5.219  -6.996  23.640  0.00  0.00    +0.295 HD
ENDBRANCH  14  16
ENDBRANCH  13  14
ENDBRANCH   1  13
TORSDOF 6
ENDMDL
MODEL 9
REMARK VINA RESULT:      -4.8      3.878      5.194
REMARK  Name = 
REMARK  6 active torsions:
REMARK  status: ('A' for Active; 'I' for Inactive)
REMARK    1  A    between atoms: N_1  and  C_2
REMARK    2  A    between atoms: C_2  and  C_3
REMARK    3  A    between atoms: C_3  and  C_4
REMARK    4  A    between atoms: C_3  and  C_8
REMARK    5  A    between atoms: C_4  and  C_5
REMARK    6  A    between atoms: C_5  and  O_6
REMARK                            x       y       z     vdW  Elec       q    Type
REMARK                         _______ _______ _______ _____ _____    ______ ____
ROOT
ATOM      1  C   UNL     1       8.998  -0.621  23.455  0.00  0.00    +0.043 C 
ENDROOT
BRANCH   1   2
ATOM      2  C   UNL     1       8.365  -2.014  23.267  0.00  0.00    -0.042 A 
ATOM      3  C   UNL     1       7.336  -2.183  22.320  0.00  0.00    +0.005 A 
ATOM      4  C   UNL     1       6.770  -3.440  22.076  0.00  0.00    +0.020 A 
ATOM      5  C   UNL     1       7.200  -4.546  22.800  0.00  0.00    +0.041 A 
ATOM      6 CL   UNL     1       6.516  -6.093  22.497  0.00  0.00    -0.084 Cl
ATOM      7  C   UNL     1       8.180  -4.400  23.773  0.00  0.00    +0.020 A 
ATOM      8  C   UNL     1       8.761  -3.146  24.002  0.00  0.00    +0.005 A 
ENDBRANCH   1   2
BRANCH   1   9
ATOM      9  C   UNL     1      10.086  -0.601  24.562  0.00  0.00    +0.086 C 
BRANCH   9  10
ATOM     10  N   UNL     1      10.196   0.702  25.225  0.00  0.00    -0.329 NA
ATOM     11  H   UNL     1      11.190   0.955  25.285  0.00  0.00    +0.118 HD
ATOM     12  H   UNL     1       9.824   1.416  24.580  0.00  0.00    +0.118 HD
ENDBRANCH   9  10
ENDBRANCH   1   9
BRANCH   1  13
ATOM     13  C   UNL     1       9.553  -0.110  22.106  0.00  0.00    +0.129 C 
BRANCH  13  14
ATOM     14  C   UNL     1       9.240   1.291  21.618  0.00  0.00    +0.305 C 
ATOM     15  O   UNL     1       8.101   1.641  21.338  0.00  0.00    -0.251 OA
BRANCH  14  16
ATOM     16  O   UNL     1      10.256   2.174  21.632  0.00  0.00    -0.481 OA
ATOM     17  H   UNL     1      10.294   2.622  22.511  0.00  0.00    +0.295 HD
ENDBRANCH  14  16
ENDBRANCH  13  14
ENDBRANCH   1  13
TORSDOF 6
ENDMDL
