MODEL 1
REMARK VINA RESULT:      -8.3      0.000      0.000
REMARK  Name = 
REMARK  5 active torsions:
REMARK  status: ('A' for Active; 'I' for Inactive)
REMARK    1  A    between atoms: C_5  and  N_8
REMARK    2  A    between atoms: C_12  and  C_13
REMARK    3  A    between atoms: N_15  and  C_16
REMARK    4  A    between atoms: C_19  and  O_20
REMARK    5  A    between atoms: O_20  and  C_21
REMARK                            x       y       z     vdW  Elec       q    Type
REMARK                         _______ _______ _______ _____ _____    ______ ____
ROOT
ATOM      1  C   UNL     1       8.862  -2.935  24.452  0.00  0.00    +0.254 C 
ATOM      2  N   UNL     1       8.434  -1.618  24.437  0.00  0.00    -0.281 N 
ATOM      3  H   UNL     1       7.600  -1.393  24.979  0.00  0.00    +0.155 HD
ATOM      4  O   UNL     1       9.986  -3.302  24.113  0.00  0.00    -0.270 OA
ENDROOT
BRANCH   1   8
ATOM      5  N   UNL     1       5.657  -5.055  25.061  0.00  0.00    -0.284 N 
ATOM      6  C   UNL     1       6.511  -4.120  24.426  0.00  0.00    +0.268 A 
ATOM      7  O   UNL     1       6.201  -3.412  23.463  0.00  0.00    -0.267 OA
ATOM      8  C   UNL     1       7.875  -3.915  25.014  0.00  0.00    +0.102 A 
ATOM      9  C   UNL     1       8.230  -4.610  26.106  0.00  0.00    +0.020 A 
ATOM     10  C   UNL     1       7.331  -5.554  26.704  0.00  0.00    +0.019 A 
ATOM     11  C   UNL     1       6.112  -5.740  26.190  0.00  0.00    +0.095 A 
BRANCH   5  16
ATOM     12  F   UNL     1       0.447  -5.644  23.050  0.00  0.00    -0.205 F 
ATOM     13  C   UNL     1       1.685  -5.522  23.543  0.00  0.00    +0.124 A 
ATOM     14  C   UNL     1       1.934  -4.619  24.565  0.00  0.00    +0.040 A 
ATOM     15  C   UNL     1       3.232  -4.478  25.071  0.00  0.00    +0.029 A 
ATOM     16  C   UNL     1       4.304  -5.239  24.563  0.00  0.00    +0.050 A 
ATOM     17  C   UNL     1       4.002  -6.164  23.545  0.00  0.00    +0.029 A 
ATOM     18  C   UNL     1       2.708  -6.298  23.029  0.00  0.00    +0.040 A 
ENDBRANCH   5  16
ENDBRANCH   1   8
BRANCH   2  19
ATOM     19  C   UNL     1       9.242  -0.561  24.008  0.00  0.00    +0.037 A 
ATOM     20  C   UNL     1       9.102  -0.074  22.712  0.00  0.00    +0.065 A 
ATOM     21  C   UNL     1       9.736   1.120  22.379  0.00  0.00    +0.167 A 
ATOM     22  F   UNL     1       9.499   1.659  21.172  0.00  0.00    -0.202 F 
ATOM     23  C   UNL     1      10.571   1.774  23.290  0.00  0.00    +0.164 A 
ATOM     24  C   UNL     1      10.902   1.124  24.478  0.00  0.00    +0.051 A 
ATOM     25  C   UNL     1      10.177   0.005  24.874  0.00  0.00    +0.027 A 
BRANCH  23  26
ATOM     26  O   UNL     1      11.015   3.029  22.948  0.00  0.00    -0.452 OA
BRANCH  26  27
ATOM     27  C   UNL     1      10.548   4.151  23.643  0.00  0.00    +0.141 A 
ATOM     28  C   UNL     1       9.281   4.343  24.250  0.00  0.00    +0.061 A 
ATOM     29  C   UNL     1       8.043   3.640  24.378  0.00  0.00    +0.032 A 
ATOM     30  C   UNL     1       7.234   4.342  25.248  0.00  0.00    +0.085 A 
ATOM     31  N   UNL     1       7.898   5.486  25.594  0.00  0.00    -0.346 N 
ATOM     32  H   UNL     1       7.570   6.208  26.217  0.00  0.00    +0.167 HD
ATOM     33  C   UNL     1       9.116   5.523  24.971  0.00  0.00    +0.142 A 
ATOM     34  N   UNL     1       9.983   6.545  25.093  0.00  0.00    -0.237 NA
ATOM     35  C   UNL     1      11.128   6.350  24.405  0.00  0.00    +0.117 A 
ATOM     36  C   UNL     1      11.458   5.209  23.693  0.00  0.00    +0.066 A 
ENDBRANCH  26  27
ENDBRANCH  23  26
ENDBRANCH   2  19
TORSDOF 5
ENDMDL
MODEL 2
REMARK VINA RESULT:      -8.2      3.050     10.487
REMARK  Name = 
REMARK  5 active torsions:
REMARK  status: ('A' for Active; 'I' for Inactive)
REMARK    1  A    between atoms: C_5  and  N_8
REMARK    2  A    between atoms: C_12  and  C_13
REMARK    3  A    between atoms: N_15  and  C_16
REMARK    4  A    between atoms: C_19  and  O_20
REMARK    5  A    between atoms: O_20  and  C_21
REMARK                            x       y       z     vdW  Elec       q    Type
REMARK                         _______ _______ _______ _____ _____    ______ ____
ROOT
ATOM      1  C   UNL     1       7.101   0.114  24.030  0.00  0.00    +0.254 C 
ATOM      2  N   UNL     1       8.061  -0.819  23.679  0.00  0.00    -0.281 N 
ATOM      3  H   UNL     1       8.926  -0.466  23.269  0.00  0.00    +0.155 HD
ATOM      4  O   UNL     1       6.162  -0.112  24.790  0.00  0.00    -0.270 OA
ENDROOT
BRANCH   1   8
ATOM      5  N   UNL     1       8.594   3.638  23.328  0.00  0.00    -0.284 N 
ATOM      6  C   UNL     1       8.499   2.341  23.889  0.00  0.00    +0.268 A 
ATOM      7  O   UNL     1       9.269   1.873  24.734  0.00  0.00    -0.267 OA
ATOM      8  C   UNL     1       7.330   1.493  23.486  0.00  0.00    +0.102 A 
ATOM      9  C   UNL     1       6.426   1.988  22.626  0.00  0.00    +0.020 A 
ATOM     10  C   UNL     1       6.576   3.305  22.077  0.00  0.00    +0.019 A 
ATOM     11  C   UNL     1       7.611   4.069  22.433  0.00  0.00    +0.095 A 
BRANCH   5  16
ATOM     12  F   UNL     1      12.765   7.106  24.779  0.00  0.00    -0.205 F 
ATOM     13  C   UNL     1      11.774   6.269  24.453  0.00  0.00    +0.124 A 
ATOM     14  C   UNL     1      12.036   5.166  23.655  0.00  0.00    +0.040 A 
ATOM     15  C   UNL     1      10.997   4.298  23.299  0.00  0.00    +0.029 A 
ATOM     16  C   UNL     1       9.676   4.517  23.738  0.00  0.00    +0.050 A 
ATOM     17  C   UNL     1       9.458   5.632  24.570  0.00  0.00    +0.029 A 
ATOM     18  C   UNL     1      10.493   6.509  24.916  0.00  0.00    +0.040 A 
ENDBRANCH   5  16
ENDBRANCH   1   8
BRANCH   2  19
ATOM     19  C   UNL     1       8.046  -2.138  24.143  0.00  0.00    +0.037 A 
ATOM     20  C   UNL     1       8.844  -2.491  25.227  0.00  0.00    +0.065 A 
ATOM     21  C   UNL     1       8.642  -3.734  25.823  0.00  0.00    +0.167 A 
ATOM     22  F   UNL     1       9.317  -4.026  26.946  0.00  0.00    -0.202 F 
ATOM     23  C   UNL     1       7.725  -4.649  25.295  0.00  0.00    +0.164 A 
ATOM     24  C   UNL     1       7.142  -4.373  24.059  0.00  0.00    +0.051 A 
ATOM     25  C   UNL     1       7.234  -3.090  23.528  0.00  0.00    +0.027 A 
BRANCH  23  26
ATOM     26  O   UNL     1       7.460  -5.773  26.039  0.00  0.00    -0.452 OA
BRANCH  26  27
ATOM     27  C   UNL     1       6.249  -5.883  26.733  0.00  0.00    +0.141 A 
ATOM     28  C   UNL     1       5.019  -6.420  26.273  0.00  0.00    +0.061 A 
ATOM     29  C   UNL     1       4.477  -6.960  25.067  0.00  0.00    +0.032 A 
ATOM     30  C   UNL     1       3.216  -7.449  25.339  0.00  0.00    +0.085 A 
ATOM     31  N   UNL     1       2.936  -7.158  26.645  0.00  0.00    -0.346 N 
ATOM     32  H   UNL     1       2.089  -7.385  27.145  0.00  0.00    +0.167 HD
ATOM     33  C   UNL     1       3.994  -6.502  27.213  0.00  0.00    +0.142 A 
ATOM     34  N   UNL     1       3.999  -6.057  28.483  0.00  0.00    -0.237 NA
ATOM     35  C   UNL     1       5.159  -5.460  28.828  0.00  0.00    +0.117 A 
ATOM     36  C   UNL     1       6.283  -5.354  28.025  0.00  0.00    +0.066 A 
ENDBRANCH  26  27
ENDBRANCH  23  26
ENDBRANCH   2  19
TORSDOF 5
ENDMDL
MODEL 3
REMARK VINA RESULT:      -8.1      2.745     10.487
REMARK  Name = 
REMARK  5 active torsions:
REMARK  status: ('A' for Active; 'I' for Inactive)
REMARK    1  A    between atoms: C_5  and  N_8
REMARK    2  A    between atoms: C_12  and  C_13
REMARK    3  A    between atoms: N_15  and  C_16
REMARK    4  A    between atoms: C_19  and  O_20
REMARK    5  A    between atoms: O_20  and  C_21
REMARK                            x       y       z     vdW  Elec       q    Type
REMARK                         _______ _______ _______ _____ _____    ______ ____
ROOT
ATOM      1  C   UNL     1       7.357   0.110  23.799  0.00  0.00    +0.254 C 
ATOM      2  N   UNL     1       7.709  -0.153  25.112  0.00  0.00    -0.281 N 
ATOM      3  H   UNL     1       7.825   0.649  25.733  0.00  0.00    +0.155 HD
ATOM      4  O   UNL     1       6.895  -0.726  23.025  0.00  0.00    -0.270 OA
ENDROOT
BRANCH   1   8
ATOM      5  N   UNL     1       8.645   3.755  23.359  0.00  0.00    -0.284 N 
ATOM      6  C   UNL     1       8.646   2.407  23.791  0.00  0.00    +0.268 A 
ATOM      7  O   UNL     1       9.494   1.896  24.529  0.00  0.00    -0.267 OA
ATOM      8  C   UNL     1       7.488   1.546  23.384  0.00  0.00    +0.102 A 
ATOM      9  C   UNL     1       6.504   2.078  22.641  0.00  0.00    +0.020 A 
ATOM     10  C   UNL     1       6.557   3.448  22.220  0.00  0.00    +0.019 A 
ATOM     11  C   UNL     1       7.583   4.224  22.581  0.00  0.00    +0.095 A 
BRANCH   5  16
ATOM     12  F   UNL     1      12.794   7.102  25.123  0.00  0.00    -0.205 F 
ATOM     13  C   UNL     1      11.804   6.317  24.684  0.00  0.00    +0.124 A 
ATOM     14  C   UNL     1      10.509   6.525  25.133  0.00  0.00    +0.040 A 
ATOM     15  C   UNL     1       9.474   5.694  24.687  0.00  0.00    +0.029 A 
ATOM     16  C   UNL     1       9.716   4.642  23.782  0.00  0.00    +0.050 A 
ATOM     17  C   UNL     1      11.040   4.483  23.330  0.00  0.00    +0.029 A 
ATOM     18  C   UNL     1      12.079   5.303  23.784  0.00  0.00    +0.040 A 
ENDBRANCH   5  16
ENDBRANCH   1   8
BRANCH   2  19
ATOM     19  C   UNL     1       7.593  -1.419  25.692  0.00  0.00    +0.037 A 
ATOM     20  C   UNL     1       6.479  -1.716  26.471  0.00  0.00    +0.065 A 
ATOM     21  C   UNL     1       6.261  -3.041  26.841  0.00  0.00    +0.167 A 
ATOM     22  F   UNL     1       5.123  -3.351  27.481  0.00  0.00    -0.202 F 
ATOM     23  C   UNL     1       7.183  -4.042  26.519  0.00  0.00    +0.164 A 
ATOM     24  C   UNL     1       8.411  -3.671  25.975  0.00  0.00    +0.051 A 
ATOM     25  C   UNL     1       8.582  -2.380  25.486  0.00  0.00    +0.027 A 
BRANCH  23  26
ATOM     26  O   UNL     1       6.810  -5.342  26.764  0.00  0.00    -0.452 OA
BRANCH  26  27
ATOM     27  C   UNL     1       5.807  -5.941  25.991  0.00  0.00    +0.141 A 
ATOM     28  C   UNL     1       5.594  -5.831  24.593  0.00  0.00    +0.061 A 
ATOM     29  C   UNL     1       6.152  -5.128  23.482  0.00  0.00    +0.032 A 
ATOM     30  C   UNL     1       5.553  -5.593  22.329  0.00  0.00    +0.085 A 
ATOM     31  N   UNL     1       4.594  -6.495  22.700  0.00  0.00    -0.346 N 
ATOM     32  H   UNL     1       3.982  -7.010  22.085  0.00  0.00    +0.167 HD
ATOM     33  C   UNL     1       4.577  -6.621  24.062  0.00  0.00    +0.142 A 
ATOM     34  N   UNL     1       3.715  -7.415  24.724  0.00  0.00    -0.237 NA
ATOM     35  C   UNL     1       3.900  -7.394  26.061  0.00  0.00    +0.117 A 
ATOM     36  C   UNL     1       4.900  -6.706  26.727  0.00  0.00    +0.066 A 
ENDBRANCH  26  27
ENDBRANCH  23  26
ENDBRANCH   2  19
TORSDOF 5
ENDMDL
MODEL 4
REMARK VINA RESULT:      -8.0      2.000      2.488
REMARK  Name = 
REMARK  5 active torsions:
REMARK  status: ('A' for Active; 'I' for Inactive)
REMARK    1  A    between atoms: C_5  and  N_8
REMARK    2  A    between atoms: C_12  and  C_13
REMARK    3  A    between atoms: N_15  and  C_16
REMARK    4  A    between atoms: C_19  and  O_20
REMARK    5  A    between atoms: O_20  and  C_21
REMARK                            x       y       z     vdW  Elec       q    Type
REMARK                         _______ _______ _______ _____ _____    ______ ____
ROOT
ATOM      1  C   UNL     1       8.531  -2.900  23.484  0.00  0.00    +0.254 C 
ATOM      2  N   UNL     1       8.002  -1.626  23.359  0.00  0.00    -0.281 N 
ATOM      3  H   UNL     1       6.986  -1.538  23.387  0.00  0.00    +0.155 HD
ATOM      4  O   UNL     1       9.703  -3.138  23.768  0.00  0.00    -0.270 OA
ENDROOT
BRANCH   1   8
ATOM      5  N   UNL     1       5.669  -5.446  24.166  0.00  0.00    -0.284 N 
ATOM      6  C   UNL     1       6.539  -4.354  24.406  0.00  0.00    +0.268 A 
ATOM      7  O   UNL     1       6.585  -3.696  25.451  0.00  0.00    -0.267 OA
ATOM      8  C   UNL     1       7.537  -4.014  23.340  0.00  0.00    +0.102 A 
ATOM      9  C   UNL     1       7.573  -4.748  22.217  0.00  0.00    +0.020 A 
ATOM     10  C   UNL     1       6.661  -5.838  22.019  0.00  0.00    +0.019 A 
ATOM     11  C   UNL     1       5.772  -6.151  22.965  0.00  0.00    +0.095 A 
BRANCH   5  16
ATOM     12  F   UNL     1       2.065  -6.879  28.227  0.00  0.00    -0.205 F 
ATOM     13  C   UNL     1       2.919  -6.557  27.249  0.00  0.00    +0.124 A 
ATOM     14  C   UNL     1       4.278  -6.768  27.424  0.00  0.00    +0.040 A 
ATOM     15  C   UNL     1       5.176  -6.416  26.408  0.00  0.00    +0.029 A 
ATOM     16  C   UNL     1       4.729  -5.850  25.198  0.00  0.00    +0.050 A 
ATOM     17  C   UNL     1       3.339  -5.679  25.050  0.00  0.00    +0.029 A 
ATOM     18  C   UNL     1       2.441  -6.017  26.069  0.00  0.00    +0.040 A 
ENDBRANCH   5  16
ENDBRANCH   1   8
BRANCH   2  19
ATOM     19  C   UNL     1       8.765  -0.466  23.524  0.00  0.00    +0.037 A 
ATOM     20  C   UNL     1       9.458   0.059  22.437  0.00  0.00    +0.065 A 
ATOM     21  C   UNL     1      10.013   1.330  22.555  0.00  0.00    +0.167 A 
ATOM     22  F   UNL     1      10.570   1.892  21.470  0.00  0.00    -0.202 F 
ATOM     23  C   UNL     1       9.960   2.033  23.763  0.00  0.00    +0.164 A 
ATOM     24  C   UNL     1       9.499   1.374  24.900  0.00  0.00    +0.051 A 
ATOM     25  C   UNL     1       8.826   0.163  24.766  0.00  0.00    +0.027 A 
BRANCH  23  26
ATOM     26  O   UNL     1      10.373   3.344  23.745  0.00  0.00    -0.452 OA
BRANCH  26  27
ATOM     27  C   UNL     1       9.445   4.368  23.514  0.00  0.00    +0.141 A 
ATOM     28  C   UNL     1       8.136   4.261  22.982  0.00  0.00    +0.061 A 
ATOM     29  C   UNL     1       7.281   3.247  22.448  0.00  0.00    +0.032 A 
ATOM     30  C   UNL     1       6.035   3.799  22.234  0.00  0.00    +0.085 A 
ATOM     31  N   UNL     1       6.117   5.130  22.541  0.00  0.00    -0.346 N 
ATOM     32  H   UNL     1       5.371   5.807  22.488  0.00  0.00    +0.167 HD
ATOM     33  C   UNL     1       7.385   5.434  22.955  0.00  0.00    +0.142 A 
ATOM     34  N   UNL     1       7.778   6.676  23.294  0.00  0.00    -0.237 NA
ATOM     35  C   UNL     1       9.068   6.730  23.690  0.00  0.00    +0.117 A 
ATOM     36  C   UNL     1       9.918   5.645  23.822  0.00  0.00    +0.066 A 
ENDBRANCH  26  27
ENDBRANCH  23  26
ENDBRANCH   2  19
TORSDOF 5
ENDMDL
MODEL 5
REMARK VINA RESULT:      -8.0      2.537      3.564
REMARK  Name = 
REMARK  5 active torsions:
REMARK  status: ('A' for Active; 'I' for Inactive)
REMARK    1  A    between atoms: C_5  and  N_8
REMARK    2  A    between atoms: C_12  and  C_13
REMARK    3  A    between atoms: N_15  and  C_16
REMARK    4  A    between atoms: C_19  and  O_20
REMARK    5  A    between atoms: O_20  and  C_21
REMARK                            x       y       z     vdW  Elec       q    Type
REMARK                         _______ _______ _______ _____ _____    ______ ____
ROOT
ATOM      1  C   UNL     1       8.158  -1.603  22.899  0.00  0.00    +0.254 C 
ATOM      2  N   UNL     1       7.430  -0.573  23.471  0.00  0.00    -0.281 N 
ATOM      3  H   UNL     1       6.688  -0.832  24.121  0.00  0.00    +0.155 HD
ATOM      4  O   UNL     1       9.249  -1.458  22.350  0.00  0.00    -0.270 OA
ENDROOT
BRANCH   1   8
ATOM      5  N   UNL     1       6.567  -4.800  24.444  0.00  0.00    -0.284 N 
ATOM      6  C   UNL     1       7.083  -3.482  24.399  0.00  0.00    +0.268 A 
ATOM      7  O   UNL     1       7.225  -2.738  25.375  0.00  0.00    -0.267 OA
ATOM      8  C   UNL     1       7.566  -2.970  23.075  0.00  0.00    +0.102 A 
ATOM      9  C   UNL     1       7.499  -3.769  21.998  0.00  0.00    +0.020 A 
ATOM     10  C   UNL     1       6.957  -5.094  22.097  0.00  0.00    +0.019 A 
ATOM     11  C   UNL     1       6.528  -5.560  23.273  0.00  0.00    +0.095 A 
BRANCH   5  16
ATOM     12  F   UNL     1       4.995  -7.095  29.322  0.00  0.00    -0.205 F 
ATOM     13  C   UNL     1       5.361  -6.528  28.166  0.00  0.00    +0.124 A 
ATOM     14  C   UNL     1       4.566  -6.682  27.041  0.00  0.00    +0.040 A 
ATOM     15  C   UNL     1       4.956  -6.104  25.827  0.00  0.00    +0.029 A 
ATOM     16  C   UNL     1       6.146  -5.359  25.718  0.00  0.00    +0.050 A 
ATOM     17  C   UNL     1       6.910  -5.203  26.891  0.00  0.00    +0.029 A 
ATOM     18  C   UNL     1       6.530  -5.791  28.103  0.00  0.00    +0.040 A 
ENDBRANCH   5  16
ENDBRANCH   1   8
BRANCH   2  19
ATOM     19  C   UNL     1       7.859   0.758  23.462  0.00  0.00    +0.037 A 
ATOM     20  C   UNL     1       7.520   1.579  22.390  0.00  0.00    +0.065 A 
ATOM     21  C   UNL     1       7.746   2.948  22.506  0.00  0.00    +0.167 A 
ATOM     22  F   UNL     1       7.304   3.757  21.530  0.00  0.00    -0.202 F 
ATOM     23  C   UNL     1       8.382   3.483  23.630  0.00  0.00    +0.164 A 
ATOM     24  C   UNL     1       8.947   2.610  24.558  0.00  0.00    +0.051 A 
ATOM     25  C   UNL     1       8.614   1.260  24.520  0.00  0.00    +0.027 A 
BRANCH  23  26
ATOM     26  O   UNL     1       8.408   4.853  23.745  0.00  0.00    -0.452 OA
BRANCH  26  27
ATOM     27  C   UNL     1       9.526   5.488  24.299  0.00  0.00    +0.141 A 
ATOM     28  C   UNL     1      10.881   5.397  23.889  0.00  0.00    +0.061 A 
ATOM     29  C   UNL     1      11.655   4.688  22.921  0.00  0.00    +0.032 A 
ATOM     30  C   UNL     1      12.944   5.180  22.951  0.00  0.00    +0.085 A 
ATOM     31  N   UNL     1      13.006   6.107  23.955  0.00  0.00    -0.346 N 
ATOM     32  H   UNL     1      13.814   6.646  24.228  0.00  0.00    +0.167 HD
ATOM     33  C   UNL     1      11.783   6.222  24.557  0.00  0.00    +0.142 A 
ATOM     34  N   UNL     1      11.542   7.035  25.603  0.00  0.00    -0.237 NA
ATOM     35  C   UNL     1      10.257   6.996  26.016  0.00  0.00    +0.117 A 
ATOM     36  C   UNL     1       9.239   6.273  25.419  0.00  0.00    +0.066 A 
ENDBRANCH  26  27
ENDBRANCH  23  26
ENDBRANCH   2  19
TORSDOF 5
ENDMDL
MODEL 6
REMARK VINA RESULT:      -7.8      2.732     10.128
REMARK  Name = 
REMARK  5 active torsions:
REMARK  status: ('A' for Active; 'I' for Inactive)
REMARK    1  A    between atoms: C_5  and  N_8
REMARK    2  A    between atoms: C_12  and  C_13
REMARK    3  A    between atoms: N_15  and  C_16
REMARK    4  A    between atoms: C_19  and  O_20
REMARK    5  A    between atoms: O_20  and  C_21
REMARK                            x       y       z     vdW  Elec       q    Type
REMARK                         _______ _______ _______ _____ _____    ______ ____
ROOT
ATOM      1  C   UNL     1       8.200  -1.615  24.244  0.00  0.00    +0.254 C 
ATOM      2  N   UNL     1       7.432  -1.850  23.116  0.00  0.00    -0.281 N 
ATOM      3  H   UNL     1       7.617  -1.270  22.298  0.00  0.00    +0.155 HD
ATOM      4  O   UNL     1       8.311  -2.402  25.182  0.00  0.00    -0.270 OA
ENDROOT
BRANCH   1   8
ATOM      5  N   UNL     1       9.250   2.109  23.834  0.00  0.00    -0.284 N 
ATOM      6  C   UNL     1       8.393   0.981  23.851  0.00  0.00    +0.268 A 
ATOM      7  O   UNL     1       7.201   0.988  23.528  0.00  0.00    -0.267 OA
ATOM      8  C   UNL     1       8.994  -0.343  24.216  0.00  0.00    +0.102 A 
ATOM      9  C   UNL     1      10.304  -0.412  24.504  0.00  0.00    +0.020 A 
ATOM     10  C   UNL     1      11.125   0.763  24.483  0.00  0.00    +0.019 A 
ATOM     11  C   UNL     1      10.600   1.946  24.154  0.00  0.00    +0.095 A 
BRANCH   5  16
ATOM     12  F   UNL     1       7.326   7.107  22.147  0.00  0.00    -0.205 F 
ATOM     13  C   UNL     1       7.768   5.916  22.565  0.00  0.00    +0.124 A 
ATOM     14  C   UNL     1       8.846   5.846  23.434  0.00  0.00    +0.040 A 
ATOM     15  C   UNL     1       9.321   4.599  23.859  0.00  0.00    +0.029 A 
ATOM     16  C   UNL     1       8.724   3.400  23.425  0.00  0.00    +0.050 A 
ATOM     17  C   UNL     1       7.614   3.516  22.565  0.00  0.00    +0.029 A 
ATOM     18  C   UNL     1       7.146   4.761  22.128  0.00  0.00    +0.040 A 
ENDBRANCH   5  16
ENDBRANCH   1   8
BRANCH   2  19
ATOM     19  C   UNL     1       6.676  -3.012  22.939  0.00  0.00    +0.037 A 
ATOM     20  C   UNL     1       7.282  -4.150  22.413  0.00  0.00    +0.065 A 
ATOM     21  C   UNL     1       6.588  -5.356  22.464  0.00  0.00    +0.167 A 
ATOM     22  F   UNL     1       7.217  -6.476  22.077  0.00  0.00    -0.202 F 
ATOM     23  C   UNL     1       5.277  -5.415  22.946  0.00  0.00    +0.164 A 
ATOM     24  C   UNL     1       4.607  -4.222  23.213  0.00  0.00    +0.051 A 
ATOM     25  C   UNL     1       5.327  -3.034  23.291  0.00  0.00    +0.027 A 
BRANCH  23  26
ATOM     26  O   UNL     1       4.730  -6.663  23.126  0.00  0.00    -0.452 OA
BRANCH  26  27
ATOM     27  C   UNL     1       3.970  -6.936  24.270  0.00  0.00    +0.141 A 
ATOM     28  C   UNL     1       4.347  -6.793  25.630  0.00  0.00    +0.061 A 
ATOM     29  C   UNL     1       5.506  -6.427  26.381  0.00  0.00    +0.032 A 
ATOM     30  C   UNL     1       5.153  -6.349  27.713  0.00  0.00    +0.085 A 
ATOM     31  N   UNL     1       3.843  -6.730  27.813  0.00  0.00    -0.346 N 
ATOM     32  H   UNL     1       3.293  -6.778  28.657  0.00  0.00    +0.167 HD
ATOM     33  C   UNL     1       3.353  -7.040  26.574  0.00  0.00    +0.142 A 
ATOM     34  N   UNL     1       2.099  -7.480  26.359  0.00  0.00    -0.237 NA
ATOM     35  C   UNL     1       1.835  -7.700  25.053  0.00  0.00    +0.117 A 
ATOM     36  C   UNL     1       2.699  -7.448  24.001  0.00  0.00    +0.066 A 
ENDBRANCH  26  27
ENDBRANCH  23  26
ENDBRANCH   2  19
TORSDOF 5
ENDMDL
MODEL 7
REMARK VINA RESULT:      -7.8      1.591      2.319
REMARK  Name = 
REMARK  5 active torsions:
REMARK  status: ('A' for Active; 'I' for Inactive)
REMARK    1  A    between atoms: C_5  and  N_8
REMARK    2  A    between atoms: C_12  and  C_13
REMARK    3  A    between atoms: N_15  and  C_16
REMARK    4  A    between atoms: C_19  and  O_20
REMARK    5  A    between atoms: O_20  and  C_21
REMARK                            x       y       z     vdW  Elec       q    Type
REMARK                         _______ _______ _______ _____ _____    ______ ____
ROOT
ATOM      1  C   UNL     1       8.329  -2.166  24.254  0.00  0.00    +0.254 C 
ATOM      2  N   UNL     1       7.758  -0.978  24.679  0.00  0.00    -0.281 N 
ATOM      3  H   UNL     1       7.257  -0.993  25.567  0.00  0.00    +0.155 HD
ATOM      4  O   UNL     1       9.198  -2.245  23.388  0.00  0.00    -0.270 OA
ENDROOT
BRANCH   1   8
ATOM      5  N   UNL     1       6.210  -5.144  25.586  0.00  0.00    -0.284 N 
ATOM      6  C   UNL     1       6.530  -4.008  24.803  0.00  0.00    +0.268 A 
ATOM      7  O   UNL     1       5.763  -3.449  24.013  0.00  0.00    -0.267 OA
ATOM      8  C   UNL     1       7.880  -3.386  25.001  0.00  0.00    +0.102 A 
ATOM      9  C   UNL     1       8.721  -3.917  25.903  0.00  0.00    +0.020 A 
ATOM     10  C   UNL     1       8.351  -5.076  26.663  0.00  0.00    +0.019 A 
ATOM     11  C   UNL     1       7.149  -5.634  26.496  0.00  0.00    +0.095 A 
BRANCH   5  16
ATOM     12  F   UNL     1       1.063  -7.329  25.067  0.00  0.00    -0.205 F 
ATOM     13  C   UNL     1       2.296  -6.827  25.203  0.00  0.00    +0.124 A 
ATOM     14  C   UNL     1       2.550  -5.882  26.185  0.00  0.00    +0.040 A 
ATOM     15  C   UNL     1       3.836  -5.342  26.318  0.00  0.00    +0.029 A 
ATOM     16  C   UNL     1       4.890  -5.741  25.472  0.00  0.00    +0.050 A 
ATOM     17  C   UNL     1       4.595  -6.724  24.507  0.00  0.00    +0.029 A 
ATOM     18  C   UNL     1       3.308  -7.255  24.364  0.00  0.00    +0.040 A 
ENDBRANCH   5  16
ENDBRANCH   1   8
BRANCH   2  19
ATOM     19  C   UNL     1       8.103   0.266  24.142  0.00  0.00    +0.037 A 
ATOM     20  C   UNL     1       7.290   0.842  23.170  0.00  0.00    +0.065 A 
ATOM     21  C   UNL     1       7.512   2.172  22.822  0.00  0.00    +0.167 A 
ATOM     22  F   UNL     1       6.652   2.768  21.982  0.00  0.00    -0.202 F 
ATOM     23  C   UNL     1       8.581   2.893  23.363  0.00  0.00    +0.164 A 
ATOM     24  C   UNL     1       9.530   2.211  24.124  0.00  0.00    +0.051 A 
ATOM     25  C   UNL     1       9.249   0.928  24.582  0.00  0.00    +0.027 A 
BRANCH  23  26
ATOM     26  O   UNL     1       8.624   4.242  23.105  0.00  0.00    -0.452 OA
BRANCH  26  27
ATOM     27  C   UNL     1       9.421   5.081  23.894  0.00  0.00    +0.141 A 
ATOM     28  C   UNL     1      10.818   5.305  23.803  0.00  0.00    +0.061 A 
ATOM     29  C   UNL     1      11.927   4.824  23.042  0.00  0.00    +0.032 A 
ATOM     30  C   UNL     1      13.034   5.584  23.361  0.00  0.00    +0.085 A 
ATOM     31  N   UNL     1      12.663   6.458  24.345  0.00  0.00    -0.346 N 
ATOM     32  H   UNL     1      13.249   7.147  24.790  0.00  0.00    +0.167 HD
ATOM     33  C   UNL     1      11.342   6.277  24.652  0.00  0.00    +0.142 A 
ATOM     34  N   UNL     1      10.699   6.973  25.609  0.00  0.00    -0.237 NA
ATOM     35  C   UNL     1       9.396   6.638  25.719  0.00  0.00    +0.117 A 
ATOM     36  C   UNL     1       8.724   5.736  24.912  0.00  0.00    +0.066 A 
ENDBRANCH  26  27
ENDBRANCH  23  26
ENDBRANCH   2  19
TORSDOF 5
ENDMDL
MODEL 8
REMARK VINA RESULT:      -7.5      2.849     10.375
REMARK  Name = 
REMARK  5 active torsions:
REMARK  status: ('A' for Active; 'I' for Inactive)
REMARK    1  A    between atoms: C_5  and  N_8
REMARK    2  A    between atoms: C_12  and  C_13
REMARK    3  A    between atoms: N_15  and  C_16
REMARK    4  A    between atoms: C_19  and  O_20
REMARK    5  A    between atoms: O_20  and  C_21
REMARK                            x       y       z     vdW  Elec       q    Type
REMARK                         _______ _______ _______ _____ _____    ______ ____
ROOT
ATOM      1  C   UNL     1       6.911   0.482  23.523  0.00  0.00    +0.254 C 
ATOM      2  N   UNL     1       7.810  -0.366  22.898  0.00  0.00    -0.281 N 
ATOM      3  H   UNL     1       8.644   0.058  22.491  0.00  0.00    +0.155 HD
ATOM      4  O   UNL     1       6.038   0.110  24.305  0.00  0.00    -0.270 OA
ENDROOT
BRANCH   1   8
ATOM      5  N   UNL     1       8.430   4.062  23.419  0.00  0.00    -0.284 N 
ATOM      6  C   UNL     1       8.352   2.678  23.708  0.00  0.00    +0.268 A 
ATOM      7  O   UNL     1       9.184   2.037  24.358  0.00  0.00    -0.267 OA
ATOM      8  C   UNL     1       7.126   1.942  23.255  0.00  0.00    +0.102 A 
ATOM      9  C   UNL     1       6.160   2.612  22.608  0.00  0.00    +0.020 A 
ATOM     10  C   UNL     1       6.294   4.013  22.331  0.00  0.00    +0.019 A 
ATOM     11  C   UNL     1       7.380   4.678  22.734  0.00  0.00    +0.095 A 
BRANCH   5  16
ATOM     12  F   UNL     1      12.826   7.108  25.129  0.00  0.00    -0.205 F 
ATOM     13  C   UNL     1      11.781   6.369  24.740  0.00  0.00    +0.124 A 
ATOM     14  C   UNL     1      11.960   5.360  23.807  0.00  0.00    +0.040 A 
ATOM     15  C   UNL     1      10.864   4.596  23.386  0.00  0.00    +0.029 A 
ATOM     16  C   UNL     1       9.570   4.828  23.894  0.00  0.00    +0.050 A 
ATOM     17  C   UNL     1       9.438   5.844  24.860  0.00  0.00    +0.029 A 
ATOM     18  C   UNL     1      10.529   6.617  25.273  0.00  0.00    +0.040 A 
ENDBRANCH   5  16
ENDBRANCH   1   8
BRANCH   2  19
ATOM     19  C   UNL     1       7.802  -1.752  23.080  0.00  0.00    +0.037 A 
ATOM     20  C   UNL     1       8.571  -2.314  24.095  0.00  0.00    +0.065 A 
ATOM     21  C   UNL     1       8.371  -3.654  24.415  0.00  0.00    +0.167 A 
ATOM     22  F   UNL     1       9.016  -4.165  25.475  0.00  0.00    -0.202 F 
ATOM     23  C   UNL     1       7.486  -4.449  23.679  0.00  0.00    +0.164 A 
ATOM     24  C   UNL     1       6.936  -3.930  22.508  0.00  0.00    +0.051 A 
ATOM     25  C   UNL     1       7.025  -2.565  22.256  0.00  0.00    +0.027 A 
BRANCH  23  26
ATOM     26  O   UNL     1       7.216  -5.705  24.167  0.00  0.00    -0.452 OA
BRANCH  26  27
ATOM     27  C   UNL     1       6.058  -5.929  24.922  0.00  0.00    +0.141 A 
ATOM     28  C   UNL     1       5.851  -5.692  26.304  0.00  0.00    +0.061 A 
ATOM     29  C   UNL     1       6.606  -5.247  27.433  0.00  0.00    +0.032 A 
ATOM     30  C   UNL     1       5.743  -5.097  28.500  0.00  0.00    +0.085 A 
ATOM     31  N   UNL     1       4.506  -5.509  28.088  0.00  0.00    -0.346 N 
ATOM     32  H   UNL     1       3.661  -5.521  28.639  0.00  0.00    +0.167 HD
ATOM     33  C   UNL     1       4.560  -5.909  26.780  0.00  0.00    +0.142 A 
ATOM     34  N   UNL     1       3.502  -6.397  26.107  0.00  0.00    -0.237 NA
ATOM     35  C   UNL     1       3.790  -6.705  24.825  0.00  0.00    +0.117 A 
ATOM     36  C   UNL     1       5.005  -6.493  24.197  0.00  0.00    +0.066 A 
ENDBRANCH  26  27
ENDBRANCH  23  26
ENDBRANCH   2  19
TORSDOF 5
ENDMDL
MODEL 9
REMARK VINA RESULT:      -7.5      2.812     10.596
REMARK  Name = 
REMARK  5 active torsions:
REMARK  status: ('A' for Active; 'I' for Inactive)
REMARK    1  A    between atoms: C_5  and  N_8
REMARK    2  A    between atoms: C_12  and  C_13
REMARK    3  A    between atoms: N_15  and  C_16
REMARK    4  A    between atoms: C_19  and  O_20
REMARK    5  A    between atoms: O_20  and  C_21
REMARK                            x       y       z     vdW  Elec       q    Type
REMARK                         _______ _______ _______ _____ _____    ______ ____
ROOT
ATOM      1  C   UNL     1       9.084  -1.795  24.115  0.00  0.00    +0.254 C 
ATOM      2  N   UNL     1       7.789  -2.183  24.415  0.00  0.00    -0.281 N 
ATOM      3  H   UNL     1       7.036  -1.739  23.889  0.00  0.00    +0.155 HD
ATOM      4  O   UNL     1      10.087  -2.432  24.429  0.00  0.00    -0.270 OA
ENDROOT
BRANCH   1   8
ATOM      5  N   UNL     1       9.636   1.876  22.951  0.00  0.00    -0.284 N 
ATOM      6  C   UNL     1       9.592   0.774  23.840  0.00  0.00    +0.268 A 
ATOM      7  O   UNL     1       9.793   0.832  25.057  0.00  0.00    -0.267 OA
ATOM      8  C   UNL     1       9.195  -0.557  23.275  0.00  0.00    +0.102 A 
ATOM      9  C   UNL     1       8.895  -0.654  21.970  0.00  0.00    +0.020 A 
ATOM     10  C   UNL     1       8.967   0.493  21.111  0.00  0.00    +0.019 A 
ATOM     11  C   UNL     1       9.315   1.684  21.605  0.00  0.00    +0.095 A 
BRANCH   5  16
ATOM     12  F   UNL     1      10.844   7.038  24.804  0.00  0.00    -0.205 F 
ATOM     13  C   UNL     1      10.560   5.800  24.384  0.00  0.00    +0.124 A 
ATOM     14  C   UNL     1      11.534   5.049  23.744  0.00  0.00    +0.040 A 
ATOM     15  C   UNL     1      11.234   3.759  23.288  0.00  0.00    +0.029 A 
ATOM     16  C   UNL     1       9.954   3.197  23.467  0.00  0.00    +0.050 A 
ATOM     17  C   UNL     1       9.003   3.983  24.146  0.00  0.00    +0.029 A 
ATOM     18  C   UNL     1       9.296   5.277  24.591  0.00  0.00    +0.040 A 
ENDBRANCH   5  16
ENDBRANCH   1   8
BRANCH   2  19
ATOM     19  C   UNL     1       7.490  -3.345  25.133  0.00  0.00    +0.037 A 
ATOM     20  C   UNL     1       7.138  -3.248  26.476  0.00  0.00    +0.065 A 
ATOM     21  C   UNL     1       6.617  -4.374  27.109  0.00  0.00    +0.167 A 
ATOM     22  F   UNL     1       6.157  -4.251  28.364  0.00  0.00    -0.202 F 
ATOM     23  C   UNL     1       6.531  -5.602  26.445  0.00  0.00    +0.164 A 
ATOM     24  C   UNL     1       7.137  -5.730  25.196  0.00  0.00    +0.051 A 
ATOM     25  C   UNL     1       7.538  -4.590  24.508  0.00  0.00    +0.027 A 
BRANCH  23  26
ATOM     26  O   UNL     1       5.847  -6.611  27.078  0.00  0.00    -0.452 OA
BRANCH  26  27
ATOM     27  C   UNL     1       4.452  -6.683  26.977  0.00  0.00    +0.141 A 
ATOM     28  C   UNL     1       3.664  -6.862  25.812  0.00  0.00    +0.061 A 
ATOM     29  C   UNL     1       3.859  -6.975  24.401  0.00  0.00    +0.032 A 
ATOM     30  C   UNL     1       2.648  -7.291  23.820  0.00  0.00    +0.085 A 
ATOM     31  N   UNL     1       1.706  -7.297  24.812  0.00  0.00    -0.346 N 
ATOM     32  H   UNL     1       0.722  -7.493  24.706  0.00  0.00    +0.167 HD
ATOM     33  C   UNL     1       2.293  -7.002  26.012  0.00  0.00    +0.142 A 
ATOM     34  N   UNL     1       1.611  -6.902  27.168  0.00  0.00    -0.237 NA
ATOM     35  C   UNL     1       2.404  -6.623  28.225  0.00  0.00    +0.117 A 
ATOM     36  C   UNL     1       3.784  -6.513  28.192  0.00  0.00    +0.066 A 
ENDBRANCH  26  27
ENDBRANCH  23  26
ENDBRANCH   2  19
TORSDOF 5
ENDMDL
