MODEL 1
REMARK VINA RESULT:      -5.9      0.000      0.000
REMARK  Name = 
REMARK  9 active torsions:
REMARK  status: ('A' for Active; 'I' for Inactive)
REMARK    1  A    between atoms: O_1  and  C_2
REMARK    2  A    between atoms: C_5  and  C_7
REMARK    3  A    between atoms: C_7  and  O_8
REMARK    4  A    between atoms: O_8  and  P_9
REMARK    5  A    between atoms: P_9  and  O_10
REMARK    6  A    between atoms: P_9  and  O_11
REMARK    7  A    between atoms: C_13  and  O_15
REMARK    8  A    between atoms: C_16  and  O_18
REMARK    9  A    between atoms: C_19  and  O_21
REMARK                            x       y       z     vdW  Elec       q    Type
REMARK                         _______ _______ _______ _____ _____    ______ ____
ROOT
ATOM      1  C   UNL     1      10.426   0.760  23.760  0.00  0.00    +0.279 C 
ATOM      2  C   UNL     1       9.281   1.341  22.896  0.00  0.00    +0.201 C 
ATOM      3  C   UNL     1       8.216   0.262  22.627  0.00  0.00    +0.179 C 
ATOM      4  C   UNL     1       8.882  -1.009  22.070  0.00  0.00    +0.177 C 
ATOM      5  C   UNL     1       9.998  -1.515  22.998  0.00  0.00    +0.179 C 
ATOM      6  O   UNL     1      10.948  -0.477  23.287  0.00  0.00    -0.341 OA
ENDROOT
BRANCH   1   7
ATOM      7  O   UNL     1       9.980   0.594  25.093  0.00  0.00    -0.365 OA
ATOM      8  H   UNL     1       9.076   0.242  25.005  0.00  0.00    +0.213 HD
ENDBRANCH   1   7
BRANCH   2   9
ATOM      9  O   UNL     1       9.784   1.910  21.681  0.00  0.00    -0.384 OA
ATOM     10  H   UNL     1       9.405   2.817  21.613  0.00  0.00    +0.210 HD
ENDBRANCH   2   9
BRANCH   3  11
ATOM     11  O   UNL     1       7.442  -0.032  23.787  0.00  0.00    -0.386 OA
ATOM     12  H   UNL     1       6.540  -0.260  23.502  0.00  0.00    +0.210 HD
ENDBRANCH   3  11
BRANCH   4  13
ATOM     13  O   UNL     1       9.453  -0.673  20.785  0.00  0.00    -0.386 OA
ATOM     14  H   UNL     1       9.722  -1.513  20.366  0.00  0.00    +0.210 HD
ENDBRANCH   4  13
BRANCH   5  15
ATOM     15  C   UNL     1       9.510  -2.231  24.276  0.00  0.00    +0.206 C 
BRANCH  15  16
ATOM     16  O   UNL     1       9.984  -3.569  24.290  0.00  0.00    -0.284 OA
BRANCH  16  17
ATOM     17  P   UNL     1       9.070  -4.674  25.258  0.00  0.00    +0.472 P 
ATOM     18  O   UNL     1       8.252  -5.665  26.122  0.00  0.00    -0.228 OA
BRANCH  17  19
ATOM     19  O   UNL     1      10.440  -5.546  25.433  0.00  0.00    -0.303 OA
ATOM     20  H   UNL     1      10.624  -5.929  24.552  0.00  0.00    +0.222 HD
ENDBRANCH  17  19
BRANCH  17  21
ATOM     21  O   UNL     1       8.553  -5.322  23.850  0.00  0.00    -0.303 OA
ATOM     22  H   UNL     1       8.466  -6.288  23.937  0.00  0.00    +0.222 HD
ENDBRANCH  17  21
ENDBRANCH  16  17
ENDBRANCH  15  16
ENDBRANCH   5  15
TORSDOF 9
ENDMDL
MODEL 2
REMARK VINA RESULT:      -5.8      1.128      2.178
REMARK  Name = 
REMARK  9 active torsions:
REMARK  status: ('A' for Active; 'I' for Inactive)
REMARK    1  A    between atoms: O_1  and  C_2
REMARK    2  A    between atoms: C_5  and  C_7
REMARK    3  A    between atoms: C_7  and  O_8
REMARK    4  A    between atoms: O_8  and  P_9
REMARK    5  A    between atoms: P_9  and  O_10
REMARK    6  A    between atoms: P_9  and  O_11
REMARK    7  A    between atoms: C_13  and  O_15
REMARK    8  A    between atoms: C_16  and  O_18
REMARK    9  A    between atoms: C_19  and  O_21
REMARK                            x       y       z     vdW  Elec       q    Type
REMARK                         _______ _______ _______ _____ _____    ______ ____
ROOT
ATOM      1  C   UNL     1       9.517  -0.976  21.536  0.00  0.00    +0.279 C 
ATOM      2  C   UNL     1       9.697   0.547  21.743  0.00  0.00    +0.201 C 
ATOM      3  C   UNL     1       9.717   0.882  23.245  0.00  0.00    +0.179 C 
ATOM      4  C   UNL     1       8.491   0.262  23.940  0.00  0.00    +0.177 C 
ATOM      5  C   UNL     1       8.402  -1.250  23.685  0.00  0.00    +0.179 C 
ATOM      6  O   UNL     1       8.447  -1.547  22.280  0.00  0.00    -0.341 OA
ENDROOT
BRANCH   1   7
ATOM      7  O   UNL     1      10.720  -1.646  21.865  0.00  0.00    -0.365 OA
ATOM      8  H   UNL     1      10.726  -2.432  21.291  0.00  0.00    +0.213 HD
ENDBRANCH   1   7
BRANCH   2   9
ATOM      9  O   UNL     1       8.690   1.290  21.044  0.00  0.00    -0.384 OA
ATOM     10  H   UNL     1       8.161   0.638  20.529  0.00  0.00    +0.210 HD
ENDBRANCH   2   9
BRANCH   3  11
ATOM     11  O   UNL     1      10.927   0.466  23.874  0.00  0.00    -0.386 OA
ATOM     12  H   UNL     1      10.961  -0.507  23.855  0.00  0.00    +0.210 HD
ENDBRANCH   3  11
BRANCH   4  13
ATOM     13  O   UNL     1       7.314   0.903  23.398  0.00  0.00    -0.386 OA
ATOM     14  H   UNL     1       6.884   1.376  24.136  0.00  0.00    +0.210 HD
ENDBRANCH   4  13
BRANCH   5  15
ATOM     15  C   UNL     1       9.398  -2.110  24.493  0.00  0.00    +0.206 C 
BRANCH  15  16
ATOM     16  O   UNL     1       9.436  -3.428  23.968  0.00  0.00    -0.284 OA
BRANCH  16  17
ATOM     17  P   UNL     1       8.837  -4.667  25.016  0.00  0.00    +0.472 P 
ATOM     18  O   UNL     1       8.300  -5.777  25.952  0.00  0.00    -0.228 OA
BRANCH  17  19
ATOM     19  O   UNL     1      10.362  -5.245  25.090  0.00  0.00    -0.303 OA
ATOM     20  H   UNL     1      10.578  -5.539  24.182  0.00  0.00    +0.222 HD
ENDBRANCH  17  19
BRANCH  17  21
ATOM     21  O   UNL     1       8.354  -5.440  23.661  0.00  0.00    -0.303 OA
ATOM     22  H   UNL     1       7.946  -4.810  23.041  0.00  0.00    +0.222 HD
ENDBRANCH  17  21
ENDBRANCH  16  17
ENDBRANCH  15  16
ENDBRANCH   5  15
TORSDOF 9
ENDMDL
MODEL 3
REMARK VINA RESULT:      -5.7      2.787      5.885
REMARK  Name = 
REMARK  9 active torsions:
REMARK  status: ('A' for Active; 'I' for Inactive)
REMARK    1  A    between atoms: O_1  and  C_2
REMARK    2  A    between atoms: C_5  and  C_7
REMARK    3  A    between atoms: C_7  and  O_8
REMARK    4  A    between atoms: O_8  and  P_9
REMARK    5  A    between atoms: P_9  and  O_10
REMARK    6  A    between atoms: P_9  and  O_11
REMARK    7  A    between atoms: C_13  and  O_15
REMARK    8  A    between atoms: C_16  and  O_18
REMARK    9  A    between atoms: C_19  and  O_21
REMARK                            x       y       z     vdW  Elec       q    Type
REMARK                         _______ _______ _______ _____ _____    ______ ____
ROOT
ATOM      1  C   UNL     1       6.562  -4.855  25.728  0.00  0.00    +0.279 C 
ATOM      2  C   UNL     1       7.536  -4.708  26.921  0.00  0.00    +0.201 C 
ATOM      3  C   UNL     1       8.818  -3.981  26.477  0.00  0.00    +0.179 C 
ATOM      4  C   UNL     1       9.405  -4.663  25.228  0.00  0.00    +0.177 C 
ATOM      5  C   UNL     1       8.370  -4.756  24.097  0.00  0.00    +0.179 C 
ATOM      6  O   UNL     1       7.158  -5.382  24.547  0.00  0.00    -0.341 OA
ENDROOT
BRANCH   1   7
ATOM      7  O   UNL     1       5.978  -3.600  25.432  0.00  0.00    -0.365 OA
ATOM      8  H   UNL     1       5.036  -3.798  25.285  0.00  0.00    +0.213 HD
ENDBRANCH   1   7
BRANCH   2   9
ATOM      9  O   UNL     1       7.823  -5.978  27.520  0.00  0.00    -0.384 OA
ATOM     10  H   UNL     1       7.426  -5.964  28.421  0.00  0.00    +0.210 HD
ENDBRANCH   2   9
BRANCH   3  11
ATOM     11  O   UNL     1       8.597  -2.592  26.246  0.00  0.00    -0.386 OA
ATOM     12  H   UNL     1       9.280  -2.090  26.724  0.00  0.00    +0.210 HD
ENDBRANCH   3  11
BRANCH   4  13
ATOM     13  O   UNL     1       9.808  -5.997  25.611  0.00  0.00    -0.386 OA
ATOM     14  H   UNL     1      10.681  -6.157  25.204  0.00  0.00    +0.210 HD
ENDBRANCH   4  13
BRANCH   5  15
ATOM     15  C   UNL     1       8.099  -3.433  23.348  0.00  0.00    +0.206 C 
BRANCH  15  16
ATOM     16  O   UNL     1       9.281  -2.648  23.311  0.00  0.00    -0.284 OA
BRANCH  16  17
ATOM     17  P   UNL     1       9.120  -1.089  22.581  0.00  0.00    +0.472 P 
ATOM     18  O   UNL     1       8.977   0.307  21.927  0.00  0.00    -0.228 OA
BRANCH  17  19
ATOM     19  O   UNL     1      10.197  -1.581  21.456  0.00  0.00    -0.303 OA
ATOM     20  H   UNL     1      11.035  -1.728  21.939  0.00  0.00    +0.222 HD
ENDBRANCH  17  19
BRANCH  17  21
ATOM     21  O   UNL     1      10.177  -0.561  23.709  0.00  0.00    -0.303 OA
ATOM     22  H   UNL     1      10.292   0.403  23.637  0.00  0.00    +0.222 HD
ENDBRANCH  17  21
ENDBRANCH  16  17
ENDBRANCH  15  16
ENDBRANCH   5  15
TORSDOF 9
ENDMDL
MODEL 4
REMARK VINA RESULT:      -5.5      1.021      2.167
REMARK  Name = 
REMARK  9 active torsions:
REMARK  status: ('A' for Active; 'I' for Inactive)
REMARK    1  A    between atoms: O_1  and  C_2
REMARK    2  A    between atoms: C_5  and  C_7
REMARK    3  A    between atoms: C_7  and  O_8
REMARK    4  A    between atoms: O_8  and  P_9
REMARK    5  A    between atoms: P_9  and  O_10
REMARK    6  A    between atoms: P_9  and  O_11
REMARK    7  A    between atoms: C_13  and  O_15
REMARK    8  A    between atoms: C_16  and  O_18
REMARK    9  A    between atoms: C_19  and  O_21
REMARK                            x       y       z     vdW  Elec       q    Type
REMARK                         _______ _______ _______ _____ _____    ______ ____
ROOT
ATOM      1  C   UNL     1       7.641  -0.001  23.442  0.00  0.00    +0.279 C 
ATOM      2  C   UNL     1       8.493   0.908  22.524  0.00  0.00    +0.201 C 
ATOM      3  C   UNL     1       9.780   0.179  22.097  0.00  0.00    +0.179 C 
ATOM      4  C   UNL     1      10.508  -0.375  23.336  0.00  0.00    +0.177 C 
ATOM      5  C   UNL     1       9.586  -1.270  24.179  0.00  0.00    +0.179 C 
ATOM      6  O   UNL     1       8.365  -0.593  24.515  0.00  0.00    -0.341 OA
ENDROOT
BRANCH   1   7
ATOM      7  O   UNL     1       7.036  -1.022  22.672  0.00  0.00    -0.365 OA
ATOM      8  H   UNL     1       6.137  -1.103  23.038  0.00  0.00    +0.213 HD
ENDBRANCH   1   7
BRANCH   2   9
ATOM      9  O   UNL     1       8.775   2.165  23.152  0.00  0.00    -0.384 OA
ATOM     10  H   UNL     1       9.747   2.192  23.311  0.00  0.00    +0.210 HD
ENDBRANCH   2   9
BRANCH   3  11
ATOM     11  O   UNL     1       9.524  -0.854  21.149  0.00  0.00    -0.386 OA
ATOM     12  H   UNL     1       9.946  -1.671  21.467  0.00  0.00    +0.210 HD
ENDBRANCH   3  11
BRANCH   4  13
ATOM     13  O   UNL     1      10.928   0.755  24.133  0.00  0.00    -0.386 OA
ATOM     14  H   UNL     1      11.887   0.863  23.988  0.00  0.00    +0.210 HD
ENDBRANCH   4  13
BRANCH   5  15
ATOM     15  C   UNL     1       9.332  -2.677  23.597  0.00  0.00    +0.206 C 
BRANCH  15  16
ATOM     16  O   UNL     1      10.039  -3.648  24.354  0.00  0.00    -0.284 OA
BRANCH  16  17
ATOM     17  P   UNL     1       9.059  -4.731  25.281  0.00  0.00    +0.472 P 
ATOM     18  O   UNL     1       8.182  -5.702  26.108  0.00  0.00    -0.228 OA
BRANCH  17  19
ATOM     19  O   UNL     1      10.393  -5.649  25.489  0.00  0.00    -0.303 OA
ATOM     20  H   UNL     1      10.994  -5.414  24.754  0.00  0.00    +0.222 HD
ENDBRANCH  17  19
BRANCH  17  21
ATOM     21  O   UNL     1       8.566  -5.348  23.851  0.00  0.00    -0.303 OA
ATOM     22  H   UNL     1       8.459  -4.636  23.196  0.00  0.00    +0.222 HD
ENDBRANCH  17  21
ENDBRANCH  16  17
ENDBRANCH  15  16
ENDBRANCH   5  15
TORSDOF 9
ENDMDL
MODEL 5
REMARK VINA RESULT:      -5.4      1.716      3.112
REMARK  Name = 
REMARK  9 active torsions:
REMARK  status: ('A' for Active; 'I' for Inactive)
REMARK    1  A    between atoms: O_1  and  C_2
REMARK    2  A    between atoms: C_5  and  C_7
REMARK    3  A    between atoms: C_7  and  O_8
REMARK    4  A    between atoms: O_8  and  P_9
REMARK    5  A    between atoms: P_9  and  O_10
REMARK    6  A    between atoms: P_9  and  O_11
REMARK    7  A    between atoms: C_13  and  O_15
REMARK    8  A    between atoms: C_16  and  O_18
REMARK    9  A    between atoms: C_19  and  O_21
REMARK                            x       y       z     vdW  Elec       q    Type
REMARK                         _______ _______ _______ _____ _____    ______ ____
ROOT
ATOM      1  C   UNL     1       7.977  -1.888  22.206  0.00  0.00    +0.279 C 
ATOM      2  C   UNL     1       9.524  -1.926  22.209  0.00  0.00    +0.201 C 
ATOM      3  C   UNL     1      10.048  -2.174  23.636  0.00  0.00    +0.179 C 
ATOM      4  C   UNL     1       9.411  -1.169  24.614  0.00  0.00    +0.177 C 
ATOM      5  C   UNL     1       7.877  -1.210  24.544  0.00  0.00    +0.179 C 
ATOM      6  O   UNL     1       7.410  -1.039  23.197  0.00  0.00    -0.341 OA
ENDROOT
BRANCH   1   7
ATOM      7  O   UNL     1       7.468  -3.198  22.372  0.00  0.00    -0.365 OA
ATOM      8  H   UNL     1       8.067  -3.611  23.019  0.00  0.00    +0.213 HD
ENDBRANCH   1   7
BRANCH   2   9
ATOM      9  O   UNL     1      10.076  -0.733  21.638  0.00  0.00    -0.384 OA
ATOM     10  H   UNL     1      10.746  -1.019  20.974  0.00  0.00    +0.210 HD
ENDBRANCH   2   9
BRANCH   3  11
ATOM     11  O   UNL     1       9.829  -3.516  24.064  0.00  0.00    -0.386 OA
ATOM     12  H   UNL     1       9.018  -3.844  23.637  0.00  0.00    +0.210 HD
ENDBRANCH   3  11
BRANCH   4  13
ATOM     13  O   UNL     1       9.866   0.150  24.238  0.00  0.00    -0.386 OA
ATOM     14  H   UNL     1      10.795   0.222  24.529  0.00  0.00    +0.210 HD
ENDBRANCH   4  13
BRANCH   5  15
ATOM     15  C   UNL     1       7.223  -2.425  25.238  0.00  0.00    +0.206 C 
BRANCH  15  16
ATOM     16  O   UNL     1       8.099  -2.945  26.227  0.00  0.00    -0.284 OA
BRANCH  16  17
ATOM     17  P   UNL     1       7.793  -4.577  26.712  0.00  0.00    +0.472 P 
ATOM     18  O   UNL     1       7.520  -6.038  27.144  0.00  0.00    -0.228 OA
BRANCH  17  19
ATOM     19  O   UNL     1       9.411  -4.786  26.782  0.00  0.00    -0.303 OA
ATOM     20  H   UNL     1       9.763  -4.413  25.948  0.00  0.00    +0.222 HD
ENDBRANCH  17  19
BRANCH  17  21
ATOM     21  O   UNL     1       7.579  -4.902  25.126  0.00  0.00    -0.303 OA
ATOM     22  H   UNL     1       7.155  -5.772  25.015  0.00  0.00    +0.222 HD
ENDBRANCH  17  21
ENDBRANCH  16  17
ENDBRANCH  15  16
ENDBRANCH   5  15
TORSDOF 9
ENDMDL
MODEL 6
REMARK VINA RESULT:      -5.4      2.538      5.419
REMARK  Name = 
REMARK  9 active torsions:
REMARK  status: ('A' for Active; 'I' for Inactive)
REMARK    1  A    between atoms: O_1  and  C_2
REMARK    2  A    between atoms: C_5  and  C_7
REMARK    3  A    between atoms: C_7  and  O_8
REMARK    4  A    between atoms: O_8  and  P_9
REMARK    5  A    between atoms: P_9  and  O_10
REMARK    6  A    between atoms: P_9  and  O_11
REMARK    7  A    between atoms: C_13  and  O_15
REMARK    8  A    between atoms: C_16  and  O_18
REMARK    9  A    between atoms: C_19  and  O_21
REMARK                            x       y       z     vdW  Elec       q    Type
REMARK                         _______ _______ _______ _____ _____    ______ ____
ROOT
ATOM      1  C   UNL     1       7.900  -3.330  26.511  0.00  0.00    +0.279 C 
ATOM      2  C   UNL     1       8.809  -4.501  26.065  0.00  0.00    +0.201 C 
ATOM      3  C   UNL     1       9.062  -4.433  24.548  0.00  0.00    +0.179 C 
ATOM      4  C   UNL     1       7.724  -4.314  23.796  0.00  0.00    +0.177 C 
ATOM      5  C   UNL     1       6.897  -3.120  24.300  0.00  0.00    +0.179 C 
ATOM      6  O   UNL     1       6.725  -3.169  25.725  0.00  0.00    -0.341 OA
ENDROOT
BRANCH   1   7
ATOM      7  O   UNL     1       8.638  -2.122  26.493  0.00  0.00    -0.365 OA
ATOM      8  H   UNL     1       8.605  -1.830  25.565  0.00  0.00    +0.213 HD
ENDBRANCH   1   7
BRANCH   2   9
ATOM      9  O   UNL     1       8.260  -5.765  26.459  0.00  0.00    -0.384 OA
ATOM     10  H   UNL     1       7.314  -5.761  26.187  0.00  0.00    +0.210 HD
ENDBRANCH   2   9
BRANCH   3  11
ATOM     11  O   UNL     1       9.944  -3.369  24.197  0.00  0.00    -0.386 OA
ATOM     12  H   UNL     1       9.733  -2.601  24.755  0.00  0.00    +0.210 HD
ENDBRANCH   3  11
BRANCH   4  13
ATOM     13  O   UNL     1       6.985  -5.533  24.029  0.00  0.00    -0.386 OA
ATOM     14  H   UNL     1       7.153  -5.793  24.955  0.00  0.00    +0.210 HD
ENDBRANCH   4  13
BRANCH   5  15
ATOM     15  C   UNL     1       7.386  -1.737  23.819  0.00  0.00    +0.206 C 
BRANCH  15  16
ATOM     16  O   UNL     1       8.076  -1.871  22.586  0.00  0.00    -0.284 OA
BRANCH  16  17
ATOM     17  P   UNL     1       9.129  -0.561  22.174  0.00  0.00    +0.472 P 
ATOM     18  O   UNL     1      10.072   0.610  21.807  0.00  0.00    -0.228 OA
BRANCH  17  19
ATOM     19  O   UNL     1      10.216  -1.679  21.690  0.00  0.00    -0.303 OA
ATOM     20  H   UNL     1      10.709  -1.936  22.496  0.00  0.00    +0.222 HD
ENDBRANCH  17  19
BRANCH  17  21
ATOM     21  O   UNL     1       9.525  -0.513  23.758  0.00  0.00    -0.303 OA
ATOM     22  H   UNL     1       8.727  -0.614  24.307  0.00  0.00    +0.222 HD
ENDBRANCH  17  21
ENDBRANCH  16  17
ENDBRANCH  15  16
ENDBRANCH   5  15
TORSDOF 9
ENDMDL
MODEL 7
REMARK VINA RESULT:      -5.4      1.298      1.475
REMARK  Name = 
REMARK  9 active torsions:
REMARK  status: ('A' for Active; 'I' for Inactive)
REMARK    1  A    between atoms: O_1  and  C_2
REMARK    2  A    between atoms: C_5  and  C_7
REMARK    3  A    between atoms: C_7  and  O_8
REMARK    4  A    between atoms: O_8  and  P_9
REMARK    5  A    between atoms: P_9  and  O_10
REMARK    6  A    between atoms: P_9  and  O_11
REMARK    7  A    between atoms: C_13  and  O_15
REMARK    8  A    between atoms: C_16  and  O_18
REMARK    9  A    between atoms: C_19  and  O_21
REMARK                            x       y       z     vdW  Elec       q    Type
REMARK                         _______ _______ _______ _____ _____    ______ ____
ROOT
ATOM      1  C   UNL     1       9.533  -0.534  24.733  0.00  0.00    +0.279 C 
ATOM      2  C   UNL     1       8.731   0.466  23.866  0.00  0.00    +0.201 C 
ATOM      3  C   UNL     1       7.892  -0.288  22.819  0.00  0.00    +0.179 C 
ATOM      4  C   UNL     1       8.784  -1.271  22.038  0.00  0.00    +0.177 C 
ATOM      5  C   UNL     1       9.531  -2.226  22.980  0.00  0.00    +0.179 C 
ATOM      6  O   UNL     1      10.258  -1.505  23.987  0.00  0.00    -0.341 OA
ENDROOT
BRANCH   1   7
ATOM      7  O   UNL     1       8.659  -1.195  25.628  0.00  0.00    -0.365 OA
ATOM      8  H   UNL     1       9.158  -1.246  26.463  0.00  0.00    +0.213 HD
ENDBRANCH   1   7
BRANCH   2   9
ATOM      9  O   UNL     1       9.593   1.438  23.260  0.00  0.00    -0.384 OA
ATOM     10  H   UNL     1      10.514   1.106  23.363  0.00  0.00    +0.210 HD
ENDBRANCH   2   9
BRANCH   3  11
ATOM     11  O   UNL     1       6.779  -0.961  23.404  0.00  0.00    -0.386 OA
ATOM     12  H   UNL     1       6.250  -1.354  22.688  0.00  0.00    +0.210 HD
ENDBRANCH   3  11
BRANCH   4  13
ATOM     13  O   UNL     1       9.747  -0.488  21.297  0.00  0.00    -0.386 OA
ATOM     14  H   UNL     1       9.387   0.418  21.235  0.00  0.00    +0.210 HD
ENDBRANCH   4  13
BRANCH   5  15
ATOM     15  C   UNL     1       8.670  -3.358  23.582  0.00  0.00    +0.206 C 
BRANCH  15  16
ATOM     16  O   UNL     1       9.424  -4.079  24.545  0.00  0.00    -0.284 OA
BRANCH  16  17
ATOM     17  P   UNL     1       8.501  -5.031  25.655  0.00  0.00    +0.472 P 
ATOM     18  O   UNL     1       7.677  -5.884  26.650  0.00  0.00    -0.228 OA
BRANCH  17  19
ATOM     19  O   UNL     1       8.978  -3.999  26.828  0.00  0.00    -0.303 OA
ATOM     20  H   UNL     1       8.536  -3.149  26.629  0.00  0.00    +0.222 HD
ENDBRANCH  17  19
BRANCH  17  21
ATOM     21  O   UNL     1       9.781  -6.045  25.695  0.00  0.00    -0.303 OA
ATOM     22  H   UNL     1       9.480  -6.961  25.832  0.00  0.00    +0.222 HD
ENDBRANCH  17  21
ENDBRANCH  16  17
ENDBRANCH  15  16
ENDBRANCH   5  15
TORSDOF 9
ENDMDL
MODEL 8
REMARK VINA RESULT:      -5.4      2.128      2.700
REMARK  Name = 
REMARK  9 active torsions:
REMARK  status: ('A' for Active; 'I' for Inactive)
REMARK    1  A    between atoms: O_1  and  C_2
REMARK    2  A    between atoms: C_5  and  C_7
REMARK    3  A    between atoms: C_7  and  O_8
REMARK    4  A    between atoms: O_8  and  P_9
REMARK    5  A    between atoms: P_9  and  O_10
REMARK    6  A    between atoms: P_9  and  O_11
REMARK    7  A    between atoms: C_13  and  O_15
REMARK    8  A    between atoms: C_16  and  O_18
REMARK    9  A    between atoms: C_19  and  O_21
REMARK                            x       y       z     vdW  Elec       q    Type
REMARK                         _______ _______ _______ _____ _____    ______ ____
ROOT
ATOM      1  C   UNL     1      10.361   1.029  24.723  0.00  0.00    +0.279 C 
ATOM      2  C   UNL     1       9.301   2.085  24.329  0.00  0.00    +0.201 C 
ATOM      3  C   UNL     1       8.334   1.503  23.282  0.00  0.00    +0.179 C 
ATOM      4  C   UNL     1       9.127   0.897  22.110  0.00  0.00    +0.177 C 
ATOM      5  C   UNL     1      10.147  -0.144  22.599  0.00  0.00    +0.179 C 
ATOM      6  O   UNL     1      11.000   0.399  23.619  0.00  0.00    -0.341 OA
ENDROOT
BRANCH   1   7
ATOM      7  O   UNL     1       9.766   0.039  25.541  0.00  0.00    -0.365 OA
ATOM      8  H   UNL     1       8.810   0.136  25.384  0.00  0.00    +0.213 HD
ENDBRANCH   1   7
BRANCH   2   9
ATOM      9  O   UNL     1       9.916   3.296  23.873  0.00  0.00    -0.384 OA
ATOM     10  H   UNL     1       9.303   4.031  24.104  0.00  0.00    +0.210 HD
ENDBRANCH   2   9
BRANCH   3  11
ATOM     11  O   UNL     1       7.441   0.546  23.846  0.00  0.00    -0.386 OA
ATOM     12  H   UNL     1       6.532   0.882  23.749  0.00  0.00    +0.210 HD
ENDBRANCH   3  11
BRANCH   4  13
ATOM     13  O   UNL     1       9.831   1.977  21.457  0.00  0.00    -0.386 OA
ATOM     14  H   UNL     1       9.163   2.653  21.230  0.00  0.00    +0.210 HD
ENDBRANCH   4  13
BRANCH   5  15
ATOM     15  C   UNL     1       9.546  -1.507  23.005  0.00  0.00    +0.206 C 
BRANCH  15  16
ATOM     16  O   UNL     1       8.379  -1.768  22.240  0.00  0.00    -0.284 OA
BRANCH  16  17
ATOM     17  P   UNL     1       7.238  -2.848  22.964  0.00  0.00    +0.472 P 
ATOM     18  O   UNL     1       6.217  -3.814  23.612  0.00  0.00    -0.228 OA
BRANCH  17  19
ATOM     19  O   UNL     1       6.094  -1.718  22.680  0.00  0.00    -0.303 OA
ATOM     20  H   UNL     1       6.192  -1.472  21.738  0.00  0.00    +0.222 HD
ENDBRANCH  17  19
BRANCH  17  21
ATOM     21  O   UNL     1       7.773  -2.290  24.402  0.00  0.00    -0.303 OA
ATOM     22  H   UNL     1       8.612  -2.724  24.640  0.00  0.00    +0.222 HD
ENDBRANCH  17  21
ENDBRANCH  16  17
ENDBRANCH  15  16
ENDBRANCH   5  15
TORSDOF 9
ENDMDL
MODEL 9
REMARK VINA RESULT:      -5.3      2.659      5.452
REMARK  Name = 
REMARK  9 active torsions:
REMARK  status: ('A' for Active; 'I' for Inactive)
REMARK    1  A    between atoms: O_1  and  C_2
REMARK    2  A    between atoms: C_5  and  C_7
REMARK    3  A    between atoms: C_7  and  O_8
REMARK    4  A    between atoms: O_8  and  P_9
REMARK    5  A    between atoms: P_9  and  O_10
REMARK    6  A    between atoms: P_9  and  O_11
REMARK    7  A    between atoms: C_13  and  O_15
REMARK    8  A    between atoms: C_16  and  O_18
REMARK    9  A    between atoms: C_19  and  O_21
REMARK                            x       y       z     vdW  Elec       q    Type
REMARK                         _______ _______ _______ _____ _____    ______ ____
ROOT
ATOM      1  C   UNL     1      10.067  -0.703  24.143  0.00  0.00    +0.279 C 
ATOM      2  C   UNL     1      10.186  -1.952  23.235  0.00  0.00    +0.201 C 
ATOM      3  C   UNL     1       9.197  -1.853  22.060  0.00  0.00    +0.179 C 
ATOM      4  C   UNL     1       7.781  -1.553  22.587  0.00  0.00    +0.177 C 
ATOM      5  C   UNL     1       7.762  -0.295  23.468  0.00  0.00    +0.179 C 
ATOM      6  O   UNL     1       8.735  -0.380  24.522  0.00  0.00    -0.341 OA
ENDROOT
BRANCH   1   7
ATOM      7  O   UNL     1      10.649   0.413  23.495  0.00  0.00    -0.365 OA
ATOM      8  H   UNL     1      11.115   0.890  24.205  0.00  0.00    +0.213 HD
ENDBRANCH   1   7
BRANCH   2   9
ATOM      9  O   UNL     1      10.006  -3.160  23.985  0.00  0.00    -0.384 OA
ATOM     10  H   UNL     1       9.669  -2.897  24.872  0.00  0.00    +0.210 HD
ENDBRANCH   2   9
BRANCH   3  11
ATOM     11  O   UNL     1       9.601  -0.883  21.096  0.00  0.00    -0.386 OA
ATOM     12  H   UNL     1       9.505  -1.276  20.211  0.00  0.00    +0.210 HD
ENDBRANCH   3  11
BRANCH   4  13
ATOM     13  O   UNL     1       7.362  -2.689  23.375  0.00  0.00    -0.386 OA
ATOM     14  H   UNL     1       7.993  -3.411  23.189  0.00  0.00    +0.210 HD
ENDBRANCH   4  13
BRANCH   5  15
ATOM     15  C   UNL     1       7.849   1.043  22.701  0.00  0.00    +0.206 C 
BRANCH  15  16
ATOM     16  O   UNL     1       7.403   2.105  23.531  0.00  0.00    -0.284 OA
BRANCH  16  17
ATOM     17  P   UNL     1       8.508   3.424  23.713  0.00  0.00    +0.472 P 
ATOM     18  O   UNL     1       9.497   4.603  23.876  0.00  0.00    -0.228 OA
BRANCH  17  19
ATOM     19  O   UNL     1       9.361   2.789  22.473  0.00  0.00    -0.303 OA
ATOM     20  H   UNL     1       9.116   3.317  21.686  0.00  0.00    +0.222 HD
ENDBRANCH  17  19
BRANCH  17  21
ATOM     21  O   UNL     1       9.178   2.564  24.929  0.00  0.00    -0.303 OA
ATOM     22  H   UNL     1       9.340   1.647  24.643  0.00  0.00    +0.222 HD
ENDBRANCH  17  21
ENDBRANCH  16  17
ENDBRANCH  15  16
ENDBRANCH   5  15
TORSDOF 9
ENDMDL
