MODEL 1
REMARK VINA RESULT:      -4.7      0.000      0.000
REMARK  Name = 
REMARK  14 active torsions:
REMARK  status: ('A' for Active; 'I' for Inactive)
REMARK    1  A    between atoms: C_2  and  N_3
REMARK    2  A    between atoms: C_2  and  C_4
REMARK    3  A    between atoms: C_2  and  C_15
REMARK    4  A    between atoms: C_4  and  S_5
REMARK    5  A    between atoms: S_5  and  C_6
REMARK    6  A    between atoms: C_6  and  C_7
REMARK    7  A    between atoms: C_7  and  C_8
REMARK    8  A    between atoms: C_8  and  C_9
REMARK    9  A    between atoms: C_9  and  C_10
REMARK   10  A    between atoms: C_10  and  C_11
REMARK   11  A    between atoms: C_11  and  C_12
REMARK   12  A    between atoms: C_12  and  C_13
REMARK   13  A    between atoms: C_13  and  C_14
REMARK   14  A    between atoms: C_15  and  O_16
REMARK                            x       y       z     vdW  Elec       q    Type
REMARK                         _______ _______ _______ _____ _____    ______ ____
ROOT
ATOM      1  S   UNK     1       8.173  -2.991  23.325  0.00  0.00    -0.159 S 
ENDROOT
BRANCH   1   2
ATOM      2  C   UNK     1       8.157  -4.634  24.137  0.00  0.00    +0.099 C 
BRANCH   2   3
ATOM      3  C   UNK     1       9.043  -4.661  25.394  0.00  0.00    +0.170 C 
BRANCH   3   4
ATOM      4  N   UNK     1      10.080  -5.717  25.317  0.00  0.00    -0.318 NA
ATOM      5  H   UNK     1      10.663  -5.651  24.486  0.00  0.00    +0.119 HD
ATOM      6  H   UNK     1      10.609  -5.798  26.186  0.00  0.00    +0.119 HD
ENDBRANCH   3   4
BRANCH   3   7
ATOM      7  C   UNK     1       8.167  -4.765  26.650  0.00  0.00    +0.323 C 
ATOM      8  O   UNK     1       7.565  -3.822  27.142  0.00  0.00    -0.249 OA
BRANCH   7   9
ATOM      9  O   UNK     1       8.116  -6.011  27.187  0.00  0.00    -0.480 OA
ATOM     10  H   UNK     1       8.431  -5.995  28.109  0.00  0.00    +0.295 HD
ENDBRANCH   7   9
ENDBRANCH   3   7
ENDBRANCH   2   3
ENDBRANCH   1   2
BRANCH   1  11
ATOM     11  C   UNK     1       9.874  -2.481  23.735  0.00  0.00    +0.069 C 
BRANCH  11  12
ATOM     12  C   UNK     1      10.376  -1.558  22.626  0.00  0.00    +0.011 C 
BRANCH  12  13
ATOM     13  C   UNK     1       9.236  -1.011  21.766  0.00  0.00    +0.001 C 
BRANCH  13  14
ATOM     14  C   UNK     1       9.491   0.460  21.428  0.00  0.00    +0.000 C 
BRANCH  14  15
ATOM     15  C   UNK     1       8.571   1.395  22.211  0.00  0.00    +0.000 C 
BRANCH  15  16
ATOM     16  C   UNK     1       9.380   2.350  23.090  0.00  0.00    -0.000 C 
BRANCH  16  17
ATOM     17  C   UNK     1       9.589   1.774  24.490  0.00  0.00    -0.000 C 
BRANCH  17  18
ATOM     18  C   UNK     1       8.289   1.205  25.058  0.00  0.00    -0.003 C 
ATOM     19  C   UNK     1       8.556   0.005  25.953  0.00  0.00    +0.004 C 
ENDBRANCH  17  18
ENDBRANCH  16  17
ENDBRANCH  15  16
ENDBRANCH  14  15
ENDBRANCH  13  14
ENDBRANCH  12  13
ENDBRANCH  11  12
ENDBRANCH   1  11
TORSDOF 13
ENDMDL
MODEL 2
REMARK VINA RESULT:      -4.6      1.844      2.835
REMARK  Name = 
REMARK  14 active torsions:
REMARK  status: ('A' for Active; 'I' for Inactive)
REMARK    1  A    between atoms: C_2  and  N_3
REMARK    2  A    between atoms: C_2  and  C_4
REMARK    3  A    between atoms: C_2  and  C_15
REMARK    4  A    between atoms: C_4  and  S_5
REMARK    5  A    between atoms: S_5  and  C_6
REMARK    6  A    between atoms: C_6  and  C_7
REMARK    7  A    between atoms: C_7  and  C_8
REMARK    8  A    between atoms: C_8  and  C_9
REMARK    9  A    between atoms: C_9  and  C_10
REMARK   10  A    between atoms: C_10  and  C_11
REMARK   11  A    between atoms: C_11  and  C_12
REMARK   12  A    between atoms: C_12  and  C_13
REMARK   13  A    between atoms: C_13  and  C_14
REMARK   14  A    between atoms: C_15  and  O_16
REMARK                            x       y       z     vdW  Elec       q    Type
REMARK                         _______ _______ _______ _____ _____    ______ ____
ROOT
ATOM      1  S   UNK     1       6.310  -3.387  24.635  0.00  0.00    -0.159 S 
ENDROOT
BRANCH   1   2
ATOM      2  C   UNK     1       7.306  -3.828  26.109  0.00  0.00    +0.099 C 
BRANCH   2   3
ATOM      3  C   UNK     1       7.745  -5.302  26.083  0.00  0.00    +0.170 C 
BRANCH   3   4
ATOM      4  N   UNK     1       7.856  -5.870  27.447  0.00  0.00    -0.318 NA
ATOM      5  H   UNK     1       7.646  -5.199  28.182  0.00  0.00    +0.119 HD
ATOM      6  H   UNK     1       7.350  -6.751  27.537  0.00  0.00    +0.119 HD
ENDBRANCH   3   4
BRANCH   3   7
ATOM      7  C   UNK     1       9.034  -5.449  25.262  0.00  0.00    +0.323 C 
ATOM      8  O   UNK     1       9.057  -5.583  24.047  0.00  0.00    -0.249 OA
BRANCH   7   9
ATOM      9  O   UNK     1      10.170  -5.422  26.005  0.00  0.00    -0.480 OA
ATOM     10  H   UNK     1      10.007  -4.975  26.855  0.00  0.00    +0.295 HD
ENDBRANCH   7   9
ENDBRANCH   3   7
ENDBRANCH   2   3
ENDBRANCH   1   2
BRANCH   1  11
ATOM     11  C   UNK     1       7.143  -1.832  24.176  0.00  0.00    +0.069 C 
BRANCH  11  12
ATOM     12  C   UNK     1       8.389  -2.179  23.364  0.00  0.00    +0.011 C 
BRANCH  12  13
ATOM     13  C   UNK     1       9.679  -1.815  24.098  0.00  0.00    +0.001 C 
BRANCH  13  14
ATOM     14  C   UNK     1       9.434  -0.630  25.037  0.00  0.00    +0.000 C 
BRANCH  14  15
ATOM     15  C   UNK     1      10.567   0.392  24.976  0.00  0.00    +0.000 C 
BRANCH  15  16
ATOM     16  C   UNK     1      10.583   1.112  23.627  0.00  0.00    -0.000 C 
BRANCH  16  17
ATOM     17  C   UNK     1       9.427   2.107  23.515  0.00  0.00    -0.000 C 
BRANCH  17  18
ATOM     18  C   UNK     1       8.776   2.051  22.134  0.00  0.00    -0.003 C 
ATOM     19  C   UNK     1       9.191   0.800  21.378  0.00  0.00    +0.004 C 
ENDBRANCH  17  18
ENDBRANCH  16  17
ENDBRANCH  15  16
ENDBRANCH  14  15
ENDBRANCH  13  14
ENDBRANCH  12  13
ENDBRANCH  11  12
ENDBRANCH   1  11
TORSDOF 13
ENDMDL
MODEL 3
REMARK VINA RESULT:      -4.6      2.064      2.834
REMARK  Name = 
REMARK  14 active torsions:
REMARK  status: ('A' for Active; 'I' for Inactive)
REMARK    1  A    between atoms: C_2  and  N_3
REMARK    2  A    between atoms: C_2  and  C_4
REMARK    3  A    between atoms: C_2  and  C_15
REMARK    4  A    between atoms: C_4  and  S_5
REMARK    5  A    between atoms: S_5  and  C_6
REMARK    6  A    between atoms: C_6  and  C_7
REMARK    7  A    between atoms: C_7  and  C_8
REMARK    8  A    between atoms: C_8  and  C_9
REMARK    9  A    between atoms: C_9  and  C_10
REMARK   10  A    between atoms: C_10  and  C_11
REMARK   11  A    between atoms: C_11  and  C_12
REMARK   12  A    between atoms: C_12  and  C_13
REMARK   13  A    between atoms: C_13  and  C_14
REMARK   14  A    between atoms: C_15  and  O_16
REMARK                            x       y       z     vdW  Elec       q    Type
REMARK                         _______ _______ _______ _____ _____    ______ ____
ROOT
ATOM      1  S   UNK     1       7.381  -2.104  26.282  0.00  0.00    -0.159 S 
ENDROOT
BRANCH   1   2
ATOM      2  C   UNK     1       8.596  -3.436  26.612  0.00  0.00    +0.099 C 
BRANCH   2   3
ATOM      3  C   UNK     1       8.077  -4.810  26.156  0.00  0.00    +0.170 C 
BRANCH   3   4
ATOM      4  N   UNK     1       8.011  -5.776  27.278  0.00  0.00    -0.318 NA
ATOM      5  H   UNK     1       8.042  -5.334  28.194  0.00  0.00    +0.119 HD
ATOM      6  H   UNK     1       7.243  -6.440  27.167  0.00  0.00    +0.119 HD
ENDBRANCH   3   4
BRANCH   3   7
ATOM      7  C   UNK     1       8.911  -5.318  24.971  0.00  0.00    +0.323 C 
ATOM      8  O   UNK     1       8.535  -5.283  23.809  0.00  0.00    -0.249 OA
BRANCH   7   9
ATOM      9  O   UNK     1      10.121  -5.823  25.322  0.00  0.00    -0.480 OA
ATOM     10  H   UNK     1      10.585  -5.206  25.916  0.00  0.00    +0.295 HD
ENDBRANCH   7   9
ENDBRANCH   3   7
ENDBRANCH   2   3
ENDBRANCH   1   2
BRANCH   1  11
ATOM     11  C   UNK     1       7.814  -1.737  24.551  0.00  0.00    +0.069 C 
BRANCH  11  12
ATOM     12  C   UNK     1       9.296  -1.369  24.496  0.00  0.00    +0.011 C 
BRANCH  12  13
ATOM     13  C   UNK     1       9.598  -0.072  25.246  0.00  0.00    +0.001 C 
BRANCH  13  14
ATOM     14  C   UNK     1      10.904   0.541  24.731  0.00  0.00    +0.000 C 
BRANCH  14  15
ATOM     15  C   UNK     1      10.656   1.789  23.886  0.00  0.00    +0.000 C 
BRANCH  15  16
ATOM     16  C   UNK     1       9.371   2.497  24.318  0.00  0.00    -0.000 C 
BRANCH  16  17
ATOM     17  C   UNK     1       8.651   3.119  23.122  0.00  0.00    -0.000 C 
BRANCH  17  18
ATOM     18  C   UNK     1       8.388   2.084  22.029  0.00  0.00    -0.003 C 
ATOM     19  C   UNK     1       7.202   1.199  22.381  0.00  0.00    +0.004 C 
ENDBRANCH  17  18
ENDBRANCH  16  17
ENDBRANCH  15  16
ENDBRANCH  14  15
ENDBRANCH  13  14
ENDBRANCH  12  13
ENDBRANCH  11  12
ENDBRANCH   1  11
TORSDOF 13
ENDMDL
MODEL 4
REMARK VINA RESULT:      -4.5      1.432      1.786
REMARK  Name = 
REMARK  14 active torsions:
REMARK  status: ('A' for Active; 'I' for Inactive)
REMARK    1  A    between atoms: C_2  and  N_3
REMARK    2  A    between atoms: C_2  and  C_4
REMARK    3  A    between atoms: C_2  and  C_15
REMARK    4  A    between atoms: C_4  and  S_5
REMARK    5  A    between atoms: S_5  and  C_6
REMARK    6  A    between atoms: C_6  and  C_7
REMARK    7  A    between atoms: C_7  and  C_8
REMARK    8  A    between atoms: C_8  and  C_9
REMARK    9  A    between atoms: C_9  and  C_10
REMARK   10  A    between atoms: C_10  and  C_11
REMARK   11  A    between atoms: C_11  and  C_12
REMARK   12  A    between atoms: C_12  and  C_13
REMARK   13  A    between atoms: C_13  and  C_14
REMARK   14  A    between atoms: C_15  and  O_16
REMARK                            x       y       z     vdW  Elec       q    Type
REMARK                         _______ _______ _______ _____ _____    ______ ____
ROOT
ATOM      1  S   UNK     1       8.461  -1.984  25.986  0.00  0.00    -0.159 S 
ENDROOT
BRANCH   1   2
ATOM      2  C   UNK     1       8.839  -3.510  25.044  0.00  0.00    +0.099 C 
BRANCH   2   3
ATOM      3  C   UNK     1       9.138  -4.698  25.975  0.00  0.00    +0.170 C 
BRANCH   3   4
ATOM      4  N   UNK     1      10.131  -5.627  25.385  0.00  0.00    -0.318 NA
ATOM      5  H   UNK     1      10.363  -6.409  25.993  0.00  0.00    +0.119 HD
ATOM      6  H   UNK     1       9.880  -5.903  24.435  0.00  0.00    +0.119 HD
ENDBRANCH   3   4
BRANCH   3   7
ATOM      7  C   UNK     1       7.828  -5.392  26.375  0.00  0.00    +0.323 C 
ATOM      8  O   UNK     1       6.851  -5.477  25.645  0.00  0.00    -0.249 OA
BRANCH   7   9
ATOM      9  O   UNK     1       7.836  -5.910  27.629  0.00  0.00    -0.480 OA
ATOM     10  H   UNK     1       7.003  -6.384  27.805  0.00  0.00    +0.295 HD
ENDBRANCH   7   9
ENDBRANCH   3   7
ENDBRANCH   2   3
ENDBRANCH   1   2
BRANCH   1  11
ATOM     11  C   UNK     1       9.193  -0.756  24.856  0.00  0.00    +0.069 C 
BRANCH  11  12
ATOM     12  C   UNK     1       8.917  -1.203  23.422  0.00  0.00    +0.011 C 
BRANCH  12  13
ATOM     13  C   UNK     1       9.965  -0.678  22.440  0.00  0.00    +0.001 C 
BRANCH  13  14
ATOM     14  C   UNK     1       9.293   0.175  21.360  0.00  0.00    +0.000 C 
BRANCH  14  15
ATOM     15  C   UNK     1       9.121   1.626  21.803  0.00  0.00    +0.000 C 
BRANCH  15  16
ATOM     16  C   UNK     1      10.444   2.207  22.303  0.00  0.00    -0.000 C 
BRANCH  16  17
ATOM     17  C   UNK     1      10.277   2.872  23.669  0.00  0.00    -0.000 C 
BRANCH  17  18
ATOM     18  C   UNK     1       8.838   2.761  24.171  0.00  0.00    -0.003 C 
ATOM     19  C   UNK     1       8.449   3.971  25.005  0.00  0.00    +0.004 C 
ENDBRANCH  17  18
ENDBRANCH  16  17
ENDBRANCH  15  16
ENDBRANCH  14  15
ENDBRANCH  13  14
ENDBRANCH  12  13
ENDBRANCH  11  12
ENDBRANCH   1  11
TORSDOF 13
ENDMDL
MODEL 5
REMARK VINA RESULT:      -4.5      1.835      2.085
REMARK  Name = 
REMARK  14 active torsions:
REMARK  status: ('A' for Active; 'I' for Inactive)
REMARK    1  A    between atoms: C_2  and  N_3
REMARK    2  A    between atoms: C_2  and  C_4
REMARK    3  A    between atoms: C_2  and  C_15
REMARK    4  A    between atoms: C_4  and  S_5
REMARK    5  A    between atoms: S_5  and  C_6
REMARK    6  A    between atoms: C_6  and  C_7
REMARK    7  A    between atoms: C_7  and  C_8
REMARK    8  A    between atoms: C_8  and  C_9
REMARK    9  A    between atoms: C_9  and  C_10
REMARK   10  A    between atoms: C_10  and  C_11
REMARK   11  A    between atoms: C_11  and  C_12
REMARK   12  A    between atoms: C_12  and  C_13
REMARK   13  A    between atoms: C_13  and  C_14
REMARK   14  A    between atoms: C_15  and  O_16
REMARK                            x       y       z     vdW  Elec       q    Type
REMARK                         _______ _______ _______ _____ _____    ______ ____
ROOT
ATOM      1  S   UNK     1       6.166  -3.648  23.714  0.00  0.00    -0.159 S 
ENDROOT
BRANCH   1   2
ATOM      2  C   UNK     1       7.028  -3.702  25.331  0.00  0.00    +0.099 C 
BRANCH   2   3
ATOM      3  C   UNK     1       7.654  -5.081  25.600  0.00  0.00    +0.170 C 
BRANCH   3   4
ATOM      4  N   UNK     1       7.054  -5.739  26.784  0.00  0.00    -0.318 NA
ATOM      5  H   UNK     1       7.713  -6.315  27.303  0.00  0.00    +0.119 HD
ATOM      6  H   UNK     1       6.535  -5.081  27.366  0.00  0.00    +0.119 HD
ENDBRANCH   3   4
BRANCH   3   7
ATOM      7  C   UNK     1       9.181  -4.953  25.690  0.00  0.00    +0.323 C 
ATOM      8  O   UNK     1       9.926  -4.979  24.722  0.00  0.00    -0.249 OA
BRANCH   7   9
ATOM      9  O   UNK     1       9.651  -4.811  26.956  0.00  0.00    -0.480 OA
ATOM     10  H   UNK     1       9.316  -3.984  27.349  0.00  0.00    +0.295 HD
ENDBRANCH   7   9
ENDBRANCH   3   7
ENDBRANCH   2   3
ENDBRANCH   1   2
BRANCH   1  11
ATOM     11  C   UNK     1       7.594  -3.306  22.635  0.00  0.00    +0.069 C 
BRANCH  11  12
ATOM     12  C   UNK     1       8.055  -1.872  22.890  0.00  0.00    +0.011 C 
BRANCH  12  13
ATOM     13  C   UNK     1       9.438  -1.594  22.301  0.00  0.00    +0.001 C 
BRANCH  13  14
ATOM     14  C   UNK     1       9.356  -0.456  21.280  0.00  0.00    +0.000 C 
BRANCH  14  15
ATOM     15  C   UNK     1       8.905   0.855  21.921  0.00  0.00    +0.000 C 
BRANCH  15  16
ATOM     16  C   UNK     1      10.089   1.801  22.124  0.00  0.00    -0.000 C 
BRANCH  16  17
ATOM     17  C   UNK     1      10.317   2.094  23.607  0.00  0.00    -0.000 C 
BRANCH  17  18
ATOM     18  C   UNK     1      11.070   0.955  24.291  0.00  0.00    -0.003 C 
ATOM     19  C   UNK     1      10.169   0.194  25.250  0.00  0.00    +0.004 C 
ENDBRANCH  17  18
ENDBRANCH  16  17
ENDBRANCH  15  16
ENDBRANCH  14  15
ENDBRANCH  13  14
ENDBRANCH  12  13
ENDBRANCH  11  12
ENDBRANCH   1  11
TORSDOF 13
ENDMDL
MODEL 6
REMARK VINA RESULT:      -4.5      1.152      2.138
REMARK  Name = 
REMARK  14 active torsions:
REMARK  status: ('A' for Active; 'I' for Inactive)
REMARK    1  A    between atoms: C_2  and  N_3
REMARK    2  A    between atoms: C_2  and  C_4
REMARK    3  A    between atoms: C_2  and  C_15
REMARK    4  A    between atoms: C_4  and  S_5
REMARK    5  A    between atoms: S_5  and  C_6
REMARK    6  A    between atoms: C_6  and  C_7
REMARK    7  A    between atoms: C_7  and  C_8
REMARK    8  A    between atoms: C_8  and  C_9
REMARK    9  A    between atoms: C_9  and  C_10
REMARK   10  A    between atoms: C_10  and  C_11
REMARK   11  A    between atoms: C_11  and  C_12
REMARK   12  A    between atoms: C_12  and  C_13
REMARK   13  A    between atoms: C_13  and  C_14
REMARK   14  A    between atoms: C_15  and  O_16
REMARK                            x       y       z     vdW  Elec       q    Type
REMARK                         _______ _______ _______ _____ _____    ______ ____
ROOT
ATOM      1  S   UNK     1       6.857  -3.575  23.842  0.00  0.00    -0.159 S 
ENDROOT
BRANCH   1   2
ATOM      2  C   UNK     1       7.984  -4.990  24.138  0.00  0.00    +0.099 C 
BRANCH   2   3
ATOM      3  C   UNK     1       8.953  -4.717  25.301  0.00  0.00    +0.170 C 
BRANCH   3   4
ATOM      4  N   UNK     1      10.160  -5.574  25.228  0.00  0.00    -0.318 NA
ATOM      5  H   UNK     1      10.584  -5.752  26.135  0.00  0.00    +0.119 HD
ATOM      6  H   UNK     1       9.997  -6.418  24.676  0.00  0.00    +0.119 HD
ENDBRANCH   3   4
BRANCH   3   7
ATOM      7  C   UNK     1       8.210  -4.835  26.640  0.00  0.00    +0.323 C 
ATOM      8  O   UNK     1       7.752  -3.881  27.251  0.00  0.00    -0.249 OA
BRANCH   7   9
ATOM      9  O   UNK     1       8.104  -6.105  27.104  0.00  0.00    -0.480 OA
ATOM     10  H   UNK     1       7.305  -6.531  26.745  0.00  0.00    +0.295 HD
ENDBRANCH   7   9
ENDBRANCH   3   7
ENDBRANCH   2   3
ENDBRANCH   1   2
BRANCH   1  11
ATOM     11  C   UNK     1       7.544  -2.983  22.261  0.00  0.00    +0.069 C 
BRANCH  11  12
ATOM     12  C   UNK     1       8.256  -1.656  22.516  0.00  0.00    +0.011 C 
BRANCH  12  13
ATOM     13  C   UNK     1       9.725  -1.850  22.895  0.00  0.00    +0.001 C 
BRANCH  13  14
ATOM     14  C   UNK     1      10.075  -0.981  24.106  0.00  0.00    +0.000 C 
BRANCH  14  15
ATOM     15  C   UNK     1      10.734   0.335  23.694  0.00  0.00    +0.000 C 
BRANCH  15  16
ATOM     16  C   UNK     1      10.152   1.508  24.483  0.00  0.00    -0.000 C 
BRANCH  16  17
ATOM     17  C   UNK     1       9.043   2.209  23.697  0.00  0.00    -0.000 C 
BRANCH  17  18
ATOM     18  C   UNK     1       9.204   1.993  22.193  0.00  0.00    -0.003 C 
ATOM     19  C   UNK     1       7.856   1.986  21.489  0.00  0.00    +0.004 C 
ENDBRANCH  17  18
ENDBRANCH  16  17
ENDBRANCH  15  16
ENDBRANCH  14  15
ENDBRANCH  13  14
ENDBRANCH  12  13
ENDBRANCH  11  12
ENDBRANCH   1  11
TORSDOF 13
ENDMDL
MODEL 7
REMARK VINA RESULT:      -4.4      1.333      2.203
REMARK  Name = 
REMARK  14 active torsions:
REMARK  status: ('A' for Active; 'I' for Inactive)
REMARK    1  A    between atoms: C_2  and  N_3
REMARK    2  A    between atoms: C_2  and  C_4
REMARK    3  A    between atoms: C_2  and  C_15
REMARK    4  A    between atoms: C_4  and  S_5
REMARK    5  A    between atoms: S_5  and  C_6
REMARK    6  A    between atoms: C_6  and  C_7
REMARK    7  A    between atoms: C_7  and  C_8
REMARK    8  A    between atoms: C_8  and  C_9
REMARK    9  A    between atoms: C_9  and  C_10
REMARK   10  A    between atoms: C_10  and  C_11
REMARK   11  A    between atoms: C_11  and  C_12
REMARK   12  A    between atoms: C_12  and  C_13
REMARK   13  A    between atoms: C_13  and  C_14
REMARK   14  A    between atoms: C_15  and  O_16
REMARK                            x       y       z     vdW  Elec       q    Type
REMARK                         _______ _______ _______ _____ _____    ______ ____
ROOT
ATOM      1  S   UNK     1       7.868  -2.167  24.162  0.00  0.00    -0.159 S 
ENDROOT
BRANCH   1   2
ATOM      2  C   UNK     1       8.493  -3.882  23.989  0.00  0.00    +0.099 C 
BRANCH   2   3
ATOM      3  C   UNK     1       8.996  -4.445  25.328  0.00  0.00    +0.170 C 
BRANCH   3   4
ATOM      4  N   UNK     1      10.248  -5.223  25.166  0.00  0.00    -0.318 NA
ATOM      5  H   UNK     1      10.183  -5.946  24.454  0.00  0.00    +0.119 HD
ATOM      6  H   UNK     1      11.064  -4.618  25.067  0.00  0.00    +0.119 HD
ENDBRANCH   3   4
BRANCH   3   7
ATOM      7  C   UNK     1       7.877  -5.241  26.015  0.00  0.00    +0.323 C 
ATOM      8  O   UNK     1       6.778  -5.439  25.517  0.00  0.00    -0.249 OA
BRANCH   7   9
ATOM      9  O   UNK     1       8.206  -5.713  27.244  0.00  0.00    -0.480 OA
ATOM     10  H   UNK     1       8.061  -6.675  27.287  0.00  0.00    +0.295 HD
ENDBRANCH   7   9
ENDBRANCH   3   7
ENDBRANCH   2   3
ENDBRANCH   1   2
BRANCH   1  11
ATOM     11  C   UNK     1       8.761  -1.683  25.674  0.00  0.00    +0.069 C 
BRANCH  11  12
ATOM     12  C   UNK     1       9.348  -0.290  25.457  0.00  0.00    +0.011 C 
BRANCH  12  13
ATOM     13  C   UNK     1      10.019  -0.150  24.091  0.00  0.00    +0.001 C 
BRANCH  13  14
ATOM     14  C   UNK     1      10.534   1.279  23.901  0.00  0.00    +0.000 C 
BRANCH  14  15
ATOM     15  C   UNK     1      10.367   1.761  22.461  0.00  0.00    +0.000 C 
BRANCH  15  16
ATOM     16  C   UNK     1       9.267   0.977  21.746  0.00  0.00    -0.000 C 
BRANCH  16  17
ATOM     17  C   UNK     1       7.985   1.801  21.628  0.00  0.00    -0.000 C 
BRANCH  17  18
ATOM     18  C   UNK     1       6.889   1.262  22.546  0.00  0.00    -0.003 C 
ATOM     19  C   UNK     1       6.849   2.020  23.863  0.00  0.00    +0.004 C 
ENDBRANCH  17  18
ENDBRANCH  16  17
ENDBRANCH  15  16
ENDBRANCH  14  15
ENDBRANCH  13  14
ENDBRANCH  12  13
ENDBRANCH  11  12
ENDBRANCH   1  11
TORSDOF 13
ENDMDL
MODEL 8
REMARK VINA RESULT:      -4.2      2.278      3.793
REMARK  Name = 
REMARK  14 active torsions:
REMARK  status: ('A' for Active; 'I' for Inactive)
REMARK    1  A    between atoms: C_2  and  N_3
REMARK    2  A    between atoms: C_2  and  C_4
REMARK    3  A    between atoms: C_2  and  C_15
REMARK    4  A    between atoms: C_4  and  S_5
REMARK    5  A    between atoms: S_5  and  C_6
REMARK    6  A    between atoms: C_6  and  C_7
REMARK    7  A    between atoms: C_7  and  C_8
REMARK    8  A    between atoms: C_8  and  C_9
REMARK    9  A    between atoms: C_9  and  C_10
REMARK   10  A    between atoms: C_10  and  C_11
REMARK   11  A    between atoms: C_11  and  C_12
REMARK   12  A    between atoms: C_12  and  C_13
REMARK   13  A    between atoms: C_13  and  C_14
REMARK   14  A    between atoms: C_15  and  O_16
REMARK                            x       y       z     vdW  Elec       q    Type
REMARK                         _______ _______ _______ _____ _____    ______ ____
ROOT
ATOM      1  S   UNK     1       6.023  -4.126  25.464  0.00  0.00    -0.159 S 
ENDROOT
BRANCH   1   2
ATOM      2  C   UNK     1       5.598  -5.423  26.688  0.00  0.00    +0.099 C 
BRANCH   2   3
ATOM      3  C   UNK     1       6.615  -5.478  27.840  0.00  0.00    +0.170 C 
BRANCH   3   4
ATOM      4  N   UNK     1       7.966  -5.863  27.367  0.00  0.00    -0.318 NA
ATOM      5  H   UNK     1       8.660  -5.129  27.488  0.00  0.00    +0.119 HD
ATOM      6  H   UNK     1       8.256  -6.770  27.736  0.00  0.00    +0.119 HD
ENDBRANCH   3   4
BRANCH   3   7
ATOM      7  C   UNK     1       6.087  -6.384  28.961  0.00  0.00    +0.323 C 
ATOM      8  O   UNK     1       6.217  -6.142  30.152  0.00  0.00    -0.249 OA
BRANCH   7   9
ATOM      9  O   UNK     1       5.456  -7.501  28.519  0.00  0.00    -0.480 OA
ATOM     10  H   UNK     1       6.041  -8.008  27.927  0.00  0.00    +0.295 HD
ENDBRANCH   7   9
ENDBRANCH   3   7
ENDBRANCH   2   3
ENDBRANCH   1   2
BRANCH   1  11
ATOM     11  C   UNK     1       6.594  -5.189  24.099  0.00  0.00    +0.069 C 
BRANCH  11  12
ATOM     12  C   UNK     1       8.002  -4.747  23.705  0.00  0.00    +0.011 C 
BRANCH  12  13
ATOM     13  C   UNK     1       8.638  -3.836  24.755  0.00  0.00    +0.001 C 
BRANCH  13  14
ATOM     14  C   UNK     1       9.510  -2.777  24.075  0.00  0.00    +0.000 C 
BRANCH  14  15
ATOM     15  C   UNK     1       8.681  -1.606  23.549  0.00  0.00    +0.000 C 
BRANCH  15  16
ATOM     16  C   UNK     1       8.701  -1.564  22.020  0.00  0.00    -0.000 C 
BRANCH  16  17
ATOM     17  C   UNK     1       9.712  -0.539  21.507  0.00  0.00    -0.000 C 
BRANCH  17  18
ATOM     18  C   UNK     1       9.122   0.871  21.501  0.00  0.00    -0.003 C 
ATOM     19  C   UNK     1      10.047   1.859  22.192  0.00  0.00    +0.004 C 
ENDBRANCH  17  18
ENDBRANCH  16  17
ENDBRANCH  15  16
ENDBRANCH  14  15
ENDBRANCH  13  14
ENDBRANCH  12  13
ENDBRANCH  11  12
ENDBRANCH   1  11
TORSDOF 13
ENDMDL
MODEL 9
REMARK VINA RESULT:      -4.2      3.210      4.029
REMARK  Name = 
REMARK  14 active torsions:
REMARK  status: ('A' for Active; 'I' for Inactive)
REMARK    1  A    between atoms: C_2  and  N_3
REMARK    2  A    between atoms: C_2  and  C_4
REMARK    3  A    between atoms: C_2  and  C_15
REMARK    4  A    between atoms: C_4  and  S_5
REMARK    5  A    between atoms: S_5  and  C_6
REMARK    6  A    between atoms: C_6  and  C_7
REMARK    7  A    between atoms: C_7  and  C_8
REMARK    8  A    between atoms: C_8  and  C_9
REMARK    9  A    between atoms: C_9  and  C_10
REMARK   10  A    between atoms: C_10  and  C_11
REMARK   11  A    between atoms: C_11  and  C_12
REMARK   12  A    between atoms: C_12  and  C_13
REMARK   13  A    between atoms: C_13  and  C_14
REMARK   14  A    between atoms: C_15  and  O_16
REMARK                            x       y       z     vdW  Elec       q    Type
REMARK                         _______ _______ _______ _____ _____    ______ ____
ROOT
ATOM      1  S   UNK     1       6.402  -2.312  24.263  0.00  0.00    -0.159 S 
ENDROOT
BRANCH   1   2
ATOM      2  C   UNK     1       7.097  -3.224  22.832  0.00  0.00    +0.099 C 
BRANCH   2   3
ATOM      3  C   UNK     1       5.993  -3.835  21.952  0.00  0.00    +0.170 C 
BRANCH   3   4
ATOM      4  N   UNK     1       4.696  -3.912  22.665  0.00  0.00    -0.318 NA
ATOM      5  H   UNK     1       4.787  -4.204  23.636  0.00  0.00    +0.119 HD
ATOM      6  H   UNK     1       4.139  -3.066  22.539  0.00  0.00    +0.119 HD
ENDBRANCH   3   4
BRANCH   3   7
ATOM      7  C   UNK     1       6.457  -5.188  21.396  0.00  0.00    +0.323 C 
ATOM      8  O   UNK     1       5.996  -5.706  20.389  0.00  0.00    -0.249 OA
BRANCH   7   9
ATOM      9  O   UNK     1       7.436  -5.781  22.125  0.00  0.00    -0.480 OA
ATOM     10  H   UNK     1       7.506  -6.725  21.894  0.00  0.00    +0.295 HD
ENDBRANCH   7   9
ENDBRANCH   3   7
ENDBRANCH   2   3
ENDBRANCH   1   2
BRANCH   1  11
ATOM     11  C   UNK     1       7.840  -2.385  25.380  0.00  0.00    +0.069 C 
BRANCH  11  12
ATOM     12  C   UNK     1       9.093  -2.060  24.569  0.00  0.00    +0.011 C 
BRANCH  12  13
ATOM     13  C   UNK     1       9.623  -0.656  24.860  0.00  0.00    +0.001 C 
BRANCH  13  14
ATOM     14  C   UNK     1      10.477  -0.164  23.688  0.00  0.00    +0.000 C 
BRANCH  14  15
ATOM     15  C   UNK     1      10.219  -0.967  22.415  0.00  0.00    +0.000 C 
BRANCH  15  16
ATOM     16  C   UNK     1       9.435  -0.141  21.395  0.00  0.00    -0.000 C 
BRANCH  16  17
ATOM     17  C   UNK     1       9.517   1.352  21.709  0.00  0.00    -0.000 C 
BRANCH  17  18
ATOM     18  C   UNK     1       8.130   1.994  21.732  0.00  0.00    -0.003 C 
ATOM     19  C   UNK     1       7.151   1.165  22.546  0.00  0.00    +0.004 C 
ENDBRANCH  17  18
ENDBRANCH  16  17
ENDBRANCH  15  16
ENDBRANCH  14  15
ENDBRANCH  13  14
ENDBRANCH  12  13
ENDBRANCH  11  12
ENDBRANCH   1  11
TORSDOF 13
ENDMDL
