MODEL 1
REMARK VINA RESULT:      -6.4      0.000      0.000
REMARK  Name = 
REMARK  14 active torsions:
REMARK  status: ('A' for Active; 'I' for Inactive)
REMARK    1  A    between atoms: C_6  and  C_8
REMARK    2  A    between atoms: C_8  and  C_9
REMARK    3  A    between atoms: C_9  and  C_10
REMARK    4  A    between atoms: C_10  and  C_11
REMARK    5  A    between atoms: C_11  and  C_12
REMARK    6  A    between atoms: C_12  and  C_13
REMARK    7  A    between atoms: C_13  and  C_14
REMARK    8  A    between atoms: C_14  and  O_15
REMARK    9  A    between atoms: C_21  and  O_22
REMARK   10  A    between atoms: C_21  and  C_24
REMARK   11  A    between atoms: C_24  and  C_27
REMARK   12  A    between atoms: C_27  and  C_28
REMARK   13  A    between atoms: C_28  and  C_29
REMARK   14  A    between atoms: C_29  and  C_30
REMARK                            x       y       z     vdW  Elec       q    Type
REMARK                         _______ _______ _______ _____ _____    ______ ____
ROOT
ATOM      1  C   UNL     1       7.363  -3.322  22.834  0.00  0.00    +0.133 C 
ATOM      2  O   UNL     1       8.289  -2.487  22.163  0.00  0.00    -0.340 OA
ATOM      3  C   UNL     1       8.553  -1.248  22.855  0.00  0.00    +0.232 C 
ATOM      4  C   UNL     1       7.271  -0.493  23.280  0.00  0.00    +0.071 C 
ATOM      5  C   UNL     1       6.183  -1.405  23.817  0.00  0.00    +0.012 C 
ATOM      6  C   UNL     1       6.024  -2.596  22.891  0.00  0.00    +0.029 C 
ATOM      7  C   UNL     1       5.006  -3.681  23.233  0.00  0.00    +0.061 C 
ATOM      8  C   UNL     1       5.653  -4.884  22.557  0.00  0.00    +0.139 C 
ATOM      9  O   UNL     1       5.085  -5.960  22.403  0.00  0.00    -0.297 OA
ATOM     10  C   UNL     1       7.057  -4.604  22.078  0.00  0.00    +0.106 C 
ENDROOT
BRANCH   3  11
ATOM     11  C   UNL     1       9.323  -0.298  21.893  0.00  0.00    +0.301 C 
ATOM     12  F   UNL     1       9.118  -0.695  20.604  0.00  0.00    -0.200 F 
ATOM     13  F   UNL     1      10.665  -0.436  22.113  0.00  0.00    -0.200 F 
BRANCH  11  14
ATOM     14  C   UNL     1       8.955   1.168  22.032  0.00  0.00    +0.081 C 
BRANCH  14  15
ATOM     15  C   UNL     1      10.220   2.007  22.188  0.00  0.00    +0.006 C 
BRANCH  15  16
ATOM     16  C   UNL     1      10.141   2.894  23.422  0.00  0.00    -0.003 C 
ATOM     17  C   UNL     1       9.293   2.241  24.499  0.00  0.00    +0.004 C 
ENDBRANCH  15  16
ENDBRANCH  14  15
ENDBRANCH  11  14
ENDBRANCH   3  11
BRANCH   3  18
ATOM     18  O   UNL     1       9.357  -1.549  24.003  0.00  0.00    -0.360 OA
ATOM     19  H   UNL     1       8.950  -1.136  24.780  0.00  0.00    +0.213 HD
ENDBRANCH   3  18
BRANCH   7  20
ATOM     20  C   UNL     1       4.770  -3.948  24.723  0.00  0.00    +0.011 C 
BRANCH  20  21
ATOM     21  C   UNL     1       4.450  -5.407  25.095  0.00  0.00    +0.001 C 
BRANCH  21  22
ATOM     22  C   UNL     1       5.189  -5.934  26.327  0.00  0.00    +0.000 C 
BRANCH  22  23
ATOM     23  C   UNL     1       6.169  -4.889  26.841  0.00  0.00    +0.001 C 
BRANCH  23  24
ATOM     24  C   UNL     1       7.609  -5.381  26.816  0.00  0.00    +0.011 C 
BRANCH  24  25
ATOM     25  C   UNL     1       8.506  -4.286  26.246  0.00  0.00    +0.120 C 
BRANCH  25  26
ATOM     26  C   UNL     1       9.600  -4.841  25.370  0.00  0.00    +0.305 C 
ATOM     27  O   UNL     1      10.220  -4.215  24.527  0.00  0.00    -0.251 OA
BRANCH  26  28
ATOM     28  O   UNL     1       9.821  -6.157  25.610  0.00  0.00    -0.481 OA
ATOM     29  H   UNL     1       9.428  -6.476  26.443  0.00  0.00    +0.295 HD
ENDBRANCH  26  28
ENDBRANCH  25  26
ENDBRANCH  24  25
ENDBRANCH  23  24
ENDBRANCH  22  23
ENDBRANCH  21  22
ENDBRANCH  20  21
ENDBRANCH   7  20
TORSDOF 13
ENDMDL
MODEL 2
REMARK VINA RESULT:      -6.4      3.449      7.794
REMARK  Name = 
REMARK  14 active torsions:
REMARK  status: ('A' for Active; 'I' for Inactive)
REMARK    1  A    between atoms: C_6  and  C_8
REMARK    2  A    between atoms: C_8  and  C_9
REMARK    3  A    between atoms: C_9  and  C_10
REMARK    4  A    between atoms: C_10  and  C_11
REMARK    5  A    between atoms: C_11  and  C_12
REMARK    6  A    between atoms: C_12  and  C_13
REMARK    7  A    between atoms: C_13  and  C_14
REMARK    8  A    between atoms: C_14  and  O_15
REMARK    9  A    between atoms: C_21  and  O_22
REMARK   10  A    between atoms: C_21  and  C_24
REMARK   11  A    between atoms: C_24  and  C_27
REMARK   12  A    between atoms: C_27  and  C_28
REMARK   13  A    between atoms: C_28  and  C_29
REMARK   14  A    between atoms: C_29  and  C_30
REMARK                            x       y       z     vdW  Elec       q    Type
REMARK                         _______ _______ _______ _____ _____    ______ ____
ROOT
ATOM      1  C   UNL     1       7.610   1.385  23.598  0.00  0.00    +0.133 C 
ATOM      2  O   UNL     1       8.086   0.053  23.659  0.00  0.00    -0.340 OA
ATOM      3  C   UNL     1       9.379  -0.125  23.042  0.00  0.00    +0.232 C 
ATOM      4  C   UNL     1       9.471   0.475  21.619  0.00  0.00    +0.071 C 
ATOM      5  C   UNL     1       8.784   1.823  21.485  0.00  0.00    +0.012 C 
ATOM      6  C   UNL     1       7.414   1.753  22.133  0.00  0.00    +0.029 C 
ATOM      7  C   UNL     1       6.532   2.999  22.158  0.00  0.00    +0.061 C 
ATOM      8  C   UNL     1       5.711   2.726  23.412  0.00  0.00    +0.139 C 
ATOM      9  O   UNL     1       4.723   3.379  23.729  0.00  0.00    -0.297 OA
ATOM     10  C   UNL     1       6.230   1.555  24.211  0.00  0.00    +0.106 C 
ENDROOT
BRANCH   3  11
ATOM     11  C   UNL     1       9.651  -1.650  22.894  0.00  0.00    +0.301 C 
ATOM     12  F   UNL     1      10.914  -1.841  22.414  0.00  0.00    -0.200 F 
ATOM     13  F   UNL     1       8.813  -2.160  21.942  0.00  0.00    -0.200 F 
BRANCH  11  14
ATOM     14  C   UNL     1       9.474  -2.445  24.174  0.00  0.00    +0.081 C 
BRANCH  14  15
ATOM     15  C   UNL     1       8.503  -3.598  23.938  0.00  0.00    +0.006 C 
BRANCH  15  16
ATOM     16  C   UNL     1       8.256  -4.378  25.222  0.00  0.00    -0.003 C 
ATOM     17  C   UNL     1       9.230  -5.537  25.342  0.00  0.00    +0.004 C 
ENDBRANCH  15  16
ENDBRANCH  14  15
ENDBRANCH  11  14
ENDBRANCH   3  11
BRANCH   3  18
ATOM     18  O   UNL     1      10.360   0.474  23.898  0.00  0.00    -0.360 OA
ATOM     19  H   UNL     1      10.635   1.318  23.508  0.00  0.00    +0.213 HD
ENDBRANCH   3  18
BRANCH   7  20
ATOM     20  C   UNL     1       7.257   4.344  22.256  0.00  0.00    +0.011 C 
BRANCH  20  21
ATOM     21  C   UNL     1       7.683   4.769  23.672  0.00  0.00    +0.001 C 
BRANCH  21  22
ATOM     22  C   UNL     1       9.183   4.657  23.955  0.00  0.00    +0.000 C 
BRANCH  22  23
ATOM     23  C   UNL     1       9.865   5.996  23.717  0.00  0.00    +0.001 C 
BRANCH  23  24
ATOM     24  C   UNL     1      11.345   5.966  24.070  0.00  0.00    +0.011 C 
BRANCH  24  25
ATOM     25  C   UNL     1      12.012   4.798  23.349  0.00  0.00    +0.120 C 
BRANCH  25  26
ATOM     26  C   UNL     1      13.236   5.225  22.580  0.00  0.00    +0.305 C 
ATOM     27  O   UNL     1      13.241   5.665  21.443  0.00  0.00    -0.251 OA
BRANCH  26  28
ATOM     28  O   UNL     1      14.372   5.048  23.299  0.00  0.00    -0.481 OA
ATOM     29  H   UNL     1      14.316   4.324  23.949  0.00  0.00    +0.295 HD
ENDBRANCH  26  28
ENDBRANCH  25  26
ENDBRANCH  24  25
ENDBRANCH  23  24
ENDBRANCH  22  23
ENDBRANCH  21  22
ENDBRANCH  20  21
ENDBRANCH   7  20
TORSDOF 13
ENDMDL
MODEL 3
REMARK VINA RESULT:      -6.4      1.757      3.529
REMARK  Name = 
REMARK  14 active torsions:
REMARK  status: ('A' for Active; 'I' for Inactive)
REMARK    1  A    between atoms: C_6  and  C_8
REMARK    2  A    between atoms: C_8  and  C_9
REMARK    3  A    between atoms: C_9  and  C_10
REMARK    4  A    between atoms: C_10  and  C_11
REMARK    5  A    between atoms: C_11  and  C_12
REMARK    6  A    between atoms: C_12  and  C_13
REMARK    7  A    between atoms: C_13  and  C_14
REMARK    8  A    between atoms: C_14  and  O_15
REMARK    9  A    between atoms: C_21  and  O_22
REMARK   10  A    between atoms: C_21  and  C_24
REMARK   11  A    between atoms: C_24  and  C_27
REMARK   12  A    between atoms: C_27  and  C_28
REMARK   13  A    between atoms: C_28  and  C_29
REMARK   14  A    between atoms: C_29  and  C_30
REMARK                            x       y       z     vdW  Elec       q    Type
REMARK                         _______ _______ _______ _____ _____    ______ ____
ROOT
ATOM      1  C   UNL     1       8.245  -3.224  25.783  0.00  0.00    +0.133 C 
ATOM      2  O   UNL     1       9.161  -2.769  24.804  0.00  0.00    -0.340 OA
ATOM      3  C   UNL     1       8.643  -1.697  23.986  0.00  0.00    +0.232 C 
ATOM      4  C   UNL     1       7.242  -1.991  23.400  0.00  0.00    +0.071 C 
ATOM      5  C   UNL     1       6.305  -2.667  24.385  0.00  0.00    +0.012 C 
ATOM      6  C   UNL     1       7.035  -3.809  25.067  0.00  0.00    +0.029 C 
ATOM      7  C   UNL     1       6.311  -4.631  26.131  0.00  0.00    +0.061 C 
ATOM      8  C   UNL     1       7.495  -5.081  26.979  0.00  0.00    +0.139 C 
ATOM      9  O   UNL     1       7.414  -5.934  27.855  0.00  0.00    -0.297 OA
ATOM     10  C   UNL     1       8.781  -4.380  26.611  0.00  0.00    +0.106 C 
ENDROOT
BRANCH   3  11
ATOM     11  C   UNL     1       9.595  -1.500  22.770  0.00  0.00    +0.301 C 
ATOM     12  F   UNL     1       8.992  -1.972  21.641  0.00  0.00    -0.200 F 
ATOM     13  F   UNL     1      10.707  -2.273  22.947  0.00  0.00    -0.200 F 
BRANCH  11  14
ATOM     14  C   UNL     1      10.031  -0.064  22.544  0.00  0.00    +0.081 C 
BRANCH  14  15
ATOM     15  C   UNL     1       9.258   0.534  21.371  0.00  0.00    +0.006 C 
BRANCH  15  16
ATOM     16  C   UNL     1       8.580   1.837  21.769  0.00  0.00    -0.003 C 
ATOM     17  C   UNL     1       7.179   1.576  22.292  0.00  0.00    +0.004 C 
ENDBRANCH  15  16
ENDBRANCH  14  15
ENDBRANCH  11  14
ENDBRANCH   3  11
BRANCH   3  18
ATOM     18  O   UNL     1       8.609  -0.511  24.788  0.00  0.00    -0.360 OA
ATOM     19  H   UNL     1       7.896   0.059  24.464  0.00  0.00    +0.213 HD
ENDBRANCH   3  18
BRANCH   7  20
ATOM     20  C   UNL     1       5.277  -3.886  26.981  0.00  0.00    +0.011 C 
BRANCH  20  21
ATOM     21  C   UNL     1       3.824  -4.372  26.838  0.00  0.00    +0.001 C 
BRANCH  21  22
ATOM     22  C   UNL     1       3.089  -3.851  25.601  0.00  0.00    +0.000 C 
BRANCH  22  23
ATOM     23  C   UNL     1       2.648  -5.012  24.722  0.00  0.00    +0.001 C 
BRANCH  23  24
ATOM     24  C   UNL     1       3.312  -4.991  23.354  0.00  0.00    +0.011 C 
BRANCH  24  25
ATOM     25  C   UNL     1       4.481  -5.972  23.344  0.00  0.00    +0.120 C 
BRANCH  25  26
ATOM     26  C   UNL     1       5.447  -5.698  22.221  0.00  0.00    +0.305 C 
ATOM     27  O   UNL     1       5.504  -4.669  21.569  0.00  0.00    -0.251 OA
BRANCH  26  28
ATOM     28  O   UNL     1       6.264  -6.755  21.988  0.00  0.00    -0.481 OA
ATOM     29  H   UNL     1       5.989  -7.304  21.230  0.00  0.00    +0.295 HD
ENDBRANCH  26  28
ENDBRANCH  25  26
ENDBRANCH  24  25
ENDBRANCH  23  24
ENDBRANCH  22  23
ENDBRANCH  21  22
ENDBRANCH  20  21
ENDBRANCH   7  20
TORSDOF 13
ENDMDL
MODEL 4
REMARK VINA RESULT:      -6.4      3.519      8.264
REMARK  Name = 
REMARK  14 active torsions:
REMARK  status: ('A' for Active; 'I' for Inactive)
REMARK    1  A    between atoms: C_6  and  C_8
REMARK    2  A    between atoms: C_8  and  C_9
REMARK    3  A    between atoms: C_9  and  C_10
REMARK    4  A    between atoms: C_10  and  C_11
REMARK    5  A    between atoms: C_11  and  C_12
REMARK    6  A    between atoms: C_12  and  C_13
REMARK    7  A    between atoms: C_13  and  C_14
REMARK    8  A    between atoms: C_14  and  O_15
REMARK    9  A    between atoms: C_21  and  O_22
REMARK   10  A    between atoms: C_21  and  C_24
REMARK   11  A    between atoms: C_24  and  C_27
REMARK   12  A    between atoms: C_27  and  C_28
REMARK   13  A    between atoms: C_28  and  C_29
REMARK   14  A    between atoms: C_29  and  C_30
REMARK                            x       y       z     vdW  Elec       q    Type
REMARK                         _______ _______ _______ _____ _____    ______ ____
ROOT
ATOM      1  C   UNL     1       7.762   1.150  23.486  0.00  0.00    +0.133 C 
ATOM      2  O   UNL     1       7.937  -0.212  23.142  0.00  0.00    -0.340 OA
ATOM      3  C   UNL     1       8.856  -0.912  24.009  0.00  0.00    +0.232 C 
ATOM      4  C   UNL     1      10.199  -0.172  24.209  0.00  0.00    +0.071 C 
ATOM      5  C   UNL     1      10.043   1.329  24.379  0.00  0.00    +0.012 C 
ATOM      6  C   UNL     1       9.100   1.858  23.315  0.00  0.00    +0.029 C 
ATOM      7  C   UNL     1       8.755   3.345  23.293  0.00  0.00    +0.061 C 
ATOM      8  C   UNL     1       7.372   3.294  22.654  0.00  0.00    +0.139 C 
ATOM      9  O   UNL     1       6.773   4.286  22.257  0.00  0.00    -0.297 OA
ATOM     10  C   UNL     1       6.828   1.890  22.544  0.00  0.00    +0.106 C 
ENDROOT
BRANCH   3  11
ATOM     11  C   UNL     1       9.202  -2.283  23.360  0.00  0.00    +0.301 C 
ATOM     12  F   UNL     1      10.377  -2.745  23.876  0.00  0.00    -0.200 F 
ATOM     13  F   UNL     1       9.431  -2.097  22.026  0.00  0.00    -0.200 F 
BRANCH  11  14
ATOM     14  C   UNL     1       8.129  -3.343  23.526  0.00  0.00    +0.081 C 
BRANCH  14  15
ATOM     15  C   UNL     1       7.320  -3.469  22.238  0.00  0.00    +0.006 C 
BRANCH  15  16
ATOM     16  C   UNL     1       6.436  -4.707  22.264  0.00  0.00    -0.003 C 
ATOM     17  C   UNL     1       7.222  -5.937  21.846  0.00  0.00    +0.004 C 
ENDBRANCH  15  16
ENDBRANCH  14  15
ENDBRANCH  11  14
ENDBRANCH   3  11
BRANCH   3  18
ATOM     18  O   UNL     1       8.204  -1.110  25.270  0.00  0.00    -0.360 OA
ATOM     19  H   UNL     1       7.365  -1.567  25.114  0.00  0.00    +0.213 HD
ENDBRANCH   3  18
BRANCH   7  20
ATOM     20  C   UNL     1       8.708   4.054  24.650  0.00  0.00    +0.011 C 
BRANCH  20  21
ATOM     21  C   UNL     1       8.501   5.578  24.598  0.00  0.00    +0.001 C 
BRANCH  21  22
ATOM     22  C   UNL     1       9.687   6.371  24.044  0.00  0.00    +0.000 C 
BRANCH  22  23
ATOM     23  C   UNL     1      10.801   6.442  25.078  0.00  0.00    +0.001 C 
BRANCH  23  24
ATOM     24  C   UNL     1      12.184   6.378  24.446  0.00  0.00    +0.011 C 
BRANCH  24  25
ATOM     25  C   UNL     1      12.149   5.432  23.249  0.00  0.00    +0.120 C 
BRANCH  25  26
ATOM     26  C   UNL     1      13.458   5.405  22.503  0.00  0.00    +0.305 C 
ATOM     27  O   UNL     1      13.611   5.701  21.330  0.00  0.00    -0.251 OA
BRANCH  26  28
ATOM     28  O   UNL     1      14.480   4.989  23.290  0.00  0.00    -0.481 OA
ATOM     29  H   UNL     1      15.165   4.488  22.811  0.00  0.00    +0.295 HD
ENDBRANCH  26  28
ENDBRANCH  25  26
ENDBRANCH  24  25
ENDBRANCH  23  24
ENDBRANCH  22  23
ENDBRANCH  21  22
ENDBRANCH  20  21
ENDBRANCH   7  20
TORSDOF 13
ENDMDL
MODEL 5
REMARK VINA RESULT:      -6.3      2.539      4.332
REMARK  Name = 
REMARK  14 active torsions:
REMARK  status: ('A' for Active; 'I' for Inactive)
REMARK    1  A    between atoms: C_6  and  C_8
REMARK    2  A    between atoms: C_8  and  C_9
REMARK    3  A    between atoms: C_9  and  C_10
REMARK    4  A    between atoms: C_10  and  C_11
REMARK    5  A    between atoms: C_11  and  C_12
REMARK    6  A    between atoms: C_12  and  C_13
REMARK    7  A    between atoms: C_13  and  C_14
REMARK    8  A    between atoms: C_14  and  O_15
REMARK    9  A    between atoms: C_21  and  O_22
REMARK   10  A    between atoms: C_21  and  C_24
REMARK   11  A    between atoms: C_24  and  C_27
REMARK   12  A    between atoms: C_27  and  C_28
REMARK   13  A    between atoms: C_28  and  C_29
REMARK   14  A    between atoms: C_29  and  C_30
REMARK                            x       y       z     vdW  Elec       q    Type
REMARK                         _______ _______ _______ _____ _____    ______ ____
ROOT
ATOM      1  C   UNL     1       8.945   0.016  23.999  0.00  0.00    +0.133 C 
ATOM      2  O   UNL     1       9.253   1.333  24.417  0.00  0.00    -0.340 OA
ATOM      3  C   UNL     1       8.703   2.354  23.557  0.00  0.00    +0.232 C 
ATOM      4  C   UNL     1       8.999   2.121  22.057  0.00  0.00    +0.071 C 
ATOM      5  C   UNL     1       8.868   0.669  21.633  0.00  0.00    +0.012 C 
ATOM      6  C   UNL     1       9.587  -0.212  22.637  0.00  0.00    +0.029 C 
ATOM      7  C   UNL     1       9.574  -1.727  22.448  0.00  0.00    +0.061 C 
ATOM      8  C   UNL     1       9.716  -2.183  23.896  0.00  0.00    +0.139 C 
ATOM      9  O   UNL     1       9.945  -3.342  24.220  0.00  0.00    -0.297 OA
ATOM     10  C   UNL     1       9.564  -1.052  24.885  0.00  0.00    +0.106 C 
ENDROOT
BRANCH   3  11
ATOM     11  C   UNL     1       9.355   3.717  23.927  0.00  0.00    +0.301 C 
ATOM     12  F   UNL     1       8.984   4.070  25.192  0.00  0.00    -0.200 F 
ATOM     13  F   UNL     1       8.849   4.688  23.109  0.00  0.00    -0.200 F 
BRANCH  11  14
ATOM     14  C   UNL     1      10.869   3.735  23.824  0.00  0.00    +0.081 C 
BRANCH  14  15
ATOM     15  C   UNL     1      11.344   5.125  23.405  0.00  0.00    +0.006 C 
BRANCH  15  16
ATOM     16  C   UNL     1      12.863   5.186  23.331  0.00  0.00    -0.003 C 
ATOM     17  C   UNL     1      13.313   5.725  21.985  0.00  0.00    +0.004 C 
ENDBRANCH  15  16
ENDBRANCH  14  15
ENDBRANCH  11  14
ENDBRANCH   3  11
BRANCH   3  18
ATOM     18  O   UNL     1       7.289   2.402  23.784  0.00  0.00    -0.360 OA
ATOM     19  H   UNL     1       6.953   1.494  23.829  0.00  0.00    +0.213 HD
ENDBRANCH   3  18
BRANCH   7  20
ATOM     20  C   UNL     1       8.319  -2.323  21.804  0.00  0.00    +0.011 C 
BRANCH  20  21
ATOM     21  C   UNL     1       7.379  -3.084  22.756  0.00  0.00    +0.001 C 
BRANCH  21  22
ATOM     22  C   UNL     1       6.180  -2.277  23.259  0.00  0.00    +0.000 C 
BRANCH  22  23
ATOM     23  C   UNL     1       5.835  -2.681  24.685  0.00  0.00    +0.001 C 
BRANCH  23  24
ATOM     24  C   UNL     1       6.546  -3.955  25.117  0.00  0.00    +0.011 C 
BRANCH  24  25
ATOM     25  C   UNL     1       7.268  -3.707  26.438  0.00  0.00    +0.120 C 
BRANCH  25  26
ATOM     26  C   UNL     1       7.957  -4.944  26.954  0.00  0.00    +0.305 C 
ATOM     27  O   UNL     1       7.443  -5.802  27.653  0.00  0.00    -0.251 OA
BRANCH  26  28
ATOM     28  O   UNL     1       9.254  -5.001  26.564  0.00  0.00    -0.481 OA
ATOM     29  H   UNL     1       9.370  -5.090  25.600  0.00  0.00    +0.295 HD
ENDBRANCH  26  28
ENDBRANCH  25  26
ENDBRANCH  24  25
ENDBRANCH  23  24
ENDBRANCH  22  23
ENDBRANCH  21  22
ENDBRANCH  20  21
ENDBRANCH   7  20
TORSDOF 13
ENDMDL
MODEL 6
REMARK VINA RESULT:      -6.3      1.177      1.499
REMARK  Name = 
REMARK  14 active torsions:
REMARK  status: ('A' for Active; 'I' for Inactive)
REMARK    1  A    between atoms: C_6  and  C_8
REMARK    2  A    between atoms: C_8  and  C_9
REMARK    3  A    between atoms: C_9  and  C_10
REMARK    4  A    between atoms: C_10  and  C_11
REMARK    5  A    between atoms: C_11  and  C_12
REMARK    6  A    between atoms: C_12  and  C_13
REMARK    7  A    between atoms: C_13  and  C_14
REMARK    8  A    between atoms: C_14  and  O_15
REMARK    9  A    between atoms: C_21  and  O_22
REMARK   10  A    between atoms: C_21  and  C_24
REMARK   11  A    between atoms: C_24  and  C_27
REMARK   12  A    between atoms: C_27  and  C_28
REMARK   13  A    between atoms: C_28  and  C_29
REMARK   14  A    between atoms: C_29  and  C_30
REMARK                            x       y       z     vdW  Elec       q    Type
REMARK                         _______ _______ _______ _____ _____    ______ ____
ROOT
ATOM      1  C   UNL     1       7.463  -3.619  23.010  0.00  0.00    +0.133 C 
ATOM      2  O   UNL     1       8.618  -2.868  22.679  0.00  0.00    -0.340 OA
ATOM      3  C   UNL     1       8.840  -1.739  23.551  0.00  0.00    +0.232 C 
ATOM      4  C   UNL     1       7.587  -0.851  23.741  0.00  0.00    +0.071 C 
ATOM      5  C   UNL     1       6.302  -1.644  23.896  0.00  0.00    +0.012 C 
ATOM      6  C   UNL     1       6.246  -2.721  22.829  0.00  0.00    +0.029 C 
ATOM      7  C   UNL     1       5.057  -3.679  22.793  0.00  0.00    +0.061 C 
ATOM      8  C   UNL     1       5.711  -4.900  22.158  0.00  0.00    +0.139 C 
ATOM      9  O   UNL     1       5.081  -5.870  21.752  0.00  0.00    -0.297 OA
ATOM     10  C   UNL     1       7.213  -4.779  22.062  0.00  0.00    +0.106 C 
ENDROOT
BRANCH   3  11
ATOM     11  C   UNL     1       9.930  -0.830  22.915  0.00  0.00    +0.301 C 
ATOM     12  F   UNL     1      10.930  -1.607  22.407  0.00  0.00    -0.200 F 
ATOM     13  F   UNL     1      10.510  -0.078  23.898  0.00  0.00    -0.200 F 
BRANCH  11  14
ATOM     14  C   UNL     1       9.416   0.100  21.831  0.00  0.00    +0.081 C 
BRANCH  14  15
ATOM     15  C   UNL     1      10.006   1.495  22.021  0.00  0.00    +0.006 C 
BRANCH  15  16
ATOM     16  C   UNL     1       8.914   2.520  22.287  0.00  0.00    -0.003 C 
ATOM     17  C   UNL     1       7.588   2.055  21.711  0.00  0.00    +0.004 C 
ENDBRANCH  15  16
ENDBRANCH  14  15
ENDBRANCH  11  14
ENDBRANCH   3  11
BRANCH   3  18
ATOM     18  O   UNL     1       9.289  -2.243  24.815  0.00  0.00    -0.360 OA
ATOM     19  H   UNL     1      10.218  -2.505  24.729  0.00  0.00    +0.213 HD
ENDBRANCH   3  18
BRANCH   7  20
ATOM     20  C   UNL     1       4.426  -4.032  24.143  0.00  0.00    +0.011 C 
BRANCH  20  21
ATOM     21  C   UNL     1       4.657  -5.474  24.629  0.00  0.00    +0.001 C 
BRANCH  21  22
ATOM     22  C   UNL     1       4.454  -5.687  26.131  0.00  0.00    +0.000 C 
BRANCH  22  23
ATOM     23  C   UNL     1       4.571  -4.363  26.872  0.00  0.00    +0.001 C 
BRANCH  23  24
ATOM     24  C   UNL     1       5.820  -4.290  27.738  0.00  0.00    +0.011 C 
BRANCH  24  25
ATOM     25  C   UNL     1       7.008  -3.869  26.877  0.00  0.00    +0.120 C 
BRANCH  25  26
ATOM     26  C   UNL     1       8.033  -4.965  26.742  0.00  0.00    +0.305 C 
ATOM     27  O   UNL     1       8.960  -4.975  25.948  0.00  0.00    -0.251 OA
BRANCH  26  28
ATOM     28  O   UNL     1       7.805  -5.981  27.610  0.00  0.00    -0.481 OA
ATOM     29  H   UNL     1       6.887  -6.310  27.596  0.00  0.00    +0.295 HD
ENDBRANCH  26  28
ENDBRANCH  25  26
ENDBRANCH  24  25
ENDBRANCH  23  24
ENDBRANCH  22  23
ENDBRANCH  21  22
ENDBRANCH  20  21
ENDBRANCH   7  20
TORSDOF 13
ENDMDL
MODEL 7
REMARK VINA RESULT:      -6.2      1.954      3.634
REMARK  Name = 
REMARK  14 active torsions:
REMARK  status: ('A' for Active; 'I' for Inactive)
REMARK    1  A    between atoms: C_6  and  C_8
REMARK    2  A    between atoms: C_8  and  C_9
REMARK    3  A    between atoms: C_9  and  C_10
REMARK    4  A    between atoms: C_10  and  C_11
REMARK    5  A    between atoms: C_11  and  C_12
REMARK    6  A    between atoms: C_12  and  C_13
REMARK    7  A    between atoms: C_13  and  C_14
REMARK    8  A    between atoms: C_14  and  O_15
REMARK    9  A    between atoms: C_21  and  O_22
REMARK   10  A    between atoms: C_21  and  C_24
REMARK   11  A    between atoms: C_24  and  C_27
REMARK   12  A    between atoms: C_27  and  C_28
REMARK   13  A    between atoms: C_28  and  C_29
REMARK   14  A    between atoms: C_29  and  C_30
REMARK                            x       y       z     vdW  Elec       q    Type
REMARK                         _______ _______ _______ _____ _____    ______ ____
ROOT
ATOM      1  C   UNL     1       9.429  -1.332  24.222  0.00  0.00    +0.133 C 
ATOM      2  O   UNL     1       9.933  -0.229  23.491  0.00  0.00    -0.340 OA
ATOM      3  C   UNL     1       9.384   1.039  23.911  0.00  0.00    +0.232 C 
ATOM      4  C   UNL     1       7.840   1.041  24.004  0.00  0.00    +0.071 C 
ATOM      5  C   UNL     1       7.268  -0.230  24.605  0.00  0.00    +0.012 C 
ATOM      6  C   UNL     1       7.932  -1.432  23.960  0.00  0.00    +0.029 C 
ATOM      7  C   UNL     1       7.548  -2.836  24.419  0.00  0.00    +0.061 C 
ATOM      8  C   UNL     1       8.839  -3.586  24.111  0.00  0.00    +0.139 C 
ATOM      9  O   UNL     1       8.935  -4.807  24.140  0.00  0.00    -0.297 OA
ATOM     10  C   UNL     1       9.979  -2.666  23.745  0.00  0.00    +0.106 C 
ENDROOT
BRANCH   3  11
ATOM     11  C   UNL     1       9.762   2.116  22.854  0.00  0.00    +0.301 C 
ATOM     12  F   UNL     1       8.637   2.779  22.459  0.00  0.00    -0.200 F 
ATOM     13  F   UNL     1      10.235   1.492  21.734  0.00  0.00    -0.200 F 
BRANCH  11  14
ATOM     14  C   UNL     1      10.797   3.121  23.326  0.00  0.00    +0.081 C 
BRANCH  14  15
ATOM     15  C   UNL     1      10.108   4.416  23.747  0.00  0.00    +0.006 C 
BRANCH  15  16
ATOM     16  C   UNL     1      11.070   5.594  23.685  0.00  0.00    -0.003 C 
ATOM     17  C   UNL     1      12.469   5.126  23.324  0.00  0.00    +0.004 C 
ENDBRANCH  15  16
ENDBRANCH  14  15
ENDBRANCH  11  14
ENDBRANCH   3  11
BRANCH   3  18
ATOM     18  O   UNL     1       9.959   1.367  25.182  0.00  0.00    -0.360 OA
ATOM     19  H   UNL     1      10.217   0.544  25.624  0.00  0.00    +0.213 HD
ENDBRANCH   3  18
BRANCH   7  20
ATOM     20  C   UNL     1       7.162  -2.989  25.893  0.00  0.00    +0.011 C 
BRANCH  20  21
ATOM     21  C   UNL     1       6.036  -3.997  26.185  0.00  0.00    +0.001 C 
BRANCH  21  22
ATOM     22  C   UNL     1       5.172  -4.365  24.976  0.00  0.00    +0.000 C 
BRANCH  22  23
ATOM     23  C   UNL     1       5.273  -5.857  24.692  0.00  0.00    +0.001 C 
BRANCH  23  24
ATOM     24  C   UNL     1       4.962  -6.195  23.242  0.00  0.00    +0.011 C 
BRANCH  24  25
ATOM     25  C   UNL     1       6.229  -6.036  22.404  0.00  0.00    +0.120 C 
BRANCH  25  26
ATOM     26  C   UNL     1       5.989  -5.233  21.152  0.00  0.00    +0.305 C 
ATOM     27  O   UNL     1       6.066  -5.658  20.011  0.00  0.00    -0.251 OA
BRANCH  26  28
ATOM     28  O   UNL     1       5.685  -3.941  21.430  0.00  0.00    -0.481 OA
ATOM     29  H   UNL     1       5.881  -3.681  22.348  0.00  0.00    +0.295 HD
ENDBRANCH  26  28
ENDBRANCH  25  26
ENDBRANCH  24  25
ENDBRANCH  23  24
ENDBRANCH  22  23
ENDBRANCH  21  22
ENDBRANCH  20  21
ENDBRANCH   7  20
TORSDOF 13
ENDMDL
MODEL 8
REMARK VINA RESULT:      -6.1      3.065      7.025
REMARK  Name = 
REMARK  14 active torsions:
REMARK  status: ('A' for Active; 'I' for Inactive)
REMARK    1  A    between atoms: C_6  and  C_8
REMARK    2  A    between atoms: C_8  and  C_9
REMARK    3  A    between atoms: C_9  and  C_10
REMARK    4  A    between atoms: C_10  and  C_11
REMARK    5  A    between atoms: C_11  and  C_12
REMARK    6  A    between atoms: C_12  and  C_13
REMARK    7  A    between atoms: C_13  and  C_14
REMARK    8  A    between atoms: C_14  and  O_15
REMARK    9  A    between atoms: C_21  and  O_22
REMARK   10  A    between atoms: C_21  and  C_24
REMARK   11  A    between atoms: C_24  and  C_27
REMARK   12  A    between atoms: C_27  and  C_28
REMARK   13  A    between atoms: C_28  and  C_29
REMARK   14  A    between atoms: C_29  and  C_30
REMARK                            x       y       z     vdW  Elec       q    Type
REMARK                         _______ _______ _______ _____ _____    ______ ____
ROOT
ATOM      1  C   UNL     1       8.112  -3.321  25.006  0.00  0.00    +0.133 C 
ATOM      2  O   UNL     1       7.092  -4.262  24.722  0.00  0.00    -0.340 OA
ATOM      3  C   UNL     1       7.116  -4.743  23.361  0.00  0.00    +0.232 C 
ATOM      4  C   UNL     1       7.190  -3.611  22.309  0.00  0.00    +0.071 C 
ATOM      5  C   UNL     1       8.134  -2.487  22.696  0.00  0.00    +0.012 C 
ATOM      6  C   UNL     1       7.878  -2.091  24.138  0.00  0.00    +0.029 C 
ATOM      7  C   UNL     1       8.727  -0.995  24.777  0.00  0.00    +0.061 C 
ATOM      8  C   UNL     1       8.664  -1.420  26.239  0.00  0.00    +0.139 C 
ATOM      9  O   UNL     1       9.053  -0.717  27.164  0.00  0.00    -0.297 OA
ATOM     10  C   UNL     1       8.054  -2.787  26.428  0.00  0.00    +0.106 C 
ENDROOT
BRANCH   3  11
ATOM     11  C   UNL     1       5.791  -5.512  23.085  0.00  0.00    +0.301 C 
ATOM     12  F   UNL     1       5.513  -6.330  24.141  0.00  0.00    -0.200 F 
ATOM     13  F   UNL     1       5.974  -6.340  22.014  0.00  0.00    -0.200 F 
BRANCH  11  14
ATOM     14  C   UNL     1       4.594  -4.619  22.813  0.00  0.00    +0.081 C 
BRANCH  14  15
ATOM     15  C   UNL     1       3.568  -4.772  23.932  0.00  0.00    +0.006 C 
BRANCH  15  16
ATOM     16  C   UNL     1       3.590  -3.570  24.865  0.00  0.00    -0.003 C 
ATOM     17  C   UNL     1       4.039  -3.977  26.256  0.00  0.00    +0.004 C 
ENDBRANCH  15  16
ENDBRANCH  14  15
ENDBRANCH  11  14
ENDBRANCH   3  11
BRANCH   3  18
ATOM     18  O   UNL     1       8.238  -5.623  23.225  0.00  0.00    -0.360 OA
ATOM     19  H   UNL     1       8.990  -5.238  23.701  0.00  0.00    +0.213 HD
ENDBRANCH   3  18
BRANCH   7  20
ATOM     20  C   UNL     1      10.177  -0.890  24.295  0.00  0.00    +0.011 C 
BRANCH  20  21
ATOM     21  C   UNL     1      10.742   0.538  24.191  0.00  0.00    +0.001 C 
BRANCH  21  22
ATOM     22  C   UNL     1       9.749   1.588  23.689  0.00  0.00    +0.000 C 
BRANCH  22  23
ATOM     23  C   UNL     1       9.882   1.762  22.183  0.00  0.00    +0.001 C 
BRANCH  23  24
ATOM     24  C   UNL     1       8.601   1.412  21.442  0.00  0.00    +0.011 C 
BRANCH  24  25
ATOM     25  C   UNL     1       7.441   1.364  22.434  0.00  0.00    +0.120 C 
BRANCH  25  26
ATOM     26  C   UNL     1       6.527   2.555  22.303  0.00  0.00    +0.305 C 
ATOM     27  O   UNL     1       6.855   3.660  21.906  0.00  0.00    -0.251 OA
BRANCH  26  28
ATOM     28  O   UNL     1       5.263   2.267  22.699  0.00  0.00    -0.481 OA
ATOM     29  H   UNL     1       5.139   2.296  23.666  0.00  0.00    +0.295 HD
ENDBRANCH  26  28
ENDBRANCH  25  26
ENDBRANCH  24  25
ENDBRANCH  23  24
ENDBRANCH  22  23
ENDBRANCH  21  22
ENDBRANCH  20  21
ENDBRANCH   7  20
TORSDOF 13
ENDMDL
MODEL 9
REMARK VINA RESULT:      -6.1      2.043      3.565
REMARK  Name = 
REMARK  14 active torsions:
REMARK  status: ('A' for Active; 'I' for Inactive)
REMARK    1  A    between atoms: C_6  and  C_8
REMARK    2  A    between atoms: C_8  and  C_9
REMARK    3  A    between atoms: C_9  and  C_10
REMARK    4  A    between atoms: C_10  and  C_11
REMARK    5  A    between atoms: C_11  and  C_12
REMARK    6  A    between atoms: C_12  and  C_13
REMARK    7  A    between atoms: C_13  and  C_14
REMARK    8  A    between atoms: C_14  and  O_15
REMARK    9  A    between atoms: C_21  and  O_22
REMARK   10  A    between atoms: C_21  and  C_24
REMARK   11  A    between atoms: C_24  and  C_27
REMARK   12  A    between atoms: C_27  and  C_28
REMARK   13  A    between atoms: C_28  and  C_29
REMARK   14  A    between atoms: C_29  and  C_30
REMARK                            x       y       z     vdW  Elec       q    Type
REMARK                         _______ _______ _______ _____ _____    ______ ____
ROOT
ATOM      1  C   UNL     1       6.885  -1.499  24.314  0.00  0.00    +0.133 C 
ATOM      2  O   UNL     1       7.244  -0.589  23.291  0.00  0.00    -0.340 OA
ATOM      3  C   UNL     1       8.484  -0.924  22.631  0.00  0.00    +0.232 C 
ATOM      4  C   UNL     1       9.647  -1.206  23.612  0.00  0.00    +0.071 C 
ATOM      5  C   UNL     1       9.231  -2.016  24.827  0.00  0.00    +0.012 C 
ATOM      6  C   UNL     1       7.951  -1.437  25.400  0.00  0.00    +0.029 C 
ATOM      7  C   UNL     1       7.308  -2.099  26.616  0.00  0.00    +0.061 C 
ATOM      8  C   UNL     1       5.849  -1.723  26.392  0.00  0.00    +0.139 C 
ATOM      9  O   UNL     1       4.972  -1.881  27.234  0.00  0.00    -0.297 OA
ATOM     10  C   UNL     1       5.602  -1.115  25.032  0.00  0.00    +0.106 C 
ENDROOT
BRANCH   3  11
ATOM     11  C   UNL     1       8.927   0.289  21.763  0.00  0.00    +0.301 C 
ATOM     12  F   UNL     1       7.876   1.146  21.612  0.00  0.00    -0.200 F 
ATOM     13  F   UNL     1       9.228  -0.152  20.505  0.00  0.00    -0.200 F 
BRANCH  11  14
ATOM     14  C   UNL     1      10.120   1.050  22.311  0.00  0.00    +0.081 C 
BRANCH  14  15
ATOM     15  C   UNL     1       9.667   2.401  22.858  0.00  0.00    +0.006 C 
BRANCH  15  16
ATOM     16  C   UNL     1       9.697   2.415  24.379  0.00  0.00    -0.003 C 
ATOM     17  C   UNL     1       8.295   2.276  24.945  0.00  0.00    +0.004 C 
ENDBRANCH  15  16
ENDBRANCH  14  15
ENDBRANCH  11  14
ENDBRANCH   3  11
BRANCH   3  18
ATOM     18  O   UNL     1       8.245  -2.067  21.802  0.00  0.00    -0.360 OA
ATOM     19  H   UNL     1       7.569  -2.618  22.225  0.00  0.00    +0.213 HD
ENDBRANCH   3  18
BRANCH   7  20
ATOM     20  C   UNL     1       7.473  -3.618  26.732  0.00  0.00    +0.011 C 
BRANCH  20  21
ATOM     21  C   UNL     1       6.231  -4.451  26.375  0.00  0.00    +0.001 C 
BRANCH  21  22
ATOM     22  C   UNL     1       6.272  -5.111  24.995  0.00  0.00    +0.000 C 
BRANCH  22  23
ATOM     23  C   UNL     1       7.683  -5.059  24.428  0.00  0.00    +0.001 C 
BRANCH  23  24
ATOM     24  C   UNL     1       7.750  -5.544  22.988  0.00  0.00    +0.011 C 
BRANCH  24  25
ATOM     25  C   UNL     1       6.337  -5.828  22.485  0.00  0.00    +0.120 C 
BRANCH  25  26
ATOM     26  C   UNL     1       6.018  -5.072  21.221  0.00  0.00    +0.305 C 
ATOM     27  O   UNL     1       5.998  -5.546  20.097  0.00  0.00    -0.251 OA
BRANCH  26  28
ATOM     28  O   UNL     1       5.762  -3.763  21.466  0.00  0.00    -0.481 OA
ATOM     29  H   UNL     1       6.317  -3.380  22.169  0.00  0.00    +0.295 HD
ENDBRANCH  26  28
ENDBRANCH  25  26
ENDBRANCH  24  25
ENDBRANCH  23  24
ENDBRANCH  22  23
ENDBRANCH  21  22
ENDBRANCH  20  21
ENDBRANCH   7  20
TORSDOF 13
ENDMDL
