MODEL 1
REMARK VINA RESULT:      -6.3      0.000      0.000
REMARK  Name = 
REMARK  11 active torsions:
REMARK  status: ('A' for Active; 'I' for Inactive)
REMARK    1  A    between atoms: C_1  and  S_2
REMARK    2  A    between atoms: S_2  and  C_3
REMARK    3  A    between atoms: C_3  and  S_4
REMARK    4  A    between atoms: S_4  and  C_6
REMARK    5  A    between atoms: C_6  and  C_7
REMARK    6  A    between atoms: C_7  and  C_9
REMARK    7  A    between atoms: C_7  and  N_11
REMARK    8  A    between atoms: C_9  and  O_10
REMARK    9  A    between atoms: C_12  and  C_14
REMARK   10  A    between atoms: C_15  and  C_16
REMARK   11  A    between atoms: C_17  and  C_18
REMARK                            x       y       z     vdW  Elec       q    Type
REMARK                         _______ _______ _______ _____ _____    ______ ____
ROOT
ATOM      1  N   UNK A   1       8.952  -0.065  23.032  0.00  0.00    -0.306 N 
ATOM      2  H   UNK A   1       8.428   0.182  23.870  0.00  0.00    +0.149 HD
ATOM      3  C   UNK A   0       9.609  -1.262  22.924  0.00  0.00    +0.237 C 
ATOM      4  O   UNK A   0      10.251  -1.605  21.940  0.00  0.00    -0.271 OA
ENDROOT
BRANCH   3   5
ATOM      5  C   UNK A   0       9.451  -2.141  24.102  0.00  0.00    +0.068 C 
ATOM      6  C   UNK A   0       8.398  -2.971  24.139  0.00  0.00    +0.020 C 
BRANCH   6   7
ATOM      7  C   UNK A   0       8.023  -3.772  25.289  0.00  0.00    +0.059 A 
ATOM      8  C   UNK A   0       8.610  -5.147  25.422  0.00  0.00    +0.261 A 
ATOM      9  O   UNK A   0       9.396  -5.605  24.596  0.00  0.00    -0.267 OA
ATOM     10  N   UNK A   0       8.226  -5.874  26.513  0.00  0.00    -0.275 N 
ATOM     11  H   UNK A   0       8.614  -6.798  26.616  0.00  0.00    +0.173 HD
ATOM     12  C   UNK A   0       7.328  -5.467  27.450  0.00  0.00    +0.327 A 
ATOM     13  O   UNK A   0       6.998  -6.171  28.398  0.00  0.00    -0.247 OA
ATOM     14  N   UNK A   0       6.801  -4.220  27.263  0.00  0.00    -0.311 N 
ATOM     15  H   UNK A   0       6.121  -3.934  27.959  0.00  0.00    +0.170 HD
ATOM     16  C   UNK A   0       7.121  -3.387  26.217  0.00  0.00    +0.030 A 
ATOM     17  C   UNK A   0       6.358  -2.089  26.201  0.00  0.00    +0.064 C 
ENDBRANCH   6   7
ENDBRANCH   3   5
BRANCH   1  18
ATOM     18  C   UNK A   1       8.982   0.908  21.940  0.00  0.00    +0.111 C 
BRANCH  18  19
ATOM     19  C   UNK A   1      10.112   1.931  22.104  0.00  0.00    +0.129 C 
BRANCH  19  20
ATOM     20  S   UNK A   1       9.797   3.180  23.390  0.00  0.00    +0.034 S 
ATOM     21  O   UNK A   1       9.528   2.432  24.667  0.00  0.00    -0.256 OA
BRANCH  20  22
ATOM     22  C   UNK A   1      11.496   3.853  23.477  0.00  0.00    +0.172 C 
BRANCH  22  24
ATOM     23  C   UNK A   1       9.775   6.005  23.675  0.00  0.00    +0.085 C 
ATOM     24  S   UNK A   1      11.550   5.665  23.623  0.00  0.00    -0.151 S 
ENDBRANCH  22  24
ENDBRANCH  20  22
ENDBRANCH  19  20
ENDBRANCH  18  19
BRANCH  18  25
ATOM     25  C   UNK A   1       7.592   1.521  21.674  0.00  0.00    +0.179 C 
BRANCH  25  26
ATOM     26  O   UNK A   1       6.578   1.013  22.532  0.00  0.00    -0.393 OA
ATOM     27  H   UNK A   1       6.030   1.771  22.802  0.00  0.00    +0.209 HD
ENDBRANCH  25  26
ENDBRANCH  18  25
ENDBRANCH   1  18
TORSDOF 9
ENDMDL
MODEL 2
REMARK VINA RESULT:      -6.1      2.585      3.066
REMARK  Name = 
REMARK  11 active torsions:
REMARK  status: ('A' for Active; 'I' for Inactive)
REMARK    1  A    between atoms: C_1  and  S_2
REMARK    2  A    between atoms: S_2  and  C_3
REMARK    3  A    between atoms: C_3  and  S_4
REMARK    4  A    between atoms: S_4  and  C_6
REMARK    5  A    between atoms: C_6  and  C_7
REMARK    6  A    between atoms: C_7  and  C_9
REMARK    7  A    between atoms: C_7  and  N_11
REMARK    8  A    between atoms: C_9  and  O_10
REMARK    9  A    between atoms: C_12  and  C_14
REMARK   10  A    between atoms: C_15  and  C_16
REMARK   11  A    between atoms: C_17  and  C_18
REMARK                            x       y       z     vdW  Elec       q    Type
REMARK                         _______ _______ _______ _____ _____    ______ ____
ROOT
ATOM      1  N   UNK A   1       8.806  -0.965  23.680  0.00  0.00    -0.306 N 
ATOM      2  H   UNK A   1       7.877  -0.560  23.790  0.00  0.00    +0.149 HD
ATOM      3  C   UNK A   0       9.029  -2.305  23.854  0.00  0.00    +0.237 C 
ATOM      4  O   UNK A   0      10.123  -2.839  23.732  0.00  0.00    -0.271 OA
ENDROOT
BRANCH   3   5
ATOM      5  C   UNK A   0       7.811  -3.079  24.175  0.00  0.00    +0.068 C 
ATOM      6  C   UNK A   0       7.835  -4.407  23.989  0.00  0.00    +0.020 C 
BRANCH   6   7
ATOM      7  C   UNK A   0       6.677  -5.275  24.105  0.00  0.00    +0.059 A 
ATOM      8  C   UNK A   0       6.177  -5.615  25.479  0.00  0.00    +0.261 A 
ATOM      9  O   UNK A   0       6.711  -5.178  26.496  0.00  0.00    -0.267 OA
ATOM     10  N   UNK A   0       5.091  -6.441  25.547  0.00  0.00    -0.275 N 
ATOM     11  H   UNK A   0       4.744  -6.676  26.464  0.00  0.00    +0.173 HD
ATOM     12  C   UNK A   0       4.468  -7.008  24.479  0.00  0.00    +0.327 A 
ATOM     13  O   UNK A   0       3.511  -7.764  24.599  0.00  0.00    -0.247 OA
ATOM     14  N   UNK A   0       4.984  -6.688  23.255  0.00  0.00    -0.311 N 
ATOM     15  H   UNK A   0       4.522  -7.129  22.467  0.00  0.00    +0.170 HD
ATOM     16  C   UNK A   0       6.059  -5.856  23.055  0.00  0.00    +0.030 A 
ATOM     17  C   UNK A   0       6.475  -5.713  21.614  0.00  0.00    +0.064 C 
ENDBRANCH   6   7
ENDBRANCH   3   5
BRANCH   1  18
ATOM     18  C   UNK A   1       9.902  -0.062  23.327  0.00  0.00    +0.111 C 
BRANCH  18  19
ATOM     19  C   UNK A   1      10.060   1.081  24.336  0.00  0.00    +0.129 C 
BRANCH  19  20
ATOM     20  S   UNK A   1       9.514   2.700  23.710  0.00  0.00    +0.034 S 
ATOM     21  O   UNK A   1       8.901   3.433  24.872  0.00  0.00    -0.256 OA
BRANCH  20  22
ATOM     22  C   UNK A   1      11.177   3.403  23.413  0.00  0.00    +0.172 C 
BRANCH  22  24
ATOM     23  C   UNK A   1      12.877   5.515  22.883  0.00  0.00    +0.085 C 
ATOM     24  S   UNK A   1      11.237   5.213  23.581  0.00  0.00    -0.151 S 
ENDBRANCH  22  24
ENDBRANCH  20  22
ENDBRANCH  19  20
ENDBRANCH  18  19
BRANCH  18  25
ATOM     25  C   UNK A   1       9.830   0.385  21.853  0.00  0.00    +0.179 C 
BRANCH  25  26
ATOM     26  O   UNK A   1       9.540  -0.679  20.954  0.00  0.00    -0.393 OA
ATOM     27  H   UNK A   1       8.669  -1.033  21.206  0.00  0.00    +0.209 HD
ENDBRANCH  25  26
ENDBRANCH  18  25
ENDBRANCH   1  18
TORSDOF 9
ENDMDL
MODEL 3
REMARK VINA RESULT:      -6.1      3.008      3.387
REMARK  Name = 
REMARK  11 active torsions:
REMARK  status: ('A' for Active; 'I' for Inactive)
REMARK    1  A    between atoms: C_1  and  S_2
REMARK    2  A    between atoms: S_2  and  C_3
REMARK    3  A    between atoms: C_3  and  S_4
REMARK    4  A    between atoms: S_4  and  C_6
REMARK    5  A    between atoms: C_6  and  C_7
REMARK    6  A    between atoms: C_7  and  C_9
REMARK    7  A    between atoms: C_7  and  N_11
REMARK    8  A    between atoms: C_9  and  O_10
REMARK    9  A    between atoms: C_12  and  C_14
REMARK   10  A    between atoms: C_15  and  C_16
REMARK   11  A    between atoms: C_17  and  C_18
REMARK                            x       y       z     vdW  Elec       q    Type
REMARK                         _______ _______ _______ _____ _____    ______ ____
ROOT
ATOM      1  N   UNK A   1       8.315  -1.760  23.031  0.00  0.00    -0.306 N 
ATOM      2  H   UNK A   1       7.332  -1.789  22.761  0.00  0.00    +0.149 HD
ATOM      3  C   UNK A   0       8.961  -2.870  23.505  0.00  0.00    +0.237 C 
ATOM      4  O   UNK A   0      10.138  -2.887  23.841  0.00  0.00    -0.271 OA
ENDROOT
BRANCH   3   5
ATOM      5  C   UNK A   0       8.116  -4.082  23.550  0.00  0.00    +0.068 C 
ATOM      6  C   UNK A   0       6.853  -3.961  23.984  0.00  0.00    +0.020 C 
BRANCH   6   7
ATOM      7  C   UNK A   0       5.959  -5.077  24.235  0.00  0.00    +0.059 A 
ATOM      8  C   UNK A   0       5.087  -5.558  23.113  0.00  0.00    +0.261 A 
ATOM      9  O   UNK A   0       5.113  -5.044  21.998  0.00  0.00    -0.267 OA
ATOM     10  N   UNK A   0       4.253  -6.604  23.391  0.00  0.00    -0.275 N 
ATOM     11  H   UNK A   0       3.663  -6.939  22.646  0.00  0.00    +0.173 HD
ATOM     12  C   UNK A   0       4.124  -7.203  24.606  0.00  0.00    +0.327 A 
ATOM     13  O   UNK A   0       3.340  -8.123  24.808  0.00  0.00    -0.247 OA
ATOM     14  N   UNK A   0       4.920  -6.704  25.599  0.00  0.00    -0.311 N 
ATOM     15  H   UNK A   0       4.803  -7.147  26.504  0.00  0.00    +0.170 HD
ATOM     16  C   UNK A   0       5.810  -5.669  25.440  0.00  0.00    +0.030 A 
ATOM     17  C   UNK A   0       6.524  -5.263  26.702  0.00  0.00    +0.064 C 
ENDBRANCH   6   7
ENDBRANCH   3   5
BRANCH   1  18
ATOM     18  C   UNK A   1       9.018  -0.484  22.894  0.00  0.00    +0.111 C 
BRANCH  18  19
ATOM     19  C   UNK A   1       8.300   0.656  23.626  0.00  0.00    +0.129 C 
BRANCH  19  20
ATOM     20  S   UNK A   1       9.418   1.776  24.524  0.00  0.00    +0.034 S 
ATOM     21  O   UNK A   1      10.500   2.179  23.559  0.00  0.00    -0.256 OA
BRANCH  20  22
ATOM     22  C   UNK A   1       8.256   3.179  24.687  0.00  0.00    +0.172 C 
BRANCH  22  24
ATOM     23  C   UNK A   1       7.245   4.082  22.279  0.00  0.00    +0.085 C 
ATOM     24  S   UNK A   1       6.768   3.009  23.654  0.00  0.00    -0.151 S 
ENDBRANCH  22  24
ENDBRANCH  20  22
ENDBRANCH  19  20
ENDBRANCH  18  19
BRANCH  18  25
ATOM     25  C   UNK A   1       9.382  -0.179  21.427  0.00  0.00    +0.179 C 
BRANCH  25  26
ATOM     26  O   UNK A   1       9.010   1.132  21.015  0.00  0.00    -0.393 OA
ATOM     27  H   UNK A   1       9.831   1.651  20.953  0.00  0.00    +0.209 HD
ENDBRANCH  25  26
ENDBRANCH  18  25
ENDBRANCH   1  18
TORSDOF 9
ENDMDL
MODEL 4
REMARK VINA RESULT:      -6.0      1.896      2.102
REMARK  Name = 
REMARK  11 active torsions:
REMARK  status: ('A' for Active; 'I' for Inactive)
REMARK    1  A    between atoms: C_1  and  S_2
REMARK    2  A    between atoms: S_2  and  C_3
REMARK    3  A    between atoms: C_3  and  S_4
REMARK    4  A    between atoms: S_4  and  C_6
REMARK    5  A    between atoms: C_6  and  C_7
REMARK    6  A    between atoms: C_7  and  C_9
REMARK    7  A    between atoms: C_7  and  N_11
REMARK    8  A    between atoms: C_9  and  O_10
REMARK    9  A    between atoms: C_12  and  C_14
REMARK   10  A    between atoms: C_15  and  C_16
REMARK   11  A    between atoms: C_17  and  C_18
REMARK                            x       y       z     vdW  Elec       q    Type
REMARK                         _______ _______ _______ _____ _____    ______ ____
ROOT
ATOM      1  N   UNK A   1       9.316  -0.643  23.713  0.00  0.00    -0.306 N 
ATOM      2  H   UNK A   1       8.491  -0.532  24.301  0.00  0.00    +0.149 HD
ATOM      3  C   UNK A   0       9.749  -1.878  23.312  0.00  0.00    +0.237 C 
ATOM      4  O   UNK A   0      10.732  -2.064  22.607  0.00  0.00    -0.271 OA
ENDROOT
BRANCH   3   5
ATOM      5  C   UNK A   0       8.899  -2.993  23.780  0.00  0.00    +0.068 C 
ATOM      6  C   UNK A   0       8.238  -2.847  24.938  0.00  0.00    +0.020 C 
BRANCH   6   7
ATOM      7  C   UNK A   0       7.499  -3.904  25.602  0.00  0.00    +0.059 A 
ATOM      8  C   UNK A   0       8.251  -4.845  26.498  0.00  0.00    +0.261 A 
ATOM      9  O   UNK A   0       9.459  -4.741  26.688  0.00  0.00    -0.267 OA
ATOM     10  N   UNK A   0       7.521  -5.832  27.098  0.00  0.00    -0.275 N 
ATOM     11  H   UNK A   0       8.013  -6.470  27.704  0.00  0.00    +0.173 HD
ATOM     12  C   UNK A   0       6.191  -6.051  26.909  0.00  0.00    +0.327 A 
ATOM     13  O   UNK A   0       5.590  -6.969  27.453  0.00  0.00    -0.247 OA
ATOM     14  N   UNK A   0       5.564  -5.183  26.059  0.00  0.00    -0.311 N 
ATOM     15  H   UNK A   0       4.577  -5.366  25.914  0.00  0.00    +0.170 HD
ATOM     16  C   UNK A   0       6.183  -4.141  25.411  0.00  0.00    +0.030 A 
ATOM     17  C   UNK A   0       5.287  -3.368  24.479  0.00  0.00    +0.064 C 
ENDBRANCH   6   7
ENDBRANCH   3   5
BRANCH   1  18
ATOM     18  C   UNK A   1      10.029   0.569  23.310  0.00  0.00    +0.111 C 
BRANCH  18  19
ATOM     19  C   UNK A   1       9.837   1.717  24.309  0.00  0.00    +0.129 C 
BRANCH  19  20
ATOM     20  S   UNK A   1       8.101   2.018  24.762  0.00  0.00    +0.034 S 
ATOM     21  O   UNK A   1       7.830   1.218  26.008  0.00  0.00    -0.256 OA
BRANCH  20  22
ATOM     22  C   UNK A   1       8.291   3.771  25.247  0.00  0.00    +0.172 C 
BRANCH  22  24
ATOM     23  C   UNK A   1       7.491   4.252  22.647  0.00  0.00    +0.085 C 
ATOM     24  S   UNK A   1       8.688   4.869  23.853  0.00  0.00    -0.151 S 
ENDBRANCH  22  24
ENDBRANCH  20  22
ENDBRANCH  19  20
ENDBRANCH  18  19
BRANCH  18  25
ATOM     25  C   UNK A   1       9.750   0.942  21.840  0.00  0.00    +0.179 C 
BRANCH  25  26
ATOM     26  O   UNK A   1      10.176   2.257  21.501  0.00  0.00    -0.393 OA
ATOM     27  H   UNK A   1      11.135   2.295  21.667  0.00  0.00    +0.209 HD
ENDBRANCH  25  26
ENDBRANCH  18  25
ENDBRANCH   1  18
TORSDOF 9
ENDMDL
MODEL 5
REMARK VINA RESULT:      -5.9      3.916      8.195
REMARK  Name = 
REMARK  11 active torsions:
REMARK  status: ('A' for Active; 'I' for Inactive)
REMARK    1  A    between atoms: C_1  and  S_2
REMARK    2  A    between atoms: S_2  and  C_3
REMARK    3  A    between atoms: C_3  and  S_4
REMARK    4  A    between atoms: S_4  and  C_6
REMARK    5  A    between atoms: C_6  and  C_7
REMARK    6  A    between atoms: C_7  and  C_9
REMARK    7  A    between atoms: C_7  and  N_11
REMARK    8  A    between atoms: C_9  and  O_10
REMARK    9  A    between atoms: C_12  and  C_14
REMARK   10  A    between atoms: C_15  and  C_16
REMARK   11  A    between atoms: C_17  and  C_18
REMARK                            x       y       z     vdW  Elec       q    Type
REMARK                         _______ _______ _______ _____ _____    ______ ____
ROOT
ATOM      1  N   UNK A   1       8.486  -2.877  24.843  0.00  0.00    -0.306 N 
ATOM      2  H   UNK A   1       7.817  -2.344  25.397  0.00  0.00    +0.149 HD
ATOM      3  C   UNK A   0       9.561  -2.275  24.247  0.00  0.00    +0.237 C 
ATOM      4  O   UNK A   0      10.393  -2.870  23.573  0.00  0.00    -0.271 OA
ENDROOT
BRANCH   3   5
ATOM      5  C   UNK A   0       9.662  -0.825  24.512  0.00  0.00    +0.068 C 
ATOM      6  C   UNK A   0       8.793  -0.005  23.901  0.00  0.00    +0.020 C 
BRANCH   6   7
ATOM      7  C   UNK A   0       8.866   1.444  23.935  0.00  0.00    +0.059 A 
ATOM      8  C   UNK A   0       9.669   2.141  22.876  0.00  0.00    +0.261 A 
ATOM      9  O   UNK A   0      10.254   1.527  21.987  0.00  0.00    -0.267 OA
ATOM     10  N   UNK A   0       9.722   3.505  22.947  0.00  0.00    -0.275 N 
ATOM     11  H   UNK A   0      10.256   3.986  22.241  0.00  0.00    +0.173 HD
ATOM     12  C   UNK A   0       9.147   4.263  23.919  0.00  0.00    +0.327 A 
ATOM     13  O   UNK A   0       9.247   5.484  23.950  0.00  0.00    -0.247 OA
ATOM     14  N   UNK A   0       8.454   3.573  24.875  0.00  0.00    -0.311 N 
ATOM     15  H   UNK A   0       8.044   4.147  25.603  0.00  0.00    +0.170 HD
ATOM     16  C   UNK A   0       8.314   2.206  24.902  0.00  0.00    +0.030 A 
ATOM     17  C   UNK A   0       7.557   1.683  26.095  0.00  0.00    +0.064 C 
ENDBRANCH   6   7
ENDBRANCH   3   5
BRANCH   1  18
ATOM     18  C   UNK A   1       8.259  -4.316  24.705  0.00  0.00    +0.111 C 
BRANCH  18  19
ATOM     19  C   UNK A   1       6.768  -4.663  24.615  0.00  0.00    +0.129 C 
BRANCH  19  20
ATOM     20  S   UNK A   1       5.945  -4.004  23.132  0.00  0.00    +0.034 S 
ATOM     21  O   UNK A   1       7.031  -3.631  22.160  0.00  0.00    -0.256 OA
BRANCH  20  22
ATOM     22  C   UNK A   1       5.199  -5.576  22.567  0.00  0.00    +0.172 C 
BRANCH  22  24
ATOM     23  C   UNK A   1       3.942  -7.106  24.494  0.00  0.00    +0.085 C 
ATOM     24  S   UNK A   1       3.535  -5.870  23.239  0.00  0.00    -0.151 S 
ENDBRANCH  22  24
ENDBRANCH  20  22
ENDBRANCH  19  20
ENDBRANCH  18  19
BRANCH  18  25
ATOM     25  C   UNK A   1       9.048  -5.129  25.752  0.00  0.00    +0.179 C 
BRANCH  25  26
ATOM     26  O   UNK A   1      10.342  -5.516  25.306  0.00  0.00    -0.393 OA
ATOM     27  H   UNK A   1      10.245  -5.820  24.386  0.00  0.00    +0.209 HD
ENDBRANCH  25  26
ENDBRANCH  18  25
ENDBRANCH   1  18
TORSDOF 9
ENDMDL
MODEL 6
REMARK VINA RESULT:      -5.9      3.586      7.994
REMARK  Name = 
REMARK  11 active torsions:
REMARK  status: ('A' for Active; 'I' for Inactive)
REMARK    1  A    between atoms: C_1  and  S_2
REMARK    2  A    between atoms: S_2  and  C_3
REMARK    3  A    between atoms: C_3  and  S_4
REMARK    4  A    between atoms: S_4  and  C_6
REMARK    5  A    between atoms: C_6  and  C_7
REMARK    6  A    between atoms: C_7  and  C_9
REMARK    7  A    between atoms: C_7  and  N_11
REMARK    8  A    between atoms: C_9  and  O_10
REMARK    9  A    between atoms: C_12  and  C_14
REMARK   10  A    between atoms: C_15  and  C_16
REMARK   11  A    between atoms: C_17  and  C_18
REMARK                            x       y       z     vdW  Elec       q    Type
REMARK                         _______ _______ _______ _____ _____    ______ ____
ROOT
ATOM      1  N   UNK A   1       8.643  -2.549  25.287  0.00  0.00    -0.306 N 
ATOM      2  H   UNK A   1       8.127  -1.980  25.957  0.00  0.00    +0.149 HD
ATOM      3  C   UNK A   0       9.571  -1.997  24.445  0.00  0.00    +0.237 C 
ATOM      4  O   UNK A   0      10.217  -2.636  23.624  0.00  0.00    -0.271 OA
ENDROOT
BRANCH   3   5
ATOM      5  C   UNK A   0       9.761  -0.543  24.630  0.00  0.00    +0.068 C 
ATOM      6  C   UNK A   0       8.792   0.283  24.206  0.00  0.00    +0.020 C 
BRANCH   6   7
ATOM      7  C   UNK A   0       8.903   1.730  24.172  0.00  0.00    +0.059 A 
ATOM      8  C   UNK A   0       8.234   2.521  25.258  0.00  0.00    +0.261 A 
ATOM      9  O   UNK A   0       7.609   1.983  26.168  0.00  0.00    -0.267 OA
ATOM     10  N   UNK A   0       8.353   3.880  25.186  0.00  0.00    -0.275 N 
ATOM     11  H   UNK A   0       7.910   4.424  25.910  0.00  0.00    +0.173 HD
ATOM     12  C   UNK A   0       8.983   4.562  24.192  0.00  0.00    +0.327 A 
ATOM     13  O   UNK A   0       9.038   5.786  24.162  0.00  0.00    -0.247 OA
ATOM     14  N   UNK A   0       9.547   3.792  23.213  0.00  0.00    -0.311 N 
ATOM     15  H   UNK A   0      10.001   4.311  22.469  0.00  0.00    +0.170 HD
ATOM     16  C   UNK A   0       9.512   2.419  23.183  0.00  0.00    +0.030 A 
ATOM     17  C   UNK A   0      10.152   1.806  21.965  0.00  0.00    +0.064 C 
ENDBRANCH   6   7
ENDBRANCH   3   5
BRANCH   1  18
ATOM     18  C   UNK A   1       8.359  -3.983  25.253  0.00  0.00    +0.111 C 
BRANCH  18  19
ATOM     19  C   UNK A   1       6.854  -4.278  25.251  0.00  0.00    +0.129 C 
BRANCH  19  20
ATOM     20  S   UNK A   1       5.964  -3.563  23.833  0.00  0.00    +0.034 S 
ATOM     21  O   UNK A   1       6.075  -2.068  23.958  0.00  0.00    -0.256 OA
BRANCH  20  22
ATOM     22  C   UNK A   1       7.129  -4.109  22.533  0.00  0.00    +0.172 C 
BRANCH  22  24
ATOM     23  C   UNK A   1       5.047  -5.923  22.437  0.00  0.00    +0.085 C 
ATOM     24  S   UNK A   1       6.760  -5.765  21.879  0.00  0.00    -0.151 S 
ENDBRANCH  22  24
ENDBRANCH  20  22
ENDBRANCH  19  20
ENDBRANCH  18  19
BRANCH  18  25
ATOM     25  C   UNK A   1       9.165  -4.758  26.316  0.00  0.00    +0.179 C 
BRANCH  25  26
ATOM     26  O   UNK A   1      10.270  -5.473  25.775  0.00  0.00    -0.393 OA
ATOM     27  H   UNK A   1       9.993  -6.403  25.697  0.00  0.00    +0.209 HD
ENDBRANCH  25  26
ENDBRANCH  18  25
ENDBRANCH   1  18
TORSDOF 9
ENDMDL
MODEL 7
REMARK VINA RESULT:      -5.9      3.275      4.824
REMARK  Name = 
REMARK  11 active torsions:
REMARK  status: ('A' for Active; 'I' for Inactive)
REMARK    1  A    between atoms: C_1  and  S_2
REMARK    2  A    between atoms: S_2  and  C_3
REMARK    3  A    between atoms: C_3  and  S_4
REMARK    4  A    between atoms: S_4  and  C_6
REMARK    5  A    between atoms: C_6  and  C_7
REMARK    6  A    between atoms: C_7  and  C_9
REMARK    7  A    between atoms: C_7  and  N_11
REMARK    8  A    between atoms: C_9  and  O_10
REMARK    9  A    between atoms: C_12  and  C_14
REMARK   10  A    between atoms: C_15  and  C_16
REMARK   11  A    between atoms: C_17  and  C_18
REMARK                            x       y       z     vdW  Elec       q    Type
REMARK                         _______ _______ _______ _____ _____    ______ ____
ROOT
ATOM      1  N   UNK A   1       8.824  -2.908  23.904  0.00  0.00    -0.306 N 
ATOM      2  H   UNK A   1       7.923  -2.678  23.486  0.00  0.00    +0.149 HD
ATOM      3  C   UNK A   0       9.099  -4.167  24.364  0.00  0.00    +0.237 C 
ATOM      4  O   UNK A   0      10.165  -4.493  24.872  0.00  0.00    -0.271 OA
ENDROOT
BRANCH   3   5
ATOM      5  C   UNK A   0       7.998  -5.134  24.166  0.00  0.00    +0.068 C 
ATOM      6  C   UNK A   0       6.803  -4.854  24.706  0.00  0.00    +0.020 C 
BRANCH   6   7
ATOM      7  C   UNK A   0       5.679  -5.772  24.735  0.00  0.00    +0.059 A 
ATOM      8  C   UNK A   0       5.346  -6.450  26.032  0.00  0.00    +0.261 A 
ATOM      9  O   UNK A   0       5.988  -6.246  27.060  0.00  0.00    -0.267 OA
ATOM     10  N   UNK A   0       4.288  -7.314  26.017  0.00  0.00    -0.275 N 
ATOM     11  H   UNK A   0       4.052  -7.775  26.881  0.00  0.00    +0.173 HD
ATOM     12  C   UNK A   0       3.553  -7.635  24.918  0.00  0.00    +0.327 A 
ATOM     13  O   UNK A   0       2.627  -8.438  24.954  0.00  0.00    -0.247 OA
ATOM     14  N   UNK A   0       3.919  -7.011  23.758  0.00  0.00    -0.311 N 
ATOM     15  H   UNK A   0       3.375  -7.271  22.943  0.00  0.00    +0.170 HD
ATOM     16  C   UNK A   0       4.952  -6.111  23.649  0.00  0.00    +0.030 A 
ATOM     17  C   UNK A   0       5.196  -5.611  22.249  0.00  0.00    +0.064 C 
ENDBRANCH   6   7
ENDBRANCH   3   5
BRANCH   1  18
ATOM     18  C   UNK A   1       9.820  -1.841  23.996  0.00  0.00    +0.111 C 
BRANCH  18  19
ATOM     19  C   UNK A   1       9.314  -0.642  24.809  0.00  0.00    +0.129 C 
BRANCH  19  20
ATOM     20  S   UNK A   1       7.972   0.284  24.002  0.00  0.00    +0.034 S 
ATOM     21  O   UNK A   1       7.181  -0.710  23.195  0.00  0.00    -0.256 OA
BRANCH  20  22
ATOM     22  C   UNK A   1       7.018   0.669  25.514  0.00  0.00    +0.172 C 
BRANCH  22  24
ATOM     23  C   UNK A   1       6.269  -1.731  26.660  0.00  0.00    +0.085 C 
ATOM     24  S   UNK A   1       5.539  -0.369  25.721  0.00  0.00    -0.151 S 
ENDBRANCH  22  24
ENDBRANCH  20  22
ENDBRANCH  19  20
ENDBRANCH  18  19
BRANCH  18  25
ATOM     25  C   UNK A   1      10.411  -1.480  22.618  0.00  0.00    +0.179 C 
BRANCH  25  26
ATOM     26  O   UNK A   1       9.558  -1.823  21.532  0.00  0.00    -0.393 OA
ATOM     27  H   UNK A   1       9.395  -2.781  21.592  0.00  0.00    +0.209 HD
ENDBRANCH  25  26
ENDBRANCH  18  25
ENDBRANCH   1  18
TORSDOF 9
ENDMDL
MODEL 8
REMARK VINA RESULT:      -5.9      2.804      3.339
REMARK  Name = 
REMARK  11 active torsions:
REMARK  status: ('A' for Active; 'I' for Inactive)
REMARK    1  A    between atoms: C_1  and  S_2
REMARK    2  A    between atoms: S_2  and  C_3
REMARK    3  A    between atoms: C_3  and  S_4
REMARK    4  A    between atoms: S_4  and  C_6
REMARK    5  A    between atoms: C_6  and  C_7
REMARK    6  A    between atoms: C_7  and  C_9
REMARK    7  A    between atoms: C_7  and  N_11
REMARK    8  A    between atoms: C_9  and  O_10
REMARK    9  A    between atoms: C_12  and  C_14
REMARK   10  A    between atoms: C_15  and  C_16
REMARK   11  A    between atoms: C_17  and  C_18
REMARK                            x       y       z     vdW  Elec       q    Type
REMARK                         _______ _______ _______ _____ _____    ______ ____
ROOT
ATOM      1  N   UNK A   1       8.427  -0.651  23.421  0.00  0.00    -0.306 N 
ATOM      2  H   UNK A   1       7.463  -0.335  23.325  0.00  0.00    +0.149 HD
ATOM      3  C   UNK A   0       8.726  -1.927  23.816  0.00  0.00    +0.237 C 
ATOM      4  O   UNK A   0       9.866  -2.354  23.947  0.00  0.00    -0.271 OA
ENDROOT
BRANCH   3   5
ATOM      5  C   UNK A   0       7.540  -2.778  24.047  0.00  0.00    +0.068 C 
ATOM      6  C   UNK A   0       7.705  -4.109  24.057  0.00  0.00    +0.020 C 
BRANCH   6   7
ATOM      7  C   UNK A   0       6.620  -5.072  24.110  0.00  0.00    +0.059 A 
ATOM      8  C   UNK A   0       6.095  -5.479  25.456  0.00  0.00    +0.261 A 
ATOM      9  O   UNK A   0       6.548  -5.020  26.501  0.00  0.00    -0.267 OA
ATOM     10  N   UNK A   0       5.080  -6.394  25.465  0.00  0.00    -0.275 N 
ATOM     11  H   UNK A   0       4.716  -6.675  26.361  0.00  0.00    +0.173 HD
ATOM     12  C   UNK A   0       4.550  -6.989  24.362  0.00  0.00    +0.327 A 
ATOM     13  O   UNK A   0       3.656  -7.825  24.428  0.00  0.00    -0.247 OA
ATOM     14  N   UNK A   0       5.088  -6.603  23.166  0.00  0.00    -0.311 N 
ATOM     15  H   UNK A   0       4.696  -7.065  22.352  0.00  0.00    +0.170 HD
ATOM     16  C   UNK A   0       6.097  -5.681  23.025  0.00  0.00    +0.030 A 
ATOM     17  C   UNK A   0       6.557  -5.475  21.606  0.00  0.00    +0.064 C 
ENDBRANCH   6   7
ENDBRANCH   3   5
BRANCH   1  18
ATOM     18  C   UNK A   1       9.489   0.310  23.123  0.00  0.00    +0.111 C 
BRANCH  18  19
ATOM     19  C   UNK A   1       9.570   1.430  24.167  0.00  0.00    +0.129 C 
BRANCH  19  20
ATOM     20  S   UNK A   1       7.974   2.232  24.514  0.00  0.00    +0.034 S 
ATOM     21  O   UNK A   1       7.791   2.212  26.008  0.00  0.00    -0.256 OA
BRANCH  20  22
ATOM     22  C   UNK A   1       8.459   3.928  24.028  0.00  0.00    +0.172 C 
BRANCH  22  24
ATOM     23  C   UNK A   1       6.599   3.121  22.152  0.00  0.00    +0.085 C 
ATOM     24  S   UNK A   1       7.413   4.632  22.718  0.00  0.00    -0.151 S 
ENDBRANCH  22  24
ENDBRANCH  20  22
ENDBRANCH  19  20
ENDBRANCH  18  19
BRANCH  18  25
ATOM     25  C   UNK A   1       9.434   0.797  21.660  0.00  0.00    +0.179 C 
BRANCH  25  26
ATOM     26  O   UNK A   1      10.033   2.073  21.468  0.00  0.00    -0.393 OA
ATOM     27  H   UNK A   1      10.113   2.483  22.347  0.00  0.00    +0.209 HD
ENDBRANCH  25  26
ENDBRANCH  18  25
ENDBRANCH   1  18
TORSDOF 9
ENDMDL
MODEL 9
REMARK VINA RESULT:      -5.9      2.637      2.857
REMARK  Name = 
REMARK  11 active torsions:
REMARK  status: ('A' for Active; 'I' for Inactive)
REMARK    1  A    between atoms: C_1  and  S_2
REMARK    2  A    between atoms: S_2  and  C_3
REMARK    3  A    between atoms: C_3  and  S_4
REMARK    4  A    between atoms: S_4  and  C_6
REMARK    5  A    between atoms: C_6  and  C_7
REMARK    6  A    between atoms: C_7  and  C_9
REMARK    7  A    between atoms: C_7  and  N_11
REMARK    8  A    between atoms: C_9  and  O_10
REMARK    9  A    between atoms: C_12  and  C_14
REMARK   10  A    between atoms: C_15  and  C_16
REMARK   11  A    between atoms: C_17  and  C_18
REMARK                            x       y       z     vdW  Elec       q    Type
REMARK                         _______ _______ _______ _____ _____    ______ ____
ROOT
ATOM      1  N   UNK A   1       8.758  -0.525  23.753  0.00  0.00    -0.306 N 
ATOM      2  H   UNK A   1       7.830  -0.172  23.981  0.00  0.00    +0.149 HD
ATOM      3  C   UNK A   0       9.038  -1.865  23.767  0.00  0.00    +0.237 C 
ATOM      4  O   UNK A   0      10.136  -2.338  23.500  0.00  0.00    -0.271 OA
ENDROOT
BRANCH   3   5
ATOM      5  C   UNK A   0       7.879  -2.718  24.105  0.00  0.00    +0.068 C 
ATOM      6  C   UNK A   0       8.036  -4.049  24.064  0.00  0.00    +0.020 C 
BRANCH   6   7
ATOM      7  C   UNK A   0       6.958  -5.009  24.212  0.00  0.00    +0.059 A 
ATOM      8  C   UNK A   0       6.347  -5.590  22.971  0.00  0.00    +0.261 A 
ATOM      9  O   UNK A   0       6.734  -5.285  21.846  0.00  0.00    -0.267 OA
ATOM     10  N   UNK A   0       5.328  -6.483  23.151  0.00  0.00    -0.275 N 
ATOM     11  H   UNK A   0       4.910  -6.883  22.326  0.00  0.00    +0.173 HD
ATOM     12  C   UNK A   0       4.804  -6.844  24.354  0.00  0.00    +0.327 A 
ATOM     13  O   UNK A   0       3.871  -7.632  24.458  0.00  0.00    -0.247 OA
ATOM     14  N   UNK A   0       5.378  -6.260  25.448  0.00  0.00    -0.311 N 
ATOM     15  H   UNK A   0       4.969  -6.524  26.338  0.00  0.00    +0.170 HD
ATOM     16  C   UNK A   0       6.418  -5.363  25.398  0.00  0.00    +0.030 A 
ATOM     17  C   UNK A   0       6.832  -4.815  26.739  0.00  0.00    +0.064 C 
ENDBRANCH   6   7
ENDBRANCH   3   5
BRANCH   1  18
ATOM     18  C   UNK A   1       9.789   0.453  23.407  0.00  0.00    +0.111 C 
BRANCH  18  19
ATOM     19  C   UNK A   1       9.744   1.690  24.312  0.00  0.00    +0.129 C 
BRANCH  19  20
ATOM     20  S   UNK A   1       8.060   2.263  24.695  0.00  0.00    +0.034 S 
ATOM     21  O   UNK A   1       7.637   1.563  25.959  0.00  0.00    -0.256 OA
BRANCH  20  22
ATOM     22  C   UNK A   1       8.496   3.987  25.125  0.00  0.00    +0.172 C 
BRANCH  22  24
ATOM     23  C   UNK A   1      10.358   5.596  23.870  0.00  0.00    +0.085 C 
ATOM     24  S   UNK A   1       8.637   5.080  23.678  0.00  0.00    -0.151 S 
ENDBRANCH  22  24
ENDBRANCH  20  22
ENDBRANCH  19  20
ENDBRANCH  18  19
BRANCH  18  25
ATOM     25  C   UNK A   1       9.810   0.762  21.896  0.00  0.00    +0.179 C 
BRANCH  25  26
ATOM     26  O   UNK A   1      10.083   2.128  21.603  0.00  0.00    -0.393 OA
ATOM     27  H   UNK A   1      10.168   2.197  20.636  0.00  0.00    +0.209 HD
ENDBRANCH  25  26
ENDBRANCH  18  25
ENDBRANCH   1  18
TORSDOF 9
ENDMDL
