MODEL 1
REMARK VINA RESULT:      -5.9      0.000      0.000
REMARK  Name = 
REMARK  10 active torsions:
REMARK  status: ('A' for Active; 'I' for Inactive)
REMARK    1  A    between atoms: C_1  and  C_2
REMARK    2  A    between atoms: N_4  and  C_5
REMARK    3  A    between atoms: C_7  and  O_9
REMARK    4  A    between atoms: C_11  and  C_13
REMARK    5  A    between atoms: C_13  and  O_14
REMARK    6  A    between atoms: O_14  and  P_15
REMARK    7  A    between atoms: P_15  and  O_16
REMARK    8  A    between atoms: P_15  and  O_17
REMARK    9  A    between atoms: C_19  and  O_21
REMARK   10  A    between atoms: C_22  and  O_24
REMARK                            x       y       z     vdW  Elec       q    Type
REMARK                         _______ _______ _______ _____ _____    ______ ____
ROOT
ATOM      1  C   UNL     1       7.318  -2.942  23.382  0.00  0.00    +0.160 C 
ATOM      2  C   UNL     1       7.658  -1.840  22.364  0.00  0.00    +0.171 C 
ATOM      3  C   UNL     1       9.165  -1.783  22.079  0.00  0.00    +0.176 C 
ATOM      4  C   UNL     1       9.981  -1.699  23.378  0.00  0.00    +0.178 C 
ATOM      5  O   UNL     1       9.608  -2.747  24.286  0.00  0.00    -0.341 OA
ATOM      6  C   UNL     1       8.224  -2.804  24.632  0.00  0.00    +0.270 C 
ENDROOT
BRANCH   1   9
ATOM      7  C   UNL     1       6.647  -6.229  21.597  0.00  0.00    +0.109 C 
ATOM      8  C   UNL     1       6.357  -4.852  22.126  0.00  0.00    +0.210 C 
ATOM      9  N   UNL     1       7.417  -4.284  22.793  0.00  0.00    -0.305 N 
ATOM     10  H   UNL     1       8.294  -4.787  22.867  0.00  0.00    +0.149 HD
ATOM     11  O   UNL     1       5.282  -4.289  21.961  0.00  0.00    -0.276 OA
ENDBRANCH   1   9
BRANCH   2  12
ATOM     12  O   UNL     1       7.218  -0.567  22.862  0.00  0.00    -0.387 OA
ATOM     13  H   UNL     1       8.036  -0.031  22.934  0.00  0.00    +0.210 HD
ENDBRANCH   2  12
BRANCH   3  14
ATOM     14  O   UNL     1       9.444  -0.684  21.204  0.00  0.00    -0.387 OA
ATOM     15  H   UNL     1       8.656  -0.115  21.188  0.00  0.00    +0.210 HD
ENDBRANCH   3  14
BRANCH   6  16
ATOM     16  O   UNL     1       7.840  -1.738  25.477  0.00  0.00    -0.365 OA
ATOM     17  H   UNL     1       8.366  -1.801  26.298  0.00  0.00    +0.213 HD
ENDBRANCH   6  16
BRANCH   4  18
ATOM     18  C   UNL     1      10.022  -0.305  24.026  0.00  0.00    +0.206 C 
BRANCH  18  19
ATOM     19  O   UNL     1      10.719   0.569  23.151  0.00  0.00    -0.284 OA
BRANCH  19  20
ATOM     20  P   UNL     1      10.172   2.062  22.993  0.00  0.00    +0.472 P 
ATOM     21  O   UNL     1      11.027   3.136  23.560  0.00  0.00    -0.228 OA
BRANCH  20  22
ATOM     22  O   UNL     1       8.724   1.972  23.661  0.00  0.00    -0.303 OA
ATOM     23  H   UNL     1       8.700   1.217  24.279  0.00  0.00    +0.222 HD
ENDBRANCH  20  22
BRANCH  20  24
ATOM     24  O   UNL     1       9.864   2.139  21.435  0.00  0.00    -0.303 OA
ATOM     25  H   UNL     1       9.969   3.055  21.123  0.00  0.00    +0.222 HD
ENDBRANCH  20  24
ENDBRANCH  19  20
ENDBRANCH  18  19
ENDBRANCH   4  18
TORSDOF 9
ENDMDL
MODEL 2
REMARK VINA RESULT:      -5.7      4.097      6.842
REMARK  Name = 
REMARK  10 active torsions:
REMARK  status: ('A' for Active; 'I' for Inactive)
REMARK    1  A    between atoms: C_1  and  C_2
REMARK    2  A    between atoms: N_4  and  C_5
REMARK    3  A    between atoms: C_7  and  O_9
REMARK    4  A    between atoms: C_11  and  C_13
REMARK    5  A    between atoms: C_13  and  O_14
REMARK    6  A    between atoms: O_14  and  P_15
REMARK    7  A    between atoms: P_15  and  O_16
REMARK    8  A    between atoms: P_15  and  O_17
REMARK    9  A    between atoms: C_19  and  O_21
REMARK   10  A    between atoms: C_22  and  O_24
REMARK                            x       y       z     vdW  Elec       q    Type
REMARK                         _______ _______ _______ _____ _____    ______ ____
ROOT
ATOM      1  C   UNL     1       9.159  -3.467  24.457  0.00  0.00    +0.160 C 
ATOM      2  C   UNL     1       7.886  -3.790  23.655  0.00  0.00    +0.171 C 
ATOM      3  C   UNL     1       6.619  -3.383  24.423  0.00  0.00    +0.176 C 
ATOM      4  C   UNL     1       6.616  -3.959  25.847  0.00  0.00    +0.178 C 
ATOM      5  O   UNL     1       7.834  -3.630  26.536  0.00  0.00    -0.341 OA
ATOM      6  C   UNL     1       9.039  -4.042  25.891  0.00  0.00    +0.270 C 
ENDROOT
BRANCH   1   9
ATOM      7  C   UNL     1      10.348   0.055  23.669  0.00  0.00    +0.109 C 
ATOM      8  C   UNL     1      10.155  -1.422  23.469  0.00  0.00    +0.210 C 
ATOM      9  N   UNL     1       9.443  -2.026  24.479  0.00  0.00    -0.305 N 
ATOM     10  H   UNL     1       9.087  -1.469  25.247  0.00  0.00    +0.149 HD
ATOM     11  O   UNL     1      10.581  -2.023  22.490  0.00  0.00    -0.276 OA
ENDBRANCH   1   9
BRANCH   2  12
ATOM     12  O   UNL     1       7.838  -5.195  23.366  0.00  0.00    -0.387 OA
ATOM     13  H   UNL     1       8.537  -5.335  22.692  0.00  0.00    +0.210 HD
ENDBRANCH   2  12
BRANCH   3  14
ATOM     14  O   UNL     1       5.463  -3.791  23.683  0.00  0.00    -0.387 OA
ATOM     15  H   UNL     1       5.074  -4.554  24.143  0.00  0.00    +0.210 HD
ENDBRANCH   3  14
BRANCH   6  16
ATOM     16  O   UNL     1       9.219  -5.444  25.940  0.00  0.00    -0.365 OA
ATOM     17  H   UNL     1       9.903  -5.635  26.610  0.00  0.00    +0.213 HD
ENDBRANCH   6  16
BRANCH   4  18
ATOM     18  C   UNL     1       6.233  -5.444  25.944  0.00  0.00    +0.206 C 
BRANCH  18  19
ATOM     19  O   UNL     1       5.362  -5.604  27.054  0.00  0.00    -0.284 OA
BRANCH  19  20
ATOM     20  P   UNL     1       5.992  -6.110  28.432  0.00  0.00    +0.472 P 
ATOM     21  O   UNL     1       5.781  -5.229  29.610  0.00  0.00    -0.228 OA
BRANCH  20  22
ATOM     22  O   UNL     1       7.529  -6.322  28.053  0.00  0.00    -0.303 OA
ATOM     23  H   UNL     1       7.686  -7.264  27.857  0.00  0.00    +0.222 HD
ENDBRANCH  20  22
BRANCH  20  24
ATOM     24  O   UNL     1       5.421  -7.591  28.533  0.00  0.00    -0.303 OA
ATOM     25  H   UNL     1       6.101  -8.181  28.904  0.00  0.00    +0.222 HD
ENDBRANCH  20  24
ENDBRANCH  19  20
ENDBRANCH  18  19
ENDBRANCH   4  18
TORSDOF 9
ENDMDL
MODEL 3
REMARK VINA RESULT:      -5.7      4.221      6.963
REMARK  Name = 
REMARK  10 active torsions:
REMARK  status: ('A' for Active; 'I' for Inactive)
REMARK    1  A    between atoms: C_1  and  C_2
REMARK    2  A    between atoms: N_4  and  C_5
REMARK    3  A    between atoms: C_7  and  O_9
REMARK    4  A    between atoms: C_11  and  C_13
REMARK    5  A    between atoms: C_13  and  O_14
REMARK    6  A    between atoms: O_14  and  P_15
REMARK    7  A    between atoms: P_15  and  O_16
REMARK    8  A    between atoms: P_15  and  O_17
REMARK    9  A    between atoms: C_19  and  O_21
REMARK   10  A    between atoms: C_22  and  O_24
REMARK                            x       y       z     vdW  Elec       q    Type
REMARK                         _______ _______ _______ _____ _____    ______ ____
ROOT
ATOM      1  C   UNL     1       9.004  -3.315  24.100  0.00  0.00    +0.160 C 
ATOM      2  C   UNL     1       7.474  -3.439  24.214  0.00  0.00    +0.171 C 
ATOM      3  C   UNL     1       7.002  -3.256  25.664  0.00  0.00    +0.176 C 
ATOM      4  C   UNL     1       7.771  -4.174  26.626  0.00  0.00    +0.178 C 
ATOM      5  O   UNL     1       9.189  -4.016  26.462  0.00  0.00    -0.341 OA
ATOM      6  C   UNL     1       9.688  -4.237  25.142  0.00  0.00    +0.270 C 
ENDROOT
BRANCH   1   9
ATOM      7  C   UNL     1      10.561   0.111  23.576  0.00  0.00    +0.109 C 
ATOM      8  C   UNL     1      10.191  -1.309  23.253  0.00  0.00    +0.210 C 
ATOM      9  N   UNL     1       9.454  -1.923  24.238  0.00  0.00    -0.305 N 
ATOM     10  H   UNL     1       9.194  -1.406  25.071  0.00  0.00    +0.149 HD
ATOM     11  O   UNL     1      10.506  -1.857  22.204  0.00  0.00    -0.276 OA
ENDBRANCH   1   9
BRANCH   2  12
ATOM     12  O   UNL     1       7.055  -4.726  23.734  0.00  0.00    -0.387 OA
ATOM     13  H   UNL     1       7.843  -5.091  23.279  0.00  0.00    +0.210 HD
ENDBRANCH   2  12
BRANCH   3  14
ATOM     14  O   UNL     1       5.589  -3.476  25.735  0.00  0.00    -0.387 OA
ATOM     15  H   UNL     1       5.421  -4.396  25.468  0.00  0.00    +0.210 HD
ENDBRANCH   3  14
BRANCH   6  16
ATOM     16  O   UNL     1       9.651  -5.602  24.778  0.00  0.00    -0.365 OA
ATOM     17  H   UNL     1       8.833  -5.989  25.147  0.00  0.00    +0.213 HD
ENDBRANCH   6  16
BRANCH   4  18
ATOM     18  C   UNL     1       7.308  -5.640  26.630  0.00  0.00    +0.206 C 
BRANCH  18  19
ATOM     19  O   UNL     1       7.272  -6.088  27.977  0.00  0.00    -0.284 OA
BRANCH  19  20
ATOM     20  P   UNL     1       5.859  -6.099  28.723  0.00  0.00    +0.472 P 
ATOM     21  O   UNL     1       4.869  -5.090  28.265  0.00  0.00    -0.228 OA
BRANCH  20  22
ATOM     22  O   UNL     1       6.277  -5.941  30.257  0.00  0.00    -0.303 OA
ATOM     23  H   UNL     1       5.623  -6.398  30.818  0.00  0.00    +0.222 HD
ENDBRANCH  20  22
BRANCH  20  24
ATOM     24  O   UNL     1       5.433  -7.627  28.604  0.00  0.00    -0.303 OA
ATOM     25  H   UNL     1       6.074  -8.105  28.049  0.00  0.00    +0.222 HD
ENDBRANCH  20  24
ENDBRANCH  19  20
ENDBRANCH  18  19
ENDBRANCH   4  18
TORSDOF 9
ENDMDL
MODEL 4
REMARK VINA RESULT:      -5.7      1.573      2.290
REMARK  Name = 
REMARK  10 active torsions:
REMARK  status: ('A' for Active; 'I' for Inactive)
REMARK    1  A    between atoms: C_1  and  C_2
REMARK    2  A    between atoms: N_4  and  C_5
REMARK    3  A    between atoms: C_7  and  O_9
REMARK    4  A    between atoms: C_11  and  C_13
REMARK    5  A    between atoms: C_13  and  O_14
REMARK    6  A    between atoms: O_14  and  P_15
REMARK    7  A    between atoms: P_15  and  O_16
REMARK    8  A    between atoms: P_15  and  O_17
REMARK    9  A    between atoms: C_19  and  O_21
REMARK   10  A    between atoms: C_22  and  O_24
REMARK                            x       y       z     vdW  Elec       q    Type
REMARK                         _______ _______ _______ _____ _____    ______ ____
ROOT
ATOM      1  C   UNL     1       7.106  -1.504  22.648  0.00  0.00    +0.160 C 
ATOM      2  C   UNL     1       8.446  -2.251  22.520  0.00  0.00    +0.171 C 
ATOM      3  C   UNL     1       9.293  -2.109  23.792  0.00  0.00    +0.176 C 
ATOM      4  C   UNL     1       9.442  -0.637  24.207  0.00  0.00    +0.178 C 
ATOM      5  O   UNL     1       8.159   0.003  24.298  0.00  0.00    -0.341 OA
ATOM      6  C   UNL     1       7.356  -0.049  23.118  0.00  0.00    +0.270 C 
ENDROOT
BRANCH   1   9
ATOM      7  C   UNL     1       4.430  -3.764  24.121  0.00  0.00    +0.109 C 
ATOM      8  C   UNL     1       5.312  -3.165  23.061  0.00  0.00    +0.210 C 
ATOM      9  N   UNL     1       6.170  -2.203  23.539  0.00  0.00    -0.305 N 
ATOM     10  H   UNL     1       6.178  -1.980  24.528  0.00  0.00    +0.149 HD
ATOM     11  O   UNL     1       5.276  -3.517  21.889  0.00  0.00    -0.276 OA
ENDBRANCH   1   9
BRANCH   2  12
ATOM     12  O   UNL     1       9.181  -1.740  21.397  0.00  0.00    -0.387 OA
ATOM     13  H   UNL     1       8.507  -1.298  20.838  0.00  0.00    +0.210 HD
ENDBRANCH   2  12
BRANCH   3  14
ATOM     14  O   UNL     1      10.564  -2.735  23.591  0.00  0.00    -0.387 OA
ATOM     15  H   UNL     1      10.524  -3.216  22.747  0.00  0.00    +0.210 HD
ENDBRANCH   3  14
BRANCH   6  16
ATOM     16  O   UNL     1       7.861   0.784  22.093  0.00  0.00    -0.365 OA
ATOM     17  H   UNL     1       8.830   0.840  22.202  0.00  0.00    +0.213 HD
ENDBRANCH   6  16
BRANCH   4  18
ATOM     18  C   UNL     1      10.475   0.162  23.396  0.00  0.00    +0.206 C 
BRANCH  18  19
ATOM     19  O   UNL     1      10.715   1.387  24.072  0.00  0.00    -0.284 OA
BRANCH  19  20
ATOM     20  P   UNL     1      10.423   2.746  23.283  0.00  0.00    +0.472 P 
ATOM     21  O   UNL     1      11.382   3.857  23.517  0.00  0.00    -0.228 OA
BRANCH  20  22
ATOM     22  O   UNL     1       8.925   3.085  23.720  0.00  0.00    -0.303 OA
ATOM     23  H   UNL     1       8.315   2.835  23.001  0.00  0.00    +0.222 HD
ENDBRANCH  20  22
BRANCH  20  24
ATOM     24  O   UNL     1      10.272   2.234  21.785  0.00  0.00    -0.303 OA
ATOM     25  H   UNL     1      10.951   2.650  21.225  0.00  0.00    +0.222 HD
ENDBRANCH  20  24
ENDBRANCH  19  20
ENDBRANCH  18  19
ENDBRANCH   4  18
TORSDOF 9
ENDMDL
MODEL 5
REMARK VINA RESULT:      -5.5      3.225      5.829
REMARK  Name = 
REMARK  10 active torsions:
REMARK  status: ('A' for Active; 'I' for Inactive)
REMARK    1  A    between atoms: C_1  and  C_2
REMARK    2  A    between atoms: N_4  and  C_5
REMARK    3  A    between atoms: C_7  and  O_9
REMARK    4  A    between atoms: C_11  and  C_13
REMARK    5  A    between atoms: C_13  and  O_14
REMARK    6  A    between atoms: O_14  and  P_15
REMARK    7  A    between atoms: P_15  and  O_16
REMARK    8  A    between atoms: P_15  and  O_17
REMARK    9  A    between atoms: C_19  and  O_21
REMARK   10  A    between atoms: C_22  and  O_24
REMARK                            x       y       z     vdW  Elec       q    Type
REMARK                         _______ _______ _______ _____ _____    ______ ____
ROOT
ATOM      1  C   UNL     1       8.892   1.130  23.920  0.00  0.00    +0.160 C 
ATOM      2  C   UNL     1       9.835   0.405  22.943  0.00  0.00    +0.171 C 
ATOM      3  C   UNL     1       9.178  -0.853  22.356  0.00  0.00    +0.176 C 
ATOM      4  C   UNL     1       8.615  -1.760  23.460  0.00  0.00    +0.178 C 
ATOM      5  O   UNL     1       7.752  -1.021  24.341  0.00  0.00    -0.341 OA
ATOM      6  C   UNL     1       8.336   0.125  24.960  0.00  0.00    +0.270 C 
ENDROOT
BRANCH   1   9
ATOM      7  C   UNL     1       6.681   3.714  22.224  0.00  0.00    +0.109 C 
ATOM      8  C   UNL     1       7.886   3.175  22.943  0.00  0.00    +0.210 C 
ATOM      9  N   UNL     1       7.808   1.831  23.218  0.00  0.00    -0.305 N 
ATOM     10  H   UNL     1       6.998   1.300  22.917  0.00  0.00    +0.149 HD
ATOM     11  O   UNL     1       8.850   3.871  23.240  0.00  0.00    -0.276 OA
ENDBRANCH   1   9
BRANCH   2  12
ATOM     12  O   UNL     1      11.047   0.039  23.620  0.00  0.00    -0.387 OA
ATOM     13  H   UNL     1      10.879   0.250  24.563  0.00  0.00    +0.210 HD
ENDBRANCH   2  12
BRANCH   3  14
ATOM     14  O   UNL     1      10.124  -1.544  21.533  0.00  0.00    -0.387 OA
ATOM     15  H   UNL     1      11.012  -1.342  21.872  0.00  0.00    +0.210 HD
ENDBRANCH   3  14
BRANCH   6  16
ATOM     16  O   UNL     1       9.285  -0.227  25.948  0.00  0.00    -0.365 OA
ATOM     17  H   UNL     1       8.835  -0.789  26.608  0.00  0.00    +0.213 HD
ENDBRANCH   6  16
BRANCH   4  18
ATOM     18  C   UNL     1       9.662  -2.614  24.194  0.00  0.00    +0.206 C 
BRANCH  18  19
ATOM     19  O   UNL     1       9.064  -3.128  25.374  0.00  0.00    -0.284 OA
BRANCH  19  20
ATOM     20  P   UNL     1       8.966  -4.714  25.533  0.00  0.00    +0.472 P 
ATOM     21  O   UNL     1       7.734  -5.351  24.998  0.00  0.00    -0.228 OA
BRANCH  20  22
ATOM     22  O   UNL     1       9.165  -4.918  27.105  0.00  0.00    -0.303 OA
ATOM     23  H   UNL     1       8.660  -5.701  27.395  0.00  0.00    +0.222 HD
ENDBRANCH  20  22
BRANCH  20  24
ATOM     24  O   UNL     1      10.349  -5.196  24.912  0.00  0.00    -0.303 OA
ATOM     25  H   UNL     1      10.687  -5.958  25.414  0.00  0.00    +0.222 HD
ENDBRANCH  20  24
ENDBRANCH  19  20
ENDBRANCH  18  19
ENDBRANCH   4  18
TORSDOF 9
ENDMDL
MODEL 6
REMARK VINA RESULT:      -5.5      3.234      5.987
REMARK  Name = 
REMARK  10 active torsions:
REMARK  status: ('A' for Active; 'I' for Inactive)
REMARK    1  A    between atoms: C_1  and  C_2
REMARK    2  A    between atoms: N_4  and  C_5
REMARK    3  A    between atoms: C_7  and  O_9
REMARK    4  A    between atoms: C_11  and  C_13
REMARK    5  A    between atoms: C_13  and  O_14
REMARK    6  A    between atoms: O_14  and  P_15
REMARK    7  A    between atoms: P_15  and  O_16
REMARK    8  A    between atoms: P_15  and  O_17
REMARK    9  A    between atoms: C_19  and  O_21
REMARK   10  A    between atoms: C_22  and  O_24
REMARK                            x       y       z     vdW  Elec       q    Type
REMARK                         _______ _______ _______ _____ _____    ______ ____
ROOT
ATOM      1  C   UNL     1       8.587   0.930  22.542  0.00  0.00    +0.160 C 
ATOM      2  C   UNL     1       7.769   0.087  23.536  0.00  0.00    +0.171 C 
ATOM      3  C   UNL     1       8.661  -0.509  24.635  0.00  0.00    +0.176 C 
ATOM      4  C   UNL     1       9.867  -1.252  24.039  0.00  0.00    +0.178 C 
ATOM      5  O   UNL     1      10.579  -0.414  23.115  0.00  0.00    -0.341 OA
ATOM      6  C   UNL     1       9.806   0.116  22.038  0.00  0.00    +0.270 C 
ENDROOT
BRANCH   1   9
ATOM      7  C   UNL     1       8.857   4.575  23.582  0.00  0.00    +0.109 C 
ATOM      8  C   UNL     1       8.274   3.362  22.912  0.00  0.00    +0.210 C 
ATOM      9  N   UNL     1       9.001   2.214  23.123  0.00  0.00    -0.305 N 
ATOM     10  H   UNL     1       9.831   2.242  23.705  0.00  0.00    +0.149 HD
ATOM     11  O   UNL     1       7.240   3.396  22.256  0.00  0.00    -0.276 OA
ENDBRANCH   1   9
BRANCH   2  12
ATOM     12  O   UNL     1       7.099  -0.974  22.837  0.00  0.00    -0.387 OA
ATOM     13  H   UNL     1       7.616  -1.779  23.051  0.00  0.00    +0.210 HD
ENDBRANCH   2  12
BRANCH   3  14
ATOM     14  O   UNL     1       7.875  -1.361  25.476  0.00  0.00    -0.387 OA
ATOM     15  H   UNL     1       8.288  -1.368  26.356  0.00  0.00    +0.210 HD
ENDBRANCH   3  14
BRANCH   6  16
ATOM     16  O   UNL     1       9.454  -0.875  21.094  0.00  0.00    -0.365 OA
ATOM     17  H   UNL     1      10.050  -1.639  21.225  0.00  0.00    +0.213 HD
ENDBRANCH   6  16
BRANCH   4  18
ATOM     18  C   UNL     1       9.557  -2.654  23.490  0.00  0.00    +0.206 C 
BRANCH  18  19
ATOM     19  O   UNL     1      10.007  -3.609  24.438  0.00  0.00    -0.284 OA
BRANCH  19  20
ATOM     20  P   UNL     1       8.975  -4.730  24.919  0.00  0.00    +0.472 P 
ATOM     21  O   UNL     1       8.057  -4.345  26.022  0.00  0.00    -0.228 OA
BRANCH  20  22
ATOM     22  O   UNL     1       9.936  -5.954  25.279  0.00  0.00    -0.303 OA
ATOM     23  H   UNL     1      10.621  -6.040  24.589  0.00  0.00    +0.222 HD
ENDBRANCH  20  22
BRANCH  20  24
ATOM     24  O   UNL     1       8.302  -5.170  23.547  0.00  0.00    -0.303 OA
ATOM     25  H   UNL     1       8.992  -5.404  22.902  0.00  0.00    +0.222 HD
ENDBRANCH  20  24
ENDBRANCH  19  20
ENDBRANCH  18  19
ENDBRANCH   4  18
TORSDOF 9
ENDMDL
MODEL 7
REMARK VINA RESULT:      -5.4      3.521      6.709
REMARK  Name = 
REMARK  10 active torsions:
REMARK  status: ('A' for Active; 'I' for Inactive)
REMARK    1  A    between atoms: C_1  and  C_2
REMARK    2  A    between atoms: N_4  and  C_5
REMARK    3  A    between atoms: C_7  and  O_9
REMARK    4  A    between atoms: C_11  and  C_13
REMARK    5  A    between atoms: C_13  and  O_14
REMARK    6  A    between atoms: O_14  and  P_15
REMARK    7  A    between atoms: P_15  and  O_16
REMARK    8  A    between atoms: P_15  and  O_17
REMARK    9  A    between atoms: C_19  and  O_21
REMARK   10  A    between atoms: C_22  and  O_24
REMARK                            x       y       z     vdW  Elec       q    Type
REMARK                         _______ _______ _______ _____ _____    ______ ____
ROOT
ATOM      1  C   UNL     1       9.776   2.942  23.176  0.00  0.00    +0.160 C 
ATOM      2  C   UNL     1       9.568   2.172  24.493  0.00  0.00    +0.171 C 
ATOM      3  C   UNL     1      10.275   0.809  24.465  0.00  0.00    +0.176 C 
ATOM      4  C   UNL     1       9.898   0.005  23.211  0.00  0.00    +0.178 C 
ATOM      5  O   UNL     1      10.106   0.783  22.021  0.00  0.00    -0.341 OA
ATOM      6  C   UNL     1       9.419   2.033  21.972  0.00  0.00    +0.270 C 
ENDROOT
BRANCH   1   9
ATOM      7  C   UNL     1      12.881   5.131  23.229  0.00  0.00    +0.109 C 
ATOM      8  C   UNL     1      11.435   4.768  23.421  0.00  0.00    +0.210 C 
ATOM      9  N   UNL     1      11.140   3.474  23.061  0.00  0.00    -0.305 N 
ATOM     10  H   UNL     1      11.877   2.863  22.728  0.00  0.00    +0.149 HD
ATOM     11  O   UNL     1      10.607   5.550  23.870  0.00  0.00    -0.276 OA
ENDBRANCH   1   9
BRANCH   2  12
ATOM     12  O   UNL     1       8.164   1.977  24.724  0.00  0.00    -0.387 OA
ATOM     13  H   UNL     1       7.900   1.282  24.084  0.00  0.00    +0.210 HD
ENDBRANCH   2  12
BRANCH   3  14
ATOM     14  O   UNL     1       9.973   0.091  25.666  0.00  0.00    -0.387 OA
ATOM     15  H   UNL     1       9.594  -0.766  25.409  0.00  0.00    +0.210 HD
ENDBRANCH   3  14
BRANCH   6  16
ATOM     16  O   UNL     1       8.025   1.872  21.797  0.00  0.00    -0.365 OA
ATOM     17  H   UNL     1       7.845   0.917  21.697  0.00  0.00    +0.213 HD
ENDBRANCH   6  16
BRANCH   4  18
ATOM     18  C   UNL     1       8.521  -0.678  23.271  0.00  0.00    +0.206 C 
BRANCH  18  19
ATOM     19  O   UNL     1       8.681  -2.029  22.865  0.00  0.00    -0.284 OA
BRANCH  19  20
ATOM     20  P   UNL     1       8.615  -3.160  23.991  0.00  0.00    +0.472 P 
ATOM     21  O   UNL     1       7.693  -4.295  23.727  0.00  0.00    -0.228 OA
BRANCH  20  22
ATOM     22  O   UNL     1       8.247  -2.324  25.301  0.00  0.00    -0.303 OA
ATOM     23  H   UNL     1       7.295  -2.424  25.490  0.00  0.00    +0.222 HD
ENDBRANCH  20  22
BRANCH  20  24
ATOM     24  O   UNL     1      10.152  -3.518  24.192  0.00  0.00    -0.303 OA
ATOM     25  H   UNL     1      10.520  -2.990  24.922  0.00  0.00    +0.222 HD
ENDBRANCH  20  24
ENDBRANCH  19  20
ENDBRANCH  18  19
ENDBRANCH   4  18
TORSDOF 9
ENDMDL
MODEL 8
REMARK VINA RESULT:      -5.4      3.355      6.556
REMARK  Name = 
REMARK  10 active torsions:
REMARK  status: ('A' for Active; 'I' for Inactive)
REMARK    1  A    between atoms: C_1  and  C_2
REMARK    2  A    between atoms: N_4  and  C_5
REMARK    3  A    between atoms: C_7  and  O_9
REMARK    4  A    between atoms: C_11  and  C_13
REMARK    5  A    between atoms: C_13  and  O_14
REMARK    6  A    between atoms: O_14  and  P_15
REMARK    7  A    between atoms: P_15  and  O_16
REMARK    8  A    between atoms: P_15  and  O_17
REMARK    9  A    between atoms: C_19  and  O_21
REMARK   10  A    between atoms: C_22  and  O_24
REMARK                            x       y       z     vdW  Elec       q    Type
REMARK                         _______ _______ _______ _____ _____    ______ ____
ROOT
ATOM      1  C   UNL     1       9.045  -3.017  23.830  0.00  0.00    +0.160 C 
ATOM      2  C   UNL     1       7.710  -2.902  23.073  0.00  0.00    +0.171 C 
ATOM      3  C   UNL     1       6.522  -2.806  24.041  0.00  0.00    +0.176 C 
ATOM      4  C   UNL     1       6.549  -3.937  25.080  0.00  0.00    +0.178 C 
ATOM      5  O   UNL     1       7.824  -3.996  25.741  0.00  0.00    -0.341 OA
ATOM      6  C   UNL     1       8.957  -4.147  24.887  0.00  0.00    +0.270 C 
ENDROOT
BRANCH   1   9
ATOM      7  C   UNL     1      10.498   0.422  24.536  0.00  0.00    +0.109 C 
ATOM      8  C   UNL     1      10.187  -0.818  23.745  0.00  0.00    +0.210 C 
ATOM      9  N   UNL     1       9.442  -1.741  24.440  0.00  0.00    -0.305 N 
ATOM     10  H   UNL     1       9.140  -1.537  25.386  0.00  0.00    +0.149 HD
ATOM     11  O   UNL     1      10.552  -0.977  22.587  0.00  0.00    -0.276 OA
ENDBRANCH   1   9
BRANCH   2  12
ATOM     12  O   UNL     1       7.537  -4.043  22.218  0.00  0.00    -0.387 OA
ATOM     13  H   UNL     1       6.903  -4.619  22.695  0.00  0.00    +0.210 HD
ENDBRANCH   2  12
BRANCH   3  14
ATOM     14  O   UNL     1       5.299  -2.800  23.296  0.00  0.00    -0.387 OA
ATOM     15  H   UNL     1       4.925  -3.696  23.338  0.00  0.00    +0.210 HD
ENDBRANCH   3  14
BRANCH   6  16
ATOM     16  O   UNL     1       9.030  -5.440  24.320  0.00  0.00    -0.365 OA
ATOM     17  H   UNL     1       8.581  -6.060  24.927  0.00  0.00    +0.213 HD
ENDBRANCH   6  16
BRANCH   4  18
ATOM     18  C   UNL     1       6.057  -5.300  24.566  0.00  0.00    +0.206 C 
BRANCH  18  19
ATOM     19  O   UNL     1       4.638  -5.275  24.538  0.00  0.00    -0.284 OA
BRANCH  19  20
ATOM     20  P   UNL     1       3.904  -5.935  23.282  0.00  0.00    +0.472 P 
ATOM     21  O   UNL     1       2.550  -5.409  22.964  0.00  0.00    -0.228 OA
BRANCH  20  22
ATOM     22  O   UNL     1       3.920  -7.489  23.648  0.00  0.00    -0.303 OA
ATOM     23  H   UNL     1       4.687  -7.677  24.222  0.00  0.00    +0.222 HD
ENDBRANCH  20  22
BRANCH  20  24
ATOM     24  O   UNL     1       5.008  -5.804  22.145  0.00  0.00    -0.303 OA
ATOM     25  H   UNL     1       5.188  -4.864  21.968  0.00  0.00    +0.222 HD
ENDBRANCH  20  24
ENDBRANCH  19  20
ENDBRANCH  18  19
ENDBRANCH   4  18
TORSDOF 9
ENDMDL
MODEL 9
REMARK VINA RESULT:      -5.4      1.267      2.395
REMARK  Name = 
REMARK  10 active torsions:
REMARK  status: ('A' for Active; 'I' for Inactive)
REMARK    1  A    between atoms: C_1  and  C_2
REMARK    2  A    between atoms: N_4  and  C_5
REMARK    3  A    between atoms: C_7  and  O_9
REMARK    4  A    between atoms: C_11  and  C_13
REMARK    5  A    between atoms: C_13  and  O_14
REMARK    6  A    between atoms: O_14  and  P_15
REMARK    7  A    between atoms: P_15  and  O_16
REMARK    8  A    between atoms: P_15  and  O_17
REMARK    9  A    between atoms: C_19  and  O_21
REMARK   10  A    between atoms: C_22  and  O_24
REMARK                            x       y       z     vdW  Elec       q    Type
REMARK                         _______ _______ _______ _____ _____    ______ ____
ROOT
ATOM      1  C   UNL     1       8.085  -3.097  23.407  0.00  0.00    +0.160 C 
ATOM      2  C   UNL     1       7.014  -2.358  24.229  0.00  0.00    +0.171 C 
ATOM      3  C   UNL     1       6.479  -1.129  23.479  0.00  0.00    +0.176 C 
ATOM      4  C   UNL     1       7.621  -0.224  22.995  0.00  0.00    +0.178 C 
ATOM      5  O   UNL     1       8.589  -0.976  22.246  0.00  0.00    -0.341 OA
ATOM      6  C   UNL     1       9.163  -2.094  22.922  0.00  0.00    +0.270 C 
ENDROOT
BRANCH   1   9
ATOM      7  C   UNL     1       6.387  -5.682  21.200  0.00  0.00    +0.109 C 
ATOM      8  C   UNL     1       6.928  -5.078  22.466  0.00  0.00    +0.210 C 
ATOM      9  N   UNL     1       7.499  -3.840  22.284  0.00  0.00    -0.305 N 
ATOM     10  H   UNL     1       7.504  -3.417  21.362  0.00  0.00    +0.149 HD
ATOM     11  O   UNL     1       6.850  -5.632  23.555  0.00  0.00    -0.276 OA
ENDBRANCH   1   9
BRANCH   2  12
ATOM     12  O   UNL     1       7.567  -1.946  25.488  0.00  0.00    -0.387 OA
ATOM     13  H   UNL     1       8.483  -2.297  25.485  0.00  0.00    +0.210 HD
ENDBRANCH   2  12
BRANCH   3  14
ATOM     14  O   UNL     1       5.560  -0.422  24.319  0.00  0.00    -0.387 OA
ATOM     15  H   UNL     1       5.373  -0.985  25.089  0.00  0.00    +0.210 HD
ENDBRANCH   3  14
BRANCH   6  16
ATOM     16  O   UNL     1      10.051  -1.699  23.949  0.00  0.00    -0.365 OA
ATOM     17  H   UNL     1      10.692  -1.071  23.566  0.00  0.00    +0.213 HD
ENDBRANCH   6  16
BRANCH   4  18
ATOM     18  C   UNL     1       8.241   0.672  24.081  0.00  0.00    +0.206 C 
BRANCH  18  19
ATOM     19  O   UNL     1       8.519   1.938  23.502  0.00  0.00    -0.284 OA
BRANCH  19  20
ATOM     20  P   UNL     1      10.037   2.276  23.136  0.00  0.00    +0.472 P 
ATOM     21  O   UNL     1      10.553   3.582  23.623  0.00  0.00    -0.228 OA
BRANCH  20  22
ATOM     22  O   UNL     1      10.050   2.132  21.546  0.00  0.00    -0.303 OA
ATOM     23  H   UNL     1       9.134   2.165  21.212  0.00  0.00    +0.222 HD
ENDBRANCH  20  22
BRANCH  20  24
ATOM     24  O   UNL     1      10.797   0.973  23.639  0.00  0.00    -0.303 OA
ATOM     25  H   UNL     1      10.738   0.911  24.609  0.00  0.00    +0.222 HD
ENDBRANCH  20  24
ENDBRANCH  19  20
ENDBRANCH  18  19
ENDBRANCH   4  18
TORSDOF 9
ENDMDL
