MODEL 1
REMARK VINA RESULT:      -7.8      0.000      0.000
REMARK  Name = 
REMARK  13 active torsions:
REMARK  status: ('A' for Active; 'I' for Inactive)
REMARK    1  A    between atoms: C_1  and  C_2
REMARK    2  A    between atoms: N_4  and  C_5
REMARK    3  A    between atoms: C_5  and  C_7
REMARK    4  A    between atoms: C_5  and  C_19
REMARK    5  A    between atoms: C_7  and  C_8
REMARK    6  A    between atoms: C_11  and  O_12
REMARK    7  A    between atoms: O_12  and  P_13
REMARK    8  A    between atoms: P_13  and  O_14
REMARK    9  A    between atoms: P_13  and  O_15
REMARK   10  A    between atoms: N_21  and  C_22
REMARK   11  A    between atoms: N_28  and  C_29
REMARK   12  A    between atoms: C_29  and  C_30
REMARK   13  A    between atoms: C_33  and  C_36
REMARK                            x       y       z     vdW  Elec       q    Type
REMARK                         _______ _______ _______ _____ _____    ______ ____
ROOT
ATOM      1  C   UNL     1       6.798   1.811  22.965  0.00  0.00    +0.234 C 
ATOM      2  N   UNL     1       6.902   3.183  22.883  0.00  0.00    -0.302 N 
ATOM      3  H   UNL     1       7.240   3.417  21.957  0.00  0.00    +0.150 HD
ATOM      4  O   UNL     1       7.003   1.253  21.876  0.00  0.00    -0.274 OA
ENDROOT
BRANCH   2   5
ATOM      5  C   UNL     1       7.123   4.273  23.861  0.00  0.00    +0.159 C 
ATOM      6  C   UNL     1       8.526   4.242  24.669  0.00  0.00    +0.236 C 
ATOM      7  O   UNL     1       8.524   4.496  25.880  0.00  0.00    -0.274 OA
ATOM      8  N   UNL     1       9.727   4.350  23.957  0.00  0.00    -0.296 N 
ATOM      9  C   UNL     1      10.166   5.722  23.673  0.00  0.00    +0.108 C 
ATOM     10  C   UNL     1       9.039   6.782  23.576  0.00  0.00    +0.019 C 
ATOM     11  C   UNL     1       7.929   6.418  22.592  0.00  0.00    +0.004 C 
ATOM     12  C   UNL     1       6.795   5.643  23.244  0.00  0.00    +0.032 C 
BRANCH   8  13
ATOM     13  C   UNL     1      10.608   3.173  23.607  0.00  0.00    +0.143 C 
BRANCH  13  14
ATOM     14  C   UNL     1      10.251   1.662  23.485  0.00  0.00    -0.030 A 
ATOM     15  C   UNL     1      10.008   0.948  24.705  0.00  0.00    +0.006 A 
ATOM     16  C   UNL     1       9.722  -0.454  24.794  0.00  0.00    +0.009 A 
ATOM     17  C   UNL     1       9.620  -1.285  23.667  0.00  0.00    -0.018 A 
ATOM     18  C   UNL     1       9.913  -0.610  22.456  0.00  0.00    +0.009 A 
ATOM     19  C   UNL     1      10.219   0.814  22.362  0.00  0.00    +0.006 A 
BRANCH  17  20
ATOM     20  C   UNL     1       9.164  -2.743  23.774  0.00  0.00    -0.018 A 
ATOM     21  C   UNL     1       9.746  -3.622  24.727  0.00  0.00    +0.008 A 
ATOM     22  C   UNL     1       9.306  -4.950  24.920  0.00  0.00    +0.001 A 
ATOM     23  C   UNL     1       8.267  -5.458  24.160  0.00  0.00    +0.000 A 
ATOM     24  C   UNL     1       7.684  -4.652  23.187  0.00  0.00    +0.001 A 
ATOM     25  C   UNL     1       8.128  -3.321  22.994  0.00  0.00    +0.008 A 
ENDBRANCH  17  20
ENDBRANCH  13  14
ENDBRANCH   8  13
ENDBRANCH   2   5
BRANCH   1  26
ATOM     26  C   UNL     1       6.284   0.934  24.194  0.00  0.00    +0.163 C 
BRANCH  26  29
ATOM     27  C   UNL     1       5.186   2.891  26.740  0.00  0.00    +0.109 C 
ATOM     28  C   UNL     1       4.392   1.991  25.857  0.00  0.00    +0.211 C 
ATOM     29  N   UNL     1       4.938   1.333  24.818  0.00  0.00    -0.304 N 
ATOM     30  H   UNL     1       4.168   0.796  24.435  0.00  0.00    +0.149 HD
ATOM     31  O   UNL     1       3.169   1.859  26.017  0.00  0.00    -0.276 OA
ENDBRANCH  26  29
BRANCH  26  32
ATOM     32  C   UNL     1       6.147  -0.618  23.929  0.00  0.00    +0.067 C 
BRANCH  32  33
ATOM     33  C   UNL     1       5.696  -1.363  25.184  0.00  0.00    -0.045 A 
ATOM     34  C   UNL     1       4.565  -2.194  25.098  0.00  0.00    +0.007 A 
ATOM     35  C   UNL     1       4.594  -3.423  25.740  0.00  0.00    +0.046 A 
ATOM     36  C   UNL     1       5.745  -3.754  26.446  0.00  0.00    +0.132 A 
ATOM     37  C   UNL     1       6.705  -2.810  26.783  0.00  0.00    +0.046 A 
ATOM     38  C   UNL     1       6.647  -1.567  26.189  0.00  0.00    +0.007 A 
BRANCH  36  39
ATOM     39  O   UNL     1       6.141  -5.047  26.589  0.00  0.00    -0.404 OA
BRANCH  39  40
ATOM     40  P   UNL     1       6.265  -5.684  28.192  0.00  0.00    +0.528 P 
ATOM     41  O   UNL     1       6.376  -6.256  29.627  0.00  0.00    -0.216 OA
BRANCH  40  42
ATOM     42  O   UNL     1       7.789  -6.096  27.734  0.00  0.00    -0.293 OA
ATOM     43  H   UNL     1       8.256  -5.362  27.308  0.00  0.00    +0.223 HD
ENDBRANCH  40  42
BRANCH  40  44
ATOM     44  O   UNL     1       5.524  -7.000  27.548  0.00  0.00    -0.293 OA
ATOM     45  H   UNL     1       5.123  -6.791  26.685  0.00  0.00    +0.223 HD
ENDBRANCH  40  44
ENDBRANCH  39  40
ENDBRANCH  36  39
ENDBRANCH  32  33
ENDBRANCH  26  32
ENDBRANCH   1  26
TORSDOF 12
ENDMDL
MODEL 2
REMARK VINA RESULT:      -7.4      3.505      7.959
REMARK  Name = 
REMARK  13 active torsions:
REMARK  status: ('A' for Active; 'I' for Inactive)
REMARK    1  A    between atoms: C_1  and  C_2
REMARK    2  A    between atoms: N_4  and  C_5
REMARK    3  A    between atoms: C_5  and  C_7
REMARK    4  A    between atoms: C_5  and  C_19
REMARK    5  A    between atoms: C_7  and  C_8
REMARK    6  A    between atoms: C_11  and  O_12
REMARK    7  A    between atoms: O_12  and  P_13
REMARK    8  A    between atoms: P_13  and  O_14
REMARK    9  A    between atoms: P_13  and  O_15
REMARK   10  A    between atoms: N_21  and  C_22
REMARK   11  A    between atoms: N_28  and  C_29
REMARK   12  A    between atoms: C_29  and  C_30
REMARK   13  A    between atoms: C_33  and  C_36
REMARK                            x       y       z     vdW  Elec       q    Type
REMARK                         _______ _______ _______ _____ _____    ______ ____
ROOT
ATOM      1  C   UNL     1       7.899  -0.922  26.808  0.00  0.00    +0.234 C 
ATOM      2  N   UNL     1       7.725  -2.085  26.091  0.00  0.00    -0.302 N 
ATOM      3  H   UNL     1       8.642  -2.472  25.895  0.00  0.00    +0.150 HD
ATOM      4  O   UNL     1       9.082  -0.737  27.136  0.00  0.00    -0.274 OA
ENDROOT
BRANCH   2   5
ATOM      5  C   UNL     1       6.683  -2.599  25.172  0.00  0.00    +0.159 C 
ATOM      6  C   UNL     1       6.954  -2.394  23.589  0.00  0.00    +0.236 C 
ATOM      7  O   UNL     1       6.016  -2.040  22.864  0.00  0.00    -0.274 OA
ATOM      8  N   UNL     1       8.071  -3.002  23.002  0.00  0.00    -0.296 N 
ATOM      9  C   UNL     1       7.874  -4.391  22.571  0.00  0.00    +0.108 C 
ATOM     10  C   UNL     1       6.801  -5.193  23.354  0.00  0.00    +0.019 C 
ATOM     11  C   UNL     1       7.002  -5.181  24.867  0.00  0.00    +0.004 C 
ATOM     12  C   UNL     1       6.274  -4.033  25.549  0.00  0.00    +0.032 C 
BRANCH   8  13
ATOM     13  C   UNL     1       9.359  -2.276  22.692  0.00  0.00    +0.143 C 
BRANCH  13  14
ATOM     14  C   UNL     1       9.677  -0.751  22.722  0.00  0.00    -0.030 A 
ATOM     15  C   UNL     1      10.086  -0.196  23.980  0.00  0.00    +0.006 A 
ATOM     16  C   UNL     1      10.366   1.190  24.214  0.00  0.00    +0.009 A 
ATOM     17  C   UNL     1      10.296   2.164  23.205  0.00  0.00    -0.018 A 
ATOM     18  C   UNL     1       9.838   1.644  21.968  0.00  0.00    +0.009 A 
ATOM     19  C   UNL     1       9.538   0.236  21.729  0.00  0.00    +0.006 A 
BRANCH  17  20
ATOM     20  C   UNL     1      10.746   3.608  23.440  0.00  0.00    -0.018 A 
ATOM     21  C   UNL     1       9.818   4.607  23.840  0.00  0.00    +0.008 A 
ATOM     22  C   UNL     1      10.195   5.932  24.147  0.00  0.00    +0.001 A 
ATOM     23  C   UNL     1      11.522   6.318  24.059  0.00  0.00    +0.000 A 
ATOM     24  C   UNL     1      12.469   5.389  23.636  0.00  0.00    +0.001 A 
ATOM     25  C   UNL     1      12.087   4.061  23.328  0.00  0.00    +0.008 A 
ENDBRANCH  17  20
ENDBRANCH  13  14
ENDBRANCH   8  13
ENDBRANCH   2   5
BRANCH   1  26
ATOM     26  C   UNL     1       6.778   0.052  27.391  0.00  0.00    +0.163 C 
BRANCH  26  29
ATOM     27  C   UNL     1       5.652   1.821  30.061  0.00  0.00    +0.109 C 
ATOM     28  C   UNL     1       6.874   2.059  29.243  0.00  0.00    +0.211 C 
ATOM     29  N   UNL     1       7.259   1.225  28.259  0.00  0.00    -0.304 N 
ATOM     30  H   UNL     1       8.094   1.659  27.881  0.00  0.00    +0.149 HD
ATOM     31  O   UNL     1       7.623   3.019  29.481  0.00  0.00    -0.276 OA
ENDBRANCH  26  29
BRANCH  26  32
ATOM     32  C   UNL     1       5.819   0.720  26.328  0.00  0.00    +0.067 C 
BRANCH  32  33
ATOM     33  C   UNL     1       6.608   1.432  25.231  0.00  0.00    -0.045 A 
ATOM     34  C   UNL     1       6.540   0.925  23.922  0.00  0.00    +0.007 A 
ATOM     35  C   UNL     1       6.431   1.821  22.868  0.00  0.00    +0.046 A 
ATOM     36  C   UNL     1       6.409   3.176  23.174  0.00  0.00    +0.132 A 
ATOM     37  C   UNL     1       6.794   3.662  24.416  0.00  0.00    +0.046 A 
ATOM     38  C   UNL     1       6.958   2.769  25.454  0.00  0.00    +0.007 A 
BRANCH  36  39
ATOM     39  O   UNL     1       5.741   4.068  22.395  0.00  0.00    -0.404 OA
BRANCH  39  40
ATOM     40  P   UNL     1       5.521   5.672  23.004  0.00  0.00    +0.528 P 
ATOM     41  O   UNL     1       5.324   7.108  23.549  0.00  0.00    -0.216 OA
BRANCH  40  42
ATOM     42  O   UNL     1       4.194   5.682  22.034  0.00  0.00    -0.293 OA
ATOM     43  H   UNL     1       4.108   4.865  21.520  0.00  0.00    +0.223 HD
ENDBRANCH  40  42
BRANCH  40  44
ATOM     44  O   UNL     1       6.598   6.085  21.836  0.00  0.00    -0.293 OA
ATOM     45  H   UNL     1       6.744   7.048  21.817  0.00  0.00    +0.223 HD
ENDBRANCH  40  44
ENDBRANCH  39  40
ENDBRANCH  36  39
ENDBRANCH  32  33
ENDBRANCH  26  32
ENDBRANCH   1  26
TORSDOF 12
ENDMDL
MODEL 3
REMARK VINA RESULT:      -7.0      1.326      1.959
REMARK  Name = 
REMARK  13 active torsions:
REMARK  status: ('A' for Active; 'I' for Inactive)
REMARK    1  A    between atoms: C_1  and  C_2
REMARK    2  A    between atoms: N_4  and  C_5
REMARK    3  A    between atoms: C_5  and  C_7
REMARK    4  A    between atoms: C_5  and  C_19
REMARK    5  A    between atoms: C_7  and  C_8
REMARK    6  A    between atoms: C_11  and  O_12
REMARK    7  A    between atoms: O_12  and  P_13
REMARK    8  A    between atoms: P_13  and  O_14
REMARK    9  A    between atoms: P_13  and  O_15
REMARK   10  A    between atoms: N_21  and  C_22
REMARK   11  A    between atoms: N_28  and  C_29
REMARK   12  A    between atoms: C_29  and  C_30
REMARK   13  A    between atoms: C_33  and  C_36
REMARK                            x       y       z     vdW  Elec       q    Type
REMARK                         _______ _______ _______ _____ _____    ______ ____
ROOT
ATOM      1  C   UNL     1       6.574   1.848  24.050  0.00  0.00    +0.234 C 
ATOM      2  N   UNL     1       6.624   3.189  23.736  0.00  0.00    -0.302 N 
ATOM      3  H   UNL     1       6.775   3.271  22.737  0.00  0.00    +0.150 HD
ATOM      4  O   UNL     1       6.585   1.123  23.043  0.00  0.00    -0.274 OA
ENDROOT
BRANCH   2   5
ATOM      5  C   UNL     1       6.996   4.420  24.471  0.00  0.00    +0.159 C 
ATOM      6  C   UNL     1       8.544   4.547  24.925  0.00  0.00    +0.236 C 
ATOM      7  O   UNL     1       8.802   4.982  26.054  0.00  0.00    -0.274 OA
ATOM      8  N   UNL     1       9.544   4.577  23.945  0.00  0.00    -0.296 N 
ATOM      9  C   UNL     1       9.824   5.901  23.375  0.00  0.00    +0.108 C 
ATOM     10  C   UNL     1       8.642   6.905  23.395  0.00  0.00    +0.019 C 
ATOM     11  C   UNL     1       7.363   6.367  22.758  0.00  0.00    +0.004 C 
ATOM     12  C   UNL     1       6.454   5.672  23.759  0.00  0.00    +0.032 C 
BRANCH   8  13
ATOM     13  C   UNL     1      10.391   3.383  23.570  0.00  0.00    +0.143 C 
BRANCH  13  14
ATOM     14  C   UNL     1       9.991   1.887  23.408  0.00  0.00    -0.030 A 
ATOM     15  C   UNL     1       9.896   1.105  24.607  0.00  0.00    +0.006 A 
ATOM     16  C   UNL     1       9.596  -0.297  24.652  0.00  0.00    +0.009 A 
ATOM     17  C   UNL     1       9.329  -1.058  23.502  0.00  0.00    -0.018 A 
ATOM     18  C   UNL     1       9.473  -0.314  22.304  0.00  0.00    +0.009 A 
ATOM     19  C   UNL     1       9.793   1.109  22.252  0.00  0.00    +0.006 A 
BRANCH  17  20
ATOM     20  C   UNL     1       8.862  -2.513  23.585  0.00  0.00    -0.018 A 
ATOM     21  C   UNL     1       7.993  -3.058  22.602  0.00  0.00    +0.008 A 
ATOM     22  C   UNL     1       7.598  -4.414  22.588  0.00  0.00    +0.001 A 
ATOM     23  C   UNL     1       8.053  -5.283  23.565  0.00  0.00    +0.000 A 
ATOM     24  C   UNL     1       8.879  -4.794  24.573  0.00  0.00    +0.001 A 
ATOM     25  C   UNL     1       9.272  -3.434  24.586  0.00  0.00    +0.008 A 
ENDBRANCH  17  20
ENDBRANCH  13  14
ENDBRANCH   8  13
ENDBRANCH   2   5
BRANCH   1  26
ATOM     26  C   UNL     1       6.323   1.179  25.477  0.00  0.00    +0.163 C 
BRANCH  26  29
ATOM     27  C   UNL     1       6.699   1.276  28.849  0.00  0.00    +0.109 C 
ATOM     28  C   UNL     1       5.952   2.223  27.974  0.00  0.00    +0.211 C 
ATOM     29  N   UNL     1       5.955   2.122  26.632  0.00  0.00    -0.304 N 
ATOM     30  H   UNL     1       5.351   2.877  26.327  0.00  0.00    +0.149 HD
ATOM     31  O   UNL     1       5.337   3.186  28.457  0.00  0.00    -0.276 OA
ENDBRANCH  26  29
BRANCH  26  32
ATOM     32  C   UNL     1       5.221   0.048  25.528  0.00  0.00    +0.067 C 
BRANCH  32  33
ATOM     33  C   UNL     1       5.841  -1.343  25.426  0.00  0.00    -0.045 A 
ATOM     34  C   UNL     1       6.616  -1.812  26.502  0.00  0.00    +0.007 A 
ATOM     35  C   UNL     1       6.470  -3.132  26.900  0.00  0.00    +0.046 A 
ATOM     36  C   UNL     1       5.570  -3.922  26.196  0.00  0.00    +0.132 A 
ATOM     37  C   UNL     1       5.063  -3.545  24.959  0.00  0.00    +0.046 A 
ATOM     38  C   UNL     1       5.253  -2.247  24.534  0.00  0.00    +0.007 A 
BRANCH  36  39
ATOM     39  O   UNL     1       4.912  -4.951  26.793  0.00  0.00    -0.404 OA
BRANCH  39  40
ATOM     40  P   UNL     1       4.537  -6.340  25.832  0.00  0.00    +0.528 P 
ATOM     41  O   UNL     1       4.201  -7.584  24.973  0.00  0.00    -0.216 OA
BRANCH  40  42
ATOM     42  O   UNL     1       3.008  -6.108  26.389  0.00  0.00    -0.293 OA
ATOM     43  H   UNL     1       2.957  -5.389  27.036  0.00  0.00    +0.223 HD
ENDBRANCH  40  42
BRANCH  40  44
ATOM     44  O   UNL     1       5.076  -7.181  27.135  0.00  0.00    -0.293 OA
ATOM     45  H   UNL     1       4.471  -7.912  27.356  0.00  0.00    +0.223 HD
ENDBRANCH  40  44
ENDBRANCH  39  40
ENDBRANCH  36  39
ENDBRANCH  32  33
ENDBRANCH  26  32
ENDBRANCH   1  26
TORSDOF 12
ENDMDL
MODEL 4
REMARK VINA RESULT:      -6.9      3.396      8.329
REMARK  Name = 
REMARK  13 active torsions:
REMARK  status: ('A' for Active; 'I' for Inactive)
REMARK    1  A    between atoms: C_1  and  C_2
REMARK    2  A    between atoms: N_4  and  C_5
REMARK    3  A    between atoms: C_5  and  C_7
REMARK    4  A    between atoms: C_5  and  C_19
REMARK    5  A    between atoms: C_7  and  C_8
REMARK    6  A    between atoms: C_11  and  O_12
REMARK    7  A    between atoms: O_12  and  P_13
REMARK    8  A    between atoms: P_13  and  O_14
REMARK    9  A    between atoms: P_13  and  O_15
REMARK   10  A    between atoms: N_21  and  C_22
REMARK   11  A    between atoms: N_28  and  C_29
REMARK   12  A    between atoms: C_29  and  C_30
REMARK   13  A    between atoms: C_33  and  C_36
REMARK                            x       y       z     vdW  Elec       q    Type
REMARK                         _______ _______ _______ _____ _____    ______ ____
ROOT
ATOM      1  C   UNL     1       5.938  -2.204  26.394  0.00  0.00    +0.234 C 
ATOM      2  N   UNL     1       5.356  -3.446  26.531  0.00  0.00    -0.302 N 
ATOM      3  H   UNL     1       6.093  -4.121  26.696  0.00  0.00    +0.150 HD
ATOM      4  O   UNL     1       7.154  -2.220  26.641  0.00  0.00    -0.274 OA
ENDROOT
BRANCH   2   5
ATOM      5  C   UNL     1       4.109  -4.075  26.036  0.00  0.00    +0.159 C 
ATOM      6  C   UNL     1       4.146  -4.655  24.525  0.00  0.00    +0.236 C 
ATOM      7  O   UNL     1       3.171  -4.465  23.788  0.00  0.00    -0.274 OA
ATOM      8  N   UNL     1       5.042  -5.685  24.211  0.00  0.00    -0.296 N 
ATOM      9  C   UNL     1       4.559  -7.042  24.493  0.00  0.00    +0.108 C 
ATOM     10  C   UNL     1       3.515  -7.162  25.634  0.00  0.00    +0.019 C 
ATOM     11  C   UNL     1       3.960  -6.525  26.948  0.00  0.00    +0.004 C 
ATOM     12  C   UNL     1       3.545  -5.067  27.067  0.00  0.00    +0.032 C 
BRANCH   8  13
ATOM     13  C   UNL     1       6.360  -5.469  23.505  0.00  0.00    +0.143 C 
BRANCH  13  14
ATOM     14  C   UNL     1       7.304  -4.230  23.512  0.00  0.00    -0.030 A 
ATOM     15  C   UNL     1       6.889  -3.091  22.745  0.00  0.00    +0.006 A 
ATOM     16  C   UNL     1       7.649  -1.885  22.588  0.00  0.00    +0.009 A 
ATOM     17  C   UNL     1       8.893  -1.681  23.206  0.00  0.00    -0.018 A 
ATOM     18  C   UNL     1       9.346  -2.817  23.922  0.00  0.00    +0.009 A 
ATOM     19  C   UNL     1       8.582  -4.052  24.073  0.00  0.00    +0.006 A 
BRANCH  17  20
ATOM     20  C   UNL     1       9.614  -0.332  23.148  0.00  0.00    -0.018 A 
ATOM     21  C   UNL     1       9.435   0.546  22.046  0.00  0.00    +0.008 A 
ATOM     22  C   UNL     1      10.013   1.833  21.983  0.00  0.00    +0.001 A 
ATOM     23  C   UNL     1      10.804   2.294  23.021  0.00  0.00    +0.000 A 
ATOM     24  C   UNL     1      11.043   1.461  24.110  0.00  0.00    +0.001 A 
ATOM     25  C   UNL     1      10.463   0.171  24.170  0.00  0.00    +0.008 A 
ENDBRANCH  17  20
ENDBRANCH  13  14
ENDBRANCH   8  13
ENDBRANCH   2   5
BRANCH   1  26
ATOM     26  C   UNL     1       5.219  -0.801  26.154  0.00  0.00    +0.163 C 
BRANCH  26  29
ATOM     27  C   UNL     1       3.829  -1.339  29.204  0.00  0.00    +0.109 C 
ATOM     28  C   UNL     1       3.170  -0.851  27.960  0.00  0.00    +0.211 C 
ATOM     29  N   UNL     1       3.857  -0.592  26.831  0.00  0.00    -0.304 N 
ATOM     30  H   UNL     1       3.144  -0.306  26.169  0.00  0.00    +0.149 HD
ATOM     31  O   UNL     1       1.954  -0.608  27.937  0.00  0.00    -0.276 OA
ENDBRANCH  26  29
BRANCH  26  32
ATOM     32  C   UNL     1       6.054   0.482  26.550  0.00  0.00    +0.067 C 
BRANCH  32  33
ATOM     33  C   UNL     1       6.807   1.051  25.350  0.00  0.00    -0.045 A 
ATOM     34  C   UNL     1       6.234   0.917  24.073  0.00  0.00    +0.007 A 
ATOM     35  C   UNL     1       6.296   1.993  23.200  0.00  0.00    +0.046 A 
ATOM     36  C   UNL     1       6.940   3.143  23.640  0.00  0.00    +0.132 A 
ATOM     37  C   UNL     1       7.765   3.149  24.757  0.00  0.00    +0.046 A 
ATOM     38  C   UNL     1       7.748   2.057  25.598  0.00  0.00    +0.007 A 
BRANCH  36  39
ATOM     39  O   UNL     1       6.575   4.374  23.193  0.00  0.00    -0.404 OA
BRANCH  39  40
ATOM     40  P   UNL     1       7.780   5.615  23.162  0.00  0.00    +0.528 P 
ATOM     41  O   UNL     1       8.858   6.726  23.134  0.00  0.00    -0.216 OA
BRANCH  40  42
ATOM     42  O   UNL     1       6.558   6.587  23.677  0.00  0.00    -0.293 OA
ATOM     43  H   UNL     1       6.880   7.339  24.196  0.00  0.00    +0.223 HD
ENDBRANCH  40  42
BRANCH  40  44
ATOM     44  O   UNL     1       7.415   5.700  21.564  0.00  0.00    -0.293 OA
ATOM     45  H   UNL     1       6.917   4.914  21.275  0.00  0.00    +0.223 HD
ENDBRANCH  40  44
ENDBRANCH  39  40
ENDBRANCH  36  39
ENDBRANCH  32  33
ENDBRANCH  26  32
ENDBRANCH   1  26
TORSDOF 12
ENDMDL
MODEL 5
REMARK VINA RESULT:      -6.8      2.400      6.278
REMARK  Name = 
REMARK  13 active torsions:
REMARK  status: ('A' for Active; 'I' for Inactive)
REMARK    1  A    between atoms: C_1  and  C_2
REMARK    2  A    between atoms: N_4  and  C_5
REMARK    3  A    between atoms: C_5  and  C_7
REMARK    4  A    between atoms: C_5  and  C_19
REMARK    5  A    between atoms: C_7  and  C_8
REMARK    6  A    between atoms: C_11  and  O_12
REMARK    7  A    between atoms: O_12  and  P_13
REMARK    8  A    between atoms: P_13  and  O_14
REMARK    9  A    between atoms: P_13  and  O_15
REMARK   10  A    between atoms: N_21  and  C_22
REMARK   11  A    between atoms: N_28  and  C_29
REMARK   12  A    between atoms: C_29  and  C_30
REMARK   13  A    between atoms: C_33  and  C_36
REMARK                            x       y       z     vdW  Elec       q    Type
REMARK                         _______ _______ _______ _____ _____    ______ ____
ROOT
ATOM      1  C   UNL     1       7.389  -1.327  26.684  0.00  0.00    +0.234 C 
ATOM      2  N   UNL     1       7.351  -2.347  25.758  0.00  0.00    -0.302 N 
ATOM      3  H   UNL     1       8.303  -2.551  25.477  0.00  0.00    +0.150 HD
ATOM      4  O   UNL     1       8.547  -1.035  27.023  0.00  0.00    -0.274 OA
ENDROOT
BRANCH   2   5
ATOM      5  C   UNL     1       6.352  -2.826  24.774  0.00  0.00    +0.159 C 
ATOM      6  C   UNL     1       6.693  -2.559  23.215  0.00  0.00    +0.236 C 
ATOM      7  O   UNL     1       5.788  -2.178  22.462  0.00  0.00    -0.274 OA
ATOM      8  N   UNL     1       7.837  -3.142  22.656  0.00  0.00    -0.296 N 
ATOM      9  C   UNL     1       7.665  -4.513  22.162  0.00  0.00    +0.108 C 
ATOM     10  C   UNL     1       6.561  -5.347  22.864  0.00  0.00    +0.019 C 
ATOM     11  C   UNL     1       6.693  -5.394  24.384  0.00  0.00    +0.004 C 
ATOM     12  C   UNL     1       5.932  -4.275  25.077  0.00  0.00    +0.032 C 
BRANCH   8  13
ATOM     13  C   UNL     1       9.135  -2.401  22.431  0.00  0.00    +0.143 C 
BRANCH  13  14
ATOM     14  C   UNL     1       9.546  -0.959  22.851  0.00  0.00    -0.030 A 
ATOM     15  C   UNL     1       9.438   0.066  21.853  0.00  0.00    +0.006 A 
ATOM     16  C   UNL     1       9.821   1.435  22.037  0.00  0.00    +0.009 A 
ATOM     17  C   UNL     1      10.325   1.931  23.251  0.00  0.00    -0.018 A 
ATOM     18  C   UNL     1      10.493   0.921  24.231  0.00  0.00    +0.009 A 
ATOM     19  C   UNL     1      10.118  -0.478  24.043  0.00  0.00    +0.006 A 
BRANCH  17  20
ATOM     20  C   UNL     1      10.583   3.423  23.472  0.00  0.00    -0.018 A 
ATOM     21  C   UNL     1       9.542   4.289  23.903  0.00  0.00    +0.008 A 
ATOM     22  C   UNL     1       9.747   5.654  24.198  0.00  0.00    +0.001 A 
ATOM     23  C   UNL     1      11.006   6.215  24.066  0.00  0.00    +0.000 A 
ATOM     24  C   UNL     1      12.055   5.422  23.613  0.00  0.00    +0.001 A 
ATOM     25  C   UNL     1      11.847   4.053  23.316  0.00  0.00    +0.008 A 
ENDBRANCH  17  20
ENDBRANCH  13  14
ENDBRANCH   8  13
ENDBRANCH   2   5
BRANCH   1  26
ATOM     26  C   UNL     1       6.168  -0.656  27.462  0.00  0.00    +0.163 C 
BRANCH  26  29
ATOM     27  C   UNL     1       7.332   2.153  25.953  0.00  0.00    +0.109 C 
ATOM     28  C   UNL     1       6.810   1.996  27.340  0.00  0.00    +0.211 C 
ATOM     29  N   UNL     1       6.291   0.839  27.790  0.00  0.00    -0.304 N 
ATOM     30  H   UNL     1       6.050   1.036  28.755  0.00  0.00    +0.149 HD
ATOM     31  O   UNL     1       6.782   2.959  28.122  0.00  0.00    -0.276 OA
ENDBRANCH  26  29
BRANCH  26  32
ATOM     32  C   UNL     1       4.751  -0.792  26.776  0.00  0.00    +0.067 C 
BRANCH  32  33
ATOM     33  C   UNL     1       3.876  -1.815  27.498  0.00  0.00    -0.045 A 
ATOM     34  C   UNL     1       2.788  -2.374  26.803  0.00  0.00    +0.007 A 
ATOM     35  C   UNL     1       2.539  -3.732  26.942  0.00  0.00    +0.046 A 
ATOM     36  C   UNL     1       3.378  -4.459  27.778  0.00  0.00    +0.132 A 
ATOM     37  C   UNL     1       4.229  -3.846  28.689  0.00  0.00    +0.046 A 
ATOM     38  C   UNL     1       4.437  -2.487  28.590  0.00  0.00    +0.007 A 
BRANCH  36  39
ATOM     39  O   UNL     1       3.633  -5.775  27.555  0.00  0.00    -0.404 OA
BRANCH  39  40
ATOM     40  P   UNL     1       4.987  -6.487  28.363  0.00  0.00    +0.528 P 
ATOM     41  O   UNL     1       6.199  -7.124  29.085  0.00  0.00    -0.216 OA
BRANCH  40  42
ATOM     42  O   UNL     1       5.170  -7.330  26.964  0.00  0.00    -0.293 OA
ATOM     43  H   UNL     1       5.993  -7.107  26.504  0.00  0.00    +0.223 HD
ENDBRANCH  40  42
BRANCH  40  44
ATOM     44  O   UNL     1       3.860  -7.480  29.024  0.00  0.00    -0.293 OA
ATOM     45  H   UNL     1       3.178  -7.721  28.373  0.00  0.00    +0.223 HD
ENDBRANCH  40  44
ENDBRANCH  39  40
ENDBRANCH  36  39
ENDBRANCH  32  33
ENDBRANCH  26  32
ENDBRANCH   1  26
TORSDOF 12
ENDMDL
MODEL 6
REMARK VINA RESULT:      -6.7      3.316      7.772
REMARK  Name = 
REMARK  13 active torsions:
REMARK  status: ('A' for Active; 'I' for Inactive)
REMARK    1  A    between atoms: C_1  and  C_2
REMARK    2  A    between atoms: N_4  and  C_5
REMARK    3  A    between atoms: C_5  and  C_7
REMARK    4  A    between atoms: C_5  and  C_19
REMARK    5  A    between atoms: C_7  and  C_8
REMARK    6  A    between atoms: C_11  and  O_12
REMARK    7  A    between atoms: O_12  and  P_13
REMARK    8  A    between atoms: P_13  and  O_14
REMARK    9  A    between atoms: P_13  and  O_15
REMARK   10  A    between atoms: N_21  and  C_22
REMARK   11  A    between atoms: N_28  and  C_29
REMARK   12  A    between atoms: C_29  and  C_30
REMARK   13  A    between atoms: C_33  and  C_36
REMARK                            x       y       z     vdW  Elec       q    Type
REMARK                         _______ _______ _______ _____ _____    ______ ____
ROOT
ATOM      1  C   UNL     1       6.679  -0.779  26.351  0.00  0.00    +0.234 C 
ATOM      2  N   UNL     1       6.462  -2.057  25.886  0.00  0.00    -0.302 N 
ATOM      3  H   UNL     1       7.209  -2.649  26.232  0.00  0.00    +0.150 HD
ATOM      4  O   UNL     1       7.621  -0.721  27.158  0.00  0.00    -0.274 OA
ENDROOT
BRANCH   2   5
ATOM      5  C   UNL     1       5.779  -2.637  24.706  0.00  0.00    +0.159 C 
ATOM      6  C   UNL     1       6.575  -2.551  23.299  0.00  0.00    +0.236 C 
ATOM      7  O   UNL     1       5.949  -2.250  22.275  0.00  0.00    -0.274 OA
ATOM      8  N   UNL     1       7.808  -3.204  23.171  0.00  0.00    -0.296 N 
ATOM      9  C   UNL     1       7.731  -4.621  22.796  0.00  0.00    +0.108 C 
ATOM     10  C   UNL     1       6.434  -5.359  23.221  0.00  0.00    +0.019 C 
ATOM     11  C   UNL     1       6.111  -5.235  24.708  0.00  0.00    +0.004 C 
ATOM     12  C   UNL     1       5.227  -4.038  25.021  0.00  0.00    +0.032 C 
BRANCH   8  13
ATOM     13  C   UNL     1       9.144  -2.505  23.267  0.00  0.00    +0.143 C 
BRANCH  13  14
ATOM     14  C   UNL     1       9.488  -0.990  23.159  0.00  0.00    -0.030 A 
ATOM     15  C   UNL     1       9.799  -0.304  24.380  0.00  0.00    +0.006 A 
ATOM     16  C   UNL     1      10.085   1.097  24.484  0.00  0.00    +0.009 A 
ATOM     17  C   UNL     1      10.120   1.955  23.373  0.00  0.00    -0.018 A 
ATOM     18  C   UNL     1       9.760   1.306  22.165  0.00  0.00    +0.009 A 
ATOM     19  C   UNL     1       9.453  -0.117  22.056  0.00  0.00    +0.006 A 
BRANCH  17  20
ATOM     20  C   UNL     1      10.576   3.411  23.488  0.00  0.00    -0.018 A 
ATOM     21  C   UNL     1       9.669   4.432  23.878  0.00  0.00    +0.008 A 
ATOM     22  C   UNL     1      10.058   5.775  24.076  0.00  0.00    +0.001 A 
ATOM     23  C   UNL     1      11.376   6.155  23.884  0.00  0.00    +0.000 A 
ATOM     24  C   UNL     1      12.300   5.203  23.466  0.00  0.00    +0.001 A 
ATOM     25  C   UNL     1      11.907   3.858  23.267  0.00  0.00    +0.008 A 
ENDBRANCH  17  20
ENDBRANCH  13  14
ENDBRANCH   8  13
ENDBRANCH   2   5
BRANCH   1  26
ATOM     26  C   UNL     1       5.780   0.519  26.123  0.00  0.00    +0.163 C 
BRANCH  26  29
ATOM     27  C   UNL     1       3.018   2.491  26.138  0.00  0.00    +0.109 C 
ATOM     28  C   UNL     1       3.309   1.301  26.986  0.00  0.00    +0.211 C 
ATOM     29  N   UNL     1       4.411   0.546  26.818  0.00  0.00    -0.304 N 
ATOM     30  H   UNL     1       4.340  -0.158  27.544  0.00  0.00    +0.149 HD
ATOM     31  O   UNL     1       2.505   0.925  27.853  0.00  0.00    -0.276 OA
ENDBRANCH  26  29
BRANCH  26  32
ATOM     32  C   UNL     1       6.444   1.899  26.512  0.00  0.00    +0.067 C 
BRANCH  32  33
ATOM     33  C   UNL     1       6.720   2.755  25.277  0.00  0.00    -0.045 A 
ATOM     34  C   UNL     1       6.663   2.143  24.012  0.00  0.00    +0.007 A 
ATOM     35  C   UNL     1       6.057   2.829  22.970  0.00  0.00    +0.046 A 
ATOM     36  C   UNL     1       5.553   4.095  23.238  0.00  0.00    +0.132 A 
ATOM     37  C   UNL     1       5.896   4.802  24.383  0.00  0.00    +0.046 A 
ATOM     38  C   UNL     1       6.548   4.138  25.400  0.00  0.00    +0.007 A 
BRANCH  36  39
ATOM     39  O   UNL     1       4.482   4.589  22.562  0.00  0.00    -0.404 OA
BRANCH  39  40
ATOM     40  P   UNL     1       3.071   3.596  22.442  0.00  0.00    +0.528 P 
ATOM     41  O   UNL     1       1.807   2.708  22.335  0.00  0.00    -0.216 OA
BRANCH  40  42
ATOM     42  O   UNL     1       2.889   4.315  20.976  0.00  0.00    -0.293 OA
ATOM     43  H   UNL     1       2.816   3.671  20.256  0.00  0.00    +0.223 HD
ENDBRANCH  40  42
BRANCH  40  44
ATOM     44  O   UNL     1       2.359   4.789  23.316  0.00  0.00    -0.293 OA
ATOM     45  H   UNL     1       2.513   4.667  24.270  0.00  0.00    +0.223 HD
ENDBRANCH  40  44
ENDBRANCH  39  40
ENDBRANCH  36  39
ENDBRANCH  32  33
ENDBRANCH  26  32
ENDBRANCH   1  26
TORSDOF 12
ENDMDL
MODEL 7
REMARK VINA RESULT:      -6.6      2.909      6.891
REMARK  Name = 
REMARK  13 active torsions:
REMARK  status: ('A' for Active; 'I' for Inactive)
REMARK    1  A    between atoms: C_1  and  C_2
REMARK    2  A    between atoms: N_4  and  C_5
REMARK    3  A    between atoms: C_5  and  C_7
REMARK    4  A    between atoms: C_5  and  C_19
REMARK    5  A    between atoms: C_7  and  C_8
REMARK    6  A    between atoms: C_11  and  O_12
REMARK    7  A    between atoms: O_12  and  P_13
REMARK    8  A    between atoms: P_13  and  O_14
REMARK    9  A    between atoms: P_13  and  O_15
REMARK   10  A    between atoms: N_21  and  C_22
REMARK   11  A    between atoms: N_28  and  C_29
REMARK   12  A    between atoms: C_29  and  C_30
REMARK   13  A    between atoms: C_33  and  C_36
REMARK                            x       y       z     vdW  Elec       q    Type
REMARK                         _______ _______ _______ _____ _____    ______ ____
ROOT
ATOM      1  C   UNL     1       4.882  -3.037  25.539  0.00  0.00    +0.234 C 
ATOM      2  N   UNL     1       5.459  -3.813  24.557  0.00  0.00    -0.302 N 
ATOM      3  H   UNL     1       4.810  -3.869  23.780  0.00  0.00    +0.150 HD
ATOM      4  O   UNL     1       3.818  -2.515  25.169  0.00  0.00    -0.274 OA
ENDROOT
BRANCH   2   5
ATOM      5  C   UNL     1       6.458  -4.906  24.543  0.00  0.00    +0.159 C 
ATOM      6  C   UNL     1       7.695  -4.737  23.513  0.00  0.00    +0.236 C 
ATOM      7  O   UNL     1       8.072  -5.721  22.865  0.00  0.00    -0.274 OA
ATOM      8  N   UNL     1       8.570  -3.654  23.666  0.00  0.00    -0.296 N 
ATOM      9  C   UNL     1       9.668  -3.865  24.617  0.00  0.00    +0.108 C 
ATOM     10  C   UNL     1       9.387  -4.880  25.756  0.00  0.00    +0.019 C 
ATOM     11  C   UNL     1       8.114  -4.584  26.547  0.00  0.00    +0.004 C 
ATOM     12  C   UNL     1       6.889  -5.277  25.973  0.00  0.00    +0.032 C 
BRANCH   8  13
ATOM     13  C   UNL     1       8.505  -2.395  22.834  0.00  0.00    +0.143 C 
BRANCH  13  14
ATOM     14  C   UNL     1       9.070  -0.973  23.128  0.00  0.00    -0.030 A 
ATOM     15  C   UNL     1       8.289   0.144  22.683  0.00  0.00    +0.006 A 
ATOM     16  C   UNL     1       8.673   1.519  22.815  0.00  0.00    +0.009 A 
ATOM     17  C   UNL     1       9.867   1.923  23.434  0.00  0.00    -0.018 A 
ATOM     18  C   UNL     1      10.679   0.830  23.830  0.00  0.00    +0.009 A 
ATOM     19  C   UNL     1      10.299  -0.572  23.684  0.00  0.00    +0.006 A 
BRANCH  17  20
ATOM     20  C   UNL     1      10.184   3.397  23.699  0.00  0.00    -0.018 A 
ATOM     21  C   UNL     1      11.440   3.951  23.336  0.00  0.00    +0.008 A 
ATOM     22  C   UNL     1      11.752   5.320  23.485  0.00  0.00    +0.001 A 
ATOM     23  C   UNL     1      10.817   6.194  24.014  0.00  0.00    +0.000 A 
ATOM     24  C   UNL     1       9.582   5.699  24.420  0.00  0.00    +0.001 A 
ATOM     25  C   UNL     1       9.273   4.325  24.270  0.00  0.00    +0.008 A 
ENDBRANCH  17  20
ENDBRANCH  13  14
ENDBRANCH   8  13
ENDBRANCH   2   5
BRANCH   1  26
ATOM     26  C   UNL     1       5.498  -2.612  26.948  0.00  0.00    +0.163 C 
BRANCH  26  29
ATOM     27  C   UNL     1       8.585  -1.211  26.779  0.00  0.00    +0.109 C 
ATOM     28  C   UNL     1       7.286  -0.553  27.097  0.00  0.00    +0.211 C 
ATOM     29  N   UNL     1       6.112  -1.207  27.042  0.00  0.00    -0.304 N 
ATOM     30  H   UNL     1       5.430  -0.514  27.329  0.00  0.00    +0.149 HD
ATOM     31  O   UNL     1       7.236   0.656  27.372  0.00  0.00    -0.276 OA
ENDBRANCH  26  29
BRANCH  26  32
ATOM     32  C   UNL     1       4.520  -2.696  28.186  0.00  0.00    +0.067 C 
BRANCH  32  33
ATOM     33  C   UNL     1       3.968  -4.108  28.369  0.00  0.00    -0.045 A 
ATOM     34  C   UNL     1       2.749  -4.436  27.750  0.00  0.00    +0.007 A 
ATOM     35  C   UNL     1       2.626  -5.676  27.140  0.00  0.00    +0.046 A 
ATOM     36  C   UNL     1       3.721  -6.531  27.191  0.00  0.00    +0.132 A 
ATOM     37  C   UNL     1       4.780  -6.326  28.065  0.00  0.00    +0.046 A 
ATOM     38  C   UNL     1       4.876  -5.115  28.717  0.00  0.00    +0.007 A 
BRANCH  36  39
ATOM     39  O   UNL     1       3.961  -7.434  26.205  0.00  0.00    -0.404 OA
BRANCH  39  40
ATOM     40  P   UNL     1       3.009  -7.333  24.764  0.00  0.00    +0.528 P 
ATOM     41  O   UNL     1       2.157  -7.244  23.474  0.00  0.00    -0.216 OA
BRANCH  40  42
ATOM     42  O   UNL     1       2.674  -8.913  25.071  0.00  0.00    -0.293 OA
ATOM     43  H   UNL     1       3.054  -9.213  25.910  0.00  0.00    +0.223 HD
ENDBRANCH  40  42
BRANCH  40  44
ATOM     44  O   UNL     1       4.437  -7.599  24.000  0.00  0.00    -0.293 OA
ATOM     45  H   UNL     1       4.795  -6.774  23.625  0.00  0.00    +0.223 HD
ENDBRANCH  40  44
ENDBRANCH  39  40
ENDBRANCH  36  39
ENDBRANCH  32  33
ENDBRANCH  26  32
ENDBRANCH   1  26
TORSDOF 12
ENDMDL
MODEL 8
REMARK VINA RESULT:      -6.5      2.650      4.477
REMARK  Name = 
REMARK  13 active torsions:
REMARK  status: ('A' for Active; 'I' for Inactive)
REMARK    1  A    between atoms: C_1  and  C_2
REMARK    2  A    between atoms: N_4  and  C_5
REMARK    3  A    between atoms: C_5  and  C_7
REMARK    4  A    between atoms: C_5  and  C_19
REMARK    5  A    between atoms: C_7  and  C_8
REMARK    6  A    between atoms: C_11  and  O_12
REMARK    7  A    between atoms: O_12  and  P_13
REMARK    8  A    between atoms: P_13  and  O_14
REMARK    9  A    between atoms: P_13  and  O_15
REMARK   10  A    between atoms: N_21  and  C_22
REMARK   11  A    between atoms: N_28  and  C_29
REMARK   12  A    between atoms: C_29  and  C_30
REMARK   13  A    between atoms: C_33  and  C_36
REMARK                            x       y       z     vdW  Elec       q    Type
REMARK                         _______ _______ _______ _____ _____    ______ ____
ROOT
ATOM      1  C   UNL     1       5.630  -0.845  25.088  0.00  0.00    +0.234 C 
ATOM      2  N   UNL     1       6.500  -0.245  24.204  0.00  0.00    -0.302 N 
ATOM      3  H   UNL     1       6.470  -0.764  23.334  0.00  0.00    +0.150 HD
ATOM      4  O   UNL     1       4.958  -1.744  24.558  0.00  0.00    -0.274 OA
ENDROOT
BRANCH   2   5
ATOM      5  C   UNL     1       7.733   0.565  24.340  0.00  0.00    +0.159 C 
ATOM      6  C   UNL     1       9.122  -0.254  24.474  0.00  0.00    +0.236 C 
ATOM      7  O   UNL     1       9.965   0.129  25.294  0.00  0.00    -0.274 OA
ATOM      8  N   UNL     1       9.530  -1.083  23.422  0.00  0.00    -0.296 N 
ATOM      9  C   UNL     1      10.276  -0.414  22.349  0.00  0.00    +0.108 C 
ATOM     10  C   UNL     1       9.965   1.093  22.153  0.00  0.00    +0.019 C 
ATOM     11  C   UNL     1       8.480   1.400  21.973  0.00  0.00    +0.004 C 
ATOM     12  C   UNL     1       7.774   1.687  23.288  0.00  0.00    +0.032 C 
BRANCH   8  13
ATOM     13  C   UNL     1       9.358  -2.584  23.417  0.00  0.00    +0.143 C 
BRANCH  13  14
ATOM     14  C   UNL     1       8.057  -3.439  23.367  0.00  0.00    -0.030 A 
ATOM     15  C   UNL     1       7.635  -4.057  24.590  0.00  0.00    +0.006 A 
ATOM     16  C   UNL     1       6.498  -4.920  24.725  0.00  0.00    +0.009 A 
ATOM     17  C   UNL     1       5.645  -5.233  23.654  0.00  0.00    -0.018 A 
ATOM     18  C   UNL     1       6.079  -4.677  22.424  0.00  0.00    +0.009 A 
ATOM     19  C   UNL     1       7.243  -3.809  22.280  0.00  0.00    +0.006 A 
BRANCH  17  20
ATOM     20  C   UNL     1       4.354  -6.032  23.853  0.00  0.00    -0.018 A 
ATOM     21  C   UNL     1       4.289  -7.091  24.797  0.00  0.00    +0.008 A 
ATOM     22  C   UNL     1       3.102  -7.804  25.075  0.00  0.00    +0.001 A 
ATOM     23  C   UNL     1       1.928  -7.490  24.412  0.00  0.00    +0.000 A 
ATOM     24  C   UNL     1       1.943  -6.484  23.451  0.00  0.00    +0.001 A 
ATOM     25  C   UNL     1       3.135  -5.772  23.173  0.00  0.00    +0.008 A 
ENDBRANCH  17  20
ENDBRANCH  13  14
ENDBRANCH   8  13
ENDBRANCH   2   5
BRANCH   1  26
ATOM     26  C   UNL     1       5.280  -0.402  26.580  0.00  0.00    +0.163 C 
BRANCH  26  29
ATOM     27  C   UNL     1       6.712   1.054  29.292  0.00  0.00    +0.109 C 
ATOM     28  C   UNL     1       6.190   1.707  28.059  0.00  0.00    +0.211 C 
ATOM     29  N   UNL     1       5.725   1.004  27.010  0.00  0.00    -0.304 N 
ATOM     30  H   UNL     1       5.426   1.715  26.351  0.00  0.00    +0.149 HD
ATOM     31  O   UNL     1       6.220   2.941  27.931  0.00  0.00    -0.276 OA
ENDBRANCH  26  29
BRANCH  26  32
ATOM     32  C   UNL     1       3.754  -0.470  26.984  0.00  0.00    +0.067 C 
BRANCH  32  33
ATOM     33  C   UNL     1       3.395  -1.827  27.585  0.00  0.00    -0.045 A 
ATOM     34  C   UNL     1       2.788  -2.787  26.756  0.00  0.00    +0.007 A 
ATOM     35  C   UNL     1       3.199  -4.108  26.860  0.00  0.00    +0.046 A 
ATOM     36  C   UNL     1       4.183  -4.406  27.795  0.00  0.00    +0.132 A 
ATOM     37  C   UNL     1       4.533  -3.524  28.808  0.00  0.00    +0.046 A 
ATOM     38  C   UNL     1       4.081  -2.223  28.739  0.00  0.00    +0.007 A 
BRANCH  36  39
ATOM     39  O   UNL     1       5.055  -5.431  27.604  0.00  0.00    -0.404 OA
BRANCH  39  40
ATOM     40  P   UNL     1       5.816  -6.118  28.997  0.00  0.00    +0.528 P 
ATOM     41  O   UNL     1       6.498  -6.734  30.244  0.00  0.00    -0.216 OA
BRANCH  40  42
ATOM     42  O   UNL     1       7.188  -6.005  28.100  0.00  0.00    -0.293 OA
ATOM     43  H   UNL     1       7.011  -5.722  27.191  0.00  0.00    +0.223 HD
ENDBRANCH  40  42
BRANCH  40  44
ATOM     44  O   UNL     1       5.307  -7.546  28.366  0.00  0.00    -0.293 OA
ATOM     45  H   UNL     1       5.391  -7.551  27.395  0.00  0.00    +0.223 HD
ENDBRANCH  40  44
ENDBRANCH  39  40
ENDBRANCH  36  39
ENDBRANCH  32  33
ENDBRANCH  26  32
ENDBRANCH   1  26
TORSDOF 12
ENDMDL
MODEL 9
REMARK VINA RESULT:      -6.5      3.919      8.012
REMARK  Name = 
REMARK  13 active torsions:
REMARK  status: ('A' for Active; 'I' for Inactive)
REMARK    1  A    between atoms: C_1  and  C_2
REMARK    2  A    between atoms: N_4  and  C_5
REMARK    3  A    between atoms: C_5  and  C_7
REMARK    4  A    between atoms: C_5  and  C_19
REMARK    5  A    between atoms: C_7  and  C_8
REMARK    6  A    between atoms: C_11  and  O_12
REMARK    7  A    between atoms: O_12  and  P_13
REMARK    8  A    between atoms: P_13  and  O_14
REMARK    9  A    between atoms: P_13  and  O_15
REMARK   10  A    between atoms: N_21  and  C_22
REMARK   11  A    between atoms: N_28  and  C_29
REMARK   12  A    between atoms: C_29  and  C_30
REMARK   13  A    between atoms: C_33  and  C_36
REMARK                            x       y       z     vdW  Elec       q    Type
REMARK                         _______ _______ _______ _____ _____    ______ ____
ROOT
ATOM      1  C   UNL     1       3.108  -5.097  24.927  0.00  0.00    +0.234 C 
ATOM      2  N   UNL     1       3.079  -5.146  26.303  0.00  0.00    -0.302 N 
ATOM      3  H   UNL     1       2.600  -4.316  26.636  0.00  0.00    +0.150 HD
ATOM      4  O   UNL     1       2.441  -4.156  24.470  0.00  0.00    -0.274 OA
ENDROOT
BRANCH   2   5
ATOM      5  C   UNL     1       3.929  -5.767  27.345  0.00  0.00    +0.159 C 
ATOM      6  C   UNL     1       5.036  -4.810  28.036  0.00  0.00    +0.236 C 
ATOM      7  O   UNL     1       6.169  -5.260  28.245  0.00  0.00    -0.274 OA
ATOM      8  N   UNL     1       4.613  -3.684  28.755  0.00  0.00    -0.296 N 
ATOM      9  C   UNL     1       4.261  -3.932  30.158  0.00  0.00    +0.108 C 
ATOM     10  C   UNL     1       3.767  -5.365  30.484  0.00  0.00    +0.019 C 
ATOM     11  C   UNL     1       2.610  -5.837  29.607  0.00  0.00    +0.004 C 
ATOM     12  C   UNL     1       3.078  -6.558  28.353  0.00  0.00    +0.032 C 
BRANCH   8  13
ATOM     13  C   UNL     1       4.634  -2.277  28.204  0.00  0.00    +0.143 C 
BRANCH  13  14
ATOM     14  C   UNL     1       5.366  -1.706  26.953  0.00  0.00    -0.030 A 
ATOM     15  C   UNL     1       6.695  -1.204  27.148  0.00  0.00    +0.006 A 
ATOM     16  C   UNL     1       7.499  -0.593  26.131  0.00  0.00    +0.009 A 
ATOM     17  C   UNL     1       7.070  -0.447  24.802  0.00  0.00    -0.018 A 
ATOM     18  C   UNL     1       5.737  -0.887  24.603  0.00  0.00    +0.009 A 
ATOM     19  C   UNL     1       4.909  -1.496  25.639  0.00  0.00    +0.006 A 
BRANCH  17  20
ATOM     20  C   UNL     1       8.001   0.068  23.702  0.00  0.00    -0.018 A 
ATOM     21  C   UNL     1       8.572   1.366  23.776  0.00  0.00    +0.008 A 
ATOM     22  C   UNL     1       9.499   1.857  22.831  0.00  0.00    +0.001 A 
ATOM     23  C   UNL     1       9.888   1.068  21.761  0.00  0.00    +0.000 A 
ATOM     24  C   UNL     1       9.332  -0.200  21.619  0.00  0.00    +0.001 A 
ATOM     25  C   UNL     1       8.403  -0.688  22.569  0.00  0.00    +0.008 A 
ENDBRANCH  17  20
ENDBRANCH  13  14
ENDBRANCH   8  13
ENDBRANCH   2   5
BRANCH   1  26
ATOM     26  C   UNL     1       3.714  -6.173  23.916  0.00  0.00    +0.163 C 
BRANCH  26  29
ATOM     27  C   UNL     1       0.484  -7.207  24.045  0.00  0.00    +0.109 C 
ATOM     28  C   UNL     1       1.713  -8.032  23.879  0.00  0.00    +0.211 C 
ATOM     29  N   UNL     1       2.938  -7.488  23.752  0.00  0.00    -0.304 N 
ATOM     30  H   UNL     1       3.557  -8.287  23.682  0.00  0.00    +0.149 HD
ATOM     31  O   UNL     1       1.644  -9.268  23.793  0.00  0.00    -0.276 OA
ENDBRANCH  26  29
BRANCH  26  32
ATOM     32  C   UNL     1       3.956  -5.674  22.437  0.00  0.00    +0.067 C 
BRANCH  32  33
ATOM     33  C   UNL     1       5.385  -5.170  22.242  0.00  0.00    -0.045 A 
ATOM     34  C   UNL     1       5.809  -4.056  22.987  0.00  0.00    +0.007 A 
ATOM     35  C   UNL     1       7.084  -4.070  23.535  0.00  0.00    +0.046 A 
ATOM     36  C   UNL     1       7.875  -5.188  23.300  0.00  0.00    +0.132 A 
ATOM     37  C   UNL     1       7.569  -6.118  22.316  0.00  0.00    +0.046 A 
ATOM     38  C   UNL     1       6.322  -6.074  21.728  0.00  0.00    +0.007 A 
BRANCH  36  39
ATOM     39  O   UNL     1       8.813  -5.593  24.196  0.00  0.00    -0.404 OA
BRANCH  39  40
ATOM     40  P   UNL     1       8.957  -4.707  25.675  0.00  0.00    +0.528 P 
ATOM     41  O   UNL     1       9.087  -3.914  26.999  0.00  0.00    -0.216 OA
BRANCH  40  42
ATOM     42  O   UNL     1      10.486  -5.309  25.696  0.00  0.00    -0.293 OA
ATOM     43  H   UNL     1      10.535  -6.201  25.321  0.00  0.00    +0.223 HD
ENDBRANCH  40  42
BRANCH  40  44
ATOM     44  O   UNL     1       8.238  -6.023  26.341  0.00  0.00    -0.293 OA
ATOM     45  H   UNL     1       8.690  -6.844  26.075  0.00  0.00    +0.223 HD
ENDBRANCH  40  44
ENDBRANCH  39  40
ENDBRANCH  36  39
ENDBRANCH  32  33
ENDBRANCH  26  32
ENDBRANCH   1  26
TORSDOF 12
ENDMDL
