MODEL 1
REMARK VINA RESULT:      -6.2      0.000      0.000
REMARK  Name = 
REMARK  27 active torsions:
REMARK  status: ('A' for Active; 'I' for Inactive)
REMARK    1  A    between atoms: N_1  and  C_2
REMARK    2  A    between atoms: C_2  and  C_4
REMARK    3  A    between atoms: C_2  and  C_42
REMARK    4  A    between atoms: C_4  and  C_5
REMARK    5  A    between atoms: C_5  and  C_6
REMARK    6  A    between atoms: N_8  and  C_9
REMARK    7  A    between atoms: C_9  and  C_11
REMARK    8  A    between atoms: C_9  and  C_35
REMARK    9  A    between atoms: C_11  and  S_12
REMARK   10  A    between atoms: S_12  and  S_13
REMARK   11  A    between atoms: S_13  and  C_14
REMARK   12  A    between atoms: C_14  and  C_15
REMARK   13  A    between atoms: C_15  and  N_17
REMARK   14  A    between atoms: C_15  and  C_28
REMARK   15  A    between atoms: C_18  and  C_20
REMARK   16  A    between atoms: C_20  and  C_21
REMARK   17  A    between atoms: C_21  and  C_22
REMARK   18  A    between atoms: C_22  and  N_24
REMARK   19  A    between atoms: C_22  and  C_25
REMARK   20  A    between atoms: C_25  and  O_26
REMARK   21  A    between atoms: N_30  and  CA_31
REMARK   22  A    between atoms: CA_31  and  C_32
REMARK   23  A    between atoms: C_32  and  O_33
REMARK   24  A    between atoms: N_37  and  CA_38
REMARK   25  A    between atoms: CA_38  and  C_39
REMARK   26  A    between atoms: C_39  and  O_40
REMARK   27  A    between atoms: C_42  and  O_43
REMARK                            x       y       z     vdW  Elec       q    Type
REMARK                         _______ _______ _______ _____ _____    ______ ____
ROOT
ATOM      1  S   UNK A   1       6.170   1.372  24.097  0.00  0.00    -0.091 S 
ENDROOT
BRANCH   1   2
ATOM      2  S   UNK A   1       6.117   3.222  25.029  0.00  0.00    -0.091 S 
BRANCH   2   3
ATOM      3  C   UNK A   1       7.256   4.365  24.112  0.00  0.00    +0.112 C 
BRANCH   3   4
ATOM      4  C   UNK A   1       8.743   3.996  24.048  0.00  0.00    +0.169 C 
BRANCH   4   5
ATOM      5  C   UNK A   1       9.605   5.243  23.851  0.00  0.00    +0.235 C 
ATOM      6  N   GLY A   2      10.955   4.970  23.948  0.00  0.00    -0.303 N 
ATOM      7  H   GLY A   2      11.198   4.019  23.662  0.00  0.00    +0.149 HD
ATOM      8  O   UNK A   1       9.153   6.346  23.567  0.00  0.00    -0.274 OA
BRANCH   6   9
ATOM      9  CA  GLY A   2      11.976   5.939  23.636  0.00  0.00    +0.224 C 
BRANCH   9  10
ATOM     10  C   GLY A   2      13.063   5.359  22.728  0.00  0.00    +0.322 C 
ATOM     11  OXT GLY A   2      13.015   5.420  21.507  0.00  0.00    -0.249 OA
BRANCH  10  12
ATOM     12  O   GLY A   2      14.203   4.997  23.355  0.00  0.00    -0.480 OA
ATOM     13  H   GLY A   2      14.764   4.392  22.829  0.00  0.00    +0.295 HD
ENDBRANCH  10  12
ENDBRANCH   9  10
ENDBRANCH   6   9
ENDBRANCH   4   5
BRANCH   4  14
ATOM     14  N   UNK A   1       9.061   3.094  22.922  0.00  0.00    -0.303 N 
ATOM     15  H   UNK A   1       8.955   3.458  21.977  0.00  0.00    +0.149 HD
ATOM     16  C   UNK A   1       9.961   2.062  23.106  0.00  0.00    +0.214 C 
ATOM     17  O   UNK A   1      10.446   1.817  24.209  0.00  0.00    -0.276 OA
BRANCH  16  18
ATOM     18  C   UNK A   1      10.338   1.290  21.857  0.00  0.00    +0.098 C 
BRANCH  18  19
ATOM     19  C   UNK A   1       9.267   0.249  21.499  0.00  0.00    +0.039 C 
BRANCH  19  20
ATOM     20  C   UNK A   1       9.609  -1.176  21.959  0.00  0.00    +0.161 C 
BRANCH  20  21
ATOM     21  N   UNK A   1      10.318  -1.168  23.275  0.00  0.00    -0.318 NA
ATOM     22  H   UNK A   1      10.504  -0.195  23.519  0.00  0.00    +0.119 HD
ATOM     23  H   UNK A   1       9.655  -1.477  23.996  0.00  0.00    +0.119 HD
ENDBRANCH  20  21
BRANCH  20  24
ATOM     24  C   UNK A   1       8.316  -1.996  22.118  0.00  0.00    +0.322 C 
ATOM     25  O   UNK A   1       8.267  -3.185  22.388  0.00  0.00    -0.249 OA
BRANCH  24  26
ATOM     26  O   UNK A   1       7.215  -1.227  21.913  0.00  0.00    -0.480 OA
ATOM     27  H   UNK A   1       7.420  -0.639  21.146  0.00  0.00    +0.295 HD
ENDBRANCH  24  26
ENDBRANCH  20  24
ENDBRANCH  19  20
ENDBRANCH  18  19
ENDBRANCH  16  18
ENDBRANCH   4  14
ENDBRANCH   3   4
ENDBRANCH   2   3
ENDBRANCH   1   2
BRANCH   1  28
ATOM     28  C   UNK A   1       7.389   0.411  25.083  0.00  0.00    +0.112 C 
BRANCH  28  29
ATOM     29  C   UNK A   1       6.938  -1.001  25.522  0.00  0.00    +0.169 C 
BRANCH  29  30
ATOM     30  C   UNK A   1       8.077  -1.819  26.171  0.00  0.00    +0.235 C 
ATOM     31  N   GLY A   2       7.749  -3.111  26.564  0.00  0.00    -0.303 N 
ATOM     32  H   GLY A   2       6.888  -3.436  26.104  0.00  0.00    +0.149 HD
ATOM     33  O   UNK A   1       9.210  -1.374  26.299  0.00  0.00    -0.274 OA
BRANCH  31  34
ATOM     34  CA  GLY A   2       8.803  -4.100  26.414  0.00  0.00    +0.224 C 
BRANCH  34  35
ATOM     35  C   GLY A   2       9.335  -4.630  25.076  0.00  0.00    +0.322 C 
ATOM     36  OXT GLY A   2       9.151  -5.777  24.681  0.00  0.00    -0.249 OA
BRANCH  35  37
ATOM     37  O   GLY A   2      10.205  -3.795  24.452  0.00  0.00    -0.480 OA
ATOM     38  H   GLY A   2      10.560  -3.120  25.045  0.00  0.00    +0.295 HD
ENDBRANCH  35  37
ENDBRANCH  34  35
ENDBRANCH  31  34
ENDBRANCH  29  30
BRANCH  29  40
ATOM     39  C   UNK A   1       5.084  -2.390  24.658  0.00  0.00    +0.214 C 
ATOM     40  N   UNK A   1       6.329  -1.849  24.494  0.00  0.00    -0.303 N 
ATOM     41  H   UNK A   1       6.990  -2.446  24.008  0.00  0.00    +0.149 HD
ATOM     42  O   UNK A   1       4.272  -2.037  25.502  0.00  0.00    -0.276 OA
BRANCH  39  43
ATOM     43  C   UNK A   1       4.840  -3.556  23.713  0.00  0.00    +0.098 C 
BRANCH  43  44
ATOM     44  C   UNK A   1       5.572  -4.833  24.107  0.00  0.00    +0.039 C 
BRANCH  44  45
ATOM     45  C   UNK A   1       5.341  -5.938  23.070  0.00  0.00    +0.161 C 
BRANCH  45  46
ATOM     46  N   UNK A   1       3.926  -5.995  22.594  0.00  0.00    -0.318 NA
ATOM     47  H   UNK A   1       3.333  -5.492  23.260  0.00  0.00    +0.119 HD
ATOM     48  H   UNK A   1       3.859  -5.447  21.728  0.00  0.00    +0.119 HD
ENDBRANCH  45  46
BRANCH  45  49
ATOM     49  C   UNK A   1       6.249  -5.780  21.840  0.00  0.00    +0.322 C 
ATOM     50  O   UNK A   1       5.900  -5.386  20.741  0.00  0.00    -0.249 OA
BRANCH  49  51
ATOM     51  O   UNK A   1       7.536  -6.099  22.153  0.00  0.00    -0.480 OA
ATOM     52  H   UNK A   1       7.862  -6.667  21.409  0.00  0.00    +0.295 HD
ENDBRANCH  49  51
ENDBRANCH  45  49
ENDBRANCH  44  45
ENDBRANCH  43  44
ENDBRANCH  39  43
ENDBRANCH  29  40
ENDBRANCH  28  29
ENDBRANCH   1  28
TORSDOF 27
ENDMDL
MODEL 2
REMARK VINA RESULT:      -6.1      2.542      8.876
REMARK  Name = 
REMARK  27 active torsions:
REMARK  status: ('A' for Active; 'I' for Inactive)
REMARK    1  A    between atoms: N_1  and  C_2
REMARK    2  A    between atoms: C_2  and  C_4
REMARK    3  A    between atoms: C_2  and  C_42
REMARK    4  A    between atoms: C_4  and  C_5
REMARK    5  A    between atoms: C_5  and  C_6
REMARK    6  A    between atoms: N_8  and  C_9
REMARK    7  A    between atoms: C_9  and  C_11
REMARK    8  A    between atoms: C_9  and  C_35
REMARK    9  A    between atoms: C_11  and  S_12
REMARK   10  A    between atoms: S_12  and  S_13
REMARK   11  A    between atoms: S_13  and  C_14
REMARK   12  A    between atoms: C_14  and  C_15
REMARK   13  A    between atoms: C_15  and  N_17
REMARK   14  A    between atoms: C_15  and  C_28
REMARK   15  A    between atoms: C_18  and  C_20
REMARK   16  A    between atoms: C_20  and  C_21
REMARK   17  A    between atoms: C_21  and  C_22
REMARK   18  A    between atoms: C_22  and  N_24
REMARK   19  A    between atoms: C_22  and  C_25
REMARK   20  A    between atoms: C_25  and  O_26
REMARK   21  A    between atoms: N_30  and  CA_31
REMARK   22  A    between atoms: CA_31  and  C_32
REMARK   23  A    between atoms: C_32  and  O_33
REMARK   24  A    between atoms: N_37  and  CA_38
REMARK   25  A    between atoms: CA_38  and  C_39
REMARK   26  A    between atoms: C_39  and  O_40
REMARK   27  A    between atoms: C_42  and  O_43
REMARK                            x       y       z     vdW  Elec       q    Type
REMARK                         _______ _______ _______ _____ _____    ______ ____
ROOT
ATOM      1  S   UNK A   1       9.355   0.068  21.489  0.00  0.00    -0.091 S 
ENDROOT
BRANCH   1   2
ATOM      2  S   UNK A   1       9.480  -1.613  22.694  0.00  0.00    -0.091 S 
BRANCH   2   3
ATOM      3  C   UNK A   1       7.942  -2.620  22.446  0.00  0.00    +0.112 C 
BRANCH   3   4
ATOM      4  C   UNK A   1       7.929  -4.056  22.983  0.00  0.00    +0.169 C 
BRANCH   4   5
ATOM      5  C   UNK A   1       6.687  -4.806  22.503  0.00  0.00    +0.235 C 
ATOM      6  N   GLY A   2       5.895  -5.237  23.549  0.00  0.00    -0.303 N 
ATOM      7  H   GLY A   2       5.955  -4.639  24.375  0.00  0.00    +0.149 HD
ATOM      8  O   UNK A   1       6.390  -4.947  21.322  0.00  0.00    -0.274 OA
BRANCH   6   9
ATOM      9  CA  GLY A   2       4.590  -5.819  23.357  0.00  0.00    +0.224 C 
BRANCH   9  10
ATOM     10  C   GLY A   2       4.323  -6.969  24.331  0.00  0.00    +0.322 C 
ATOM     11  OXT GLY A   2       4.724  -6.970  25.487  0.00  0.00    -0.249 OA
BRANCH  10  12
ATOM     12  O   GLY A   2       3.406  -7.871  23.919  0.00  0.00    -0.480 OA
ATOM     13  H   GLY A   2       3.113  -7.738  22.995  0.00  0.00    +0.295 HD
ENDBRANCH  10  12
ENDBRANCH   9  10
ENDBRANCH   6   9
ENDBRANCH   4   5
BRANCH   4  14
ATOM     14  N   UNK A   1       7.901  -4.115  24.459  0.00  0.00    -0.303 N 
ATOM     15  H   UNK A   1       7.011  -4.315  24.909  0.00  0.00    +0.149 HD
ATOM     16  C   UNK A   1       9.051  -4.446  25.151  0.00  0.00    +0.214 C 
ATOM     17  O   UNK A   1      10.125  -4.612  24.578  0.00  0.00    -0.276 OA
BRANCH  16  18
ATOM     18  C   UNK A   1       8.884  -4.631  26.647  0.00  0.00    +0.098 C 
BRANCH  18  19
ATOM     19  C   UNK A   1       7.634  -5.462  26.971  0.00  0.00    +0.039 C 
BRANCH  19  20
ATOM     20  C   UNK A   1       6.503  -4.654  27.623  0.00  0.00    +0.161 C 
BRANCH  20  21
ATOM     21  N   UNK A   1       5.478  -4.243  26.616  0.00  0.00    -0.318 NA
ATOM     22  H   UNK A   1       4.562  -4.321  27.058  0.00  0.00    +0.119 HD
ATOM     23  H   UNK A   1       5.582  -3.235  26.448  0.00  0.00    +0.119 HD
ENDBRANCH  20  21
BRANCH  20  24
ATOM     24  C   UNK A   1       5.803  -5.507  28.695  0.00  0.00    +0.322 C 
ATOM     25  O   UNK A   1       5.688  -5.203  29.871  0.00  0.00    -0.249 OA
BRANCH  24  26
ATOM     26  O   UNK A   1       5.325  -6.666  28.171  0.00  0.00    -0.480 OA
ATOM     27  H   UNK A   1       5.384  -6.578  27.189  0.00  0.00    +0.295 HD
ENDBRANCH  24  26
ENDBRANCH  20  24
ENDBRANCH  19  20
ENDBRANCH  18  19
ENDBRANCH  16  18
ENDBRANCH   4  14
ENDBRANCH   3   4
ENDBRANCH   2   3
ENDBRANCH   1   2
BRANCH   1  28
ATOM     28  C   UNK A   1      10.130   1.397  22.498  0.00  0.00    +0.112 C 
BRANCH  28  29
ATOM     29  C   UNK A   1       9.190   2.542  22.941  0.00  0.00    +0.169 C 
BRANCH  29  30
ATOM     30  C   UNK A   1       9.944   3.703  23.626  0.00  0.00    +0.235 C 
ATOM     31  N   GLY A   2      11.320   3.731  23.436  0.00  0.00    -0.303 N 
ATOM     32  H   GLY A   2      11.600   3.151  22.633  0.00  0.00    +0.149 HD
ATOM     33  O   UNK A   1       9.365   4.571  24.267  0.00  0.00    -0.274 OA
BRANCH  31  34
ATOM     34  CA  GLY A   2      11.914   5.053  23.332  0.00  0.00    +0.224 C 
BRANCH  34  35
ATOM     35  C   GLY A   2      13.223   5.380  22.602  0.00  0.00    +0.322 C 
ATOM     36  OXT GLY A   2      13.271   5.750  21.433  0.00  0.00    -0.249 OA
BRANCH  35  37
ATOM     37  O   GLY A   2      14.344   5.031  23.283  0.00  0.00    -0.480 OA
ATOM     38  H   GLY A   2      15.140   5.441  22.919  0.00  0.00    +0.295 HD
ENDBRANCH  35  37
ENDBRANCH  34  35
ENDBRANCH  31  34
ENDBRANCH  29  30
BRANCH  29  40
ATOM     39  C   UNK A   1       6.783   2.171  23.362  0.00  0.00    +0.214 C 
ATOM     40  N   UNK A   1       8.073   2.177  23.815  0.00  0.00    -0.303 N 
ATOM     41  H   UNK A   1       8.183   2.486  24.775  0.00  0.00    +0.149 HD
ATOM     42  O   UNK A   1       6.453   2.202  22.184  0.00  0.00    -0.276 OA
BRANCH  39  43
ATOM     43  C   UNK A   1       5.777   2.203  24.502  0.00  0.00    +0.098 C 
BRANCH  43  44
ATOM     44  C   UNK A   1       6.391   1.951  25.873  0.00  0.00    +0.039 C 
BRANCH  44  45
ATOM     45  C   UNK A   1       6.074   0.533  26.362  0.00  0.00    +0.161 C 
BRANCH  45  46
ATOM     46  N   UNK A   1       4.853  -0.039  25.719  0.00  0.00    -0.318 NA
ATOM     47  H   UNK A   1       4.049   0.547  25.957  0.00  0.00    +0.119 HD
ATOM     48  H   UNK A   1       4.952   0.065  24.701  0.00  0.00    +0.119 HD
ENDBRANCH  45  46
BRANCH  45  49
ATOM     49  C   UNK A   1       7.238  -0.440  26.119  0.00  0.00    +0.322 C 
ATOM     50  O   UNK A   1       7.135  -1.616  25.815  0.00  0.00    -0.249 OA
BRANCH  49  51
ATOM     51  O   UNK A   1       8.432   0.203  26.244  0.00  0.00    -0.480 OA
ATOM     52  H   UNK A   1       8.894   0.087  25.375  0.00  0.00    +0.295 HD
ENDBRANCH  49  51
ENDBRANCH  45  49
ENDBRANCH  44  45
ENDBRANCH  43  44
ENDBRANCH  39  43
ENDBRANCH  29  40
ENDBRANCH  28  29
ENDBRANCH   1  28
TORSDOF 27
ENDMDL
MODEL 3
REMARK VINA RESULT:      -5.9      3.192      5.151
REMARK  Name = 
REMARK  27 active torsions:
REMARK  status: ('A' for Active; 'I' for Inactive)
REMARK    1  A    between atoms: N_1  and  C_2
REMARK    2  A    between atoms: C_2  and  C_4
REMARK    3  A    between atoms: C_2  and  C_42
REMARK    4  A    between atoms: C_4  and  C_5
REMARK    5  A    between atoms: C_5  and  C_6
REMARK    6  A    between atoms: N_8  and  C_9
REMARK    7  A    between atoms: C_9  and  C_11
REMARK    8  A    between atoms: C_9  and  C_35
REMARK    9  A    between atoms: C_11  and  S_12
REMARK   10  A    between atoms: S_12  and  S_13
REMARK   11  A    between atoms: S_13  and  C_14
REMARK   12  A    between atoms: C_14  and  C_15
REMARK   13  A    between atoms: C_15  and  N_17
REMARK   14  A    between atoms: C_15  and  C_28
REMARK   15  A    between atoms: C_18  and  C_20
REMARK   16  A    between atoms: C_20  and  C_21
REMARK   17  A    between atoms: C_21  and  C_22
REMARK   18  A    between atoms: C_22  and  N_24
REMARK   19  A    between atoms: C_22  and  C_25
REMARK   20  A    between atoms: C_25  and  O_26
REMARK   21  A    between atoms: N_30  and  CA_31
REMARK   22  A    between atoms: CA_31  and  C_32
REMARK   23  A    between atoms: C_32  and  O_33
REMARK   24  A    between atoms: N_37  and  CA_38
REMARK   25  A    between atoms: CA_38  and  C_39
REMARK   26  A    between atoms: C_39  and  O_40
REMARK   27  A    between atoms: C_42  and  O_43
REMARK                            x       y       z     vdW  Elec       q    Type
REMARK                         _______ _______ _______ _____ _____    ______ ____
ROOT
ATOM      1  S   UNK A   1       5.480  -0.710  26.480  0.00  0.00    -0.091 S 
ENDROOT
BRANCH   1   2
ATOM      2  S   UNK A   1       6.990   0.055  25.285  0.00  0.00    -0.091 S 
BRANCH   2   3
ATOM      3  C   UNK A   1       8.591  -0.727  25.802  0.00  0.00    +0.112 C 
BRANCH   3   4
ATOM      4  C   UNK A   1       9.247  -1.723  24.838  0.00  0.00    +0.169 C 
BRANCH   4   5
ATOM      5  C   UNK A   1       9.764  -1.013  23.588  0.00  0.00    +0.235 C 
ATOM      6  N   GLY A   2       8.895  -1.123  22.521  0.00  0.00    -0.303 N 
ATOM      7  H   GLY A   2       7.916  -1.208  22.804  0.00  0.00    +0.149 HD
ATOM      8  O   UNK A   1      10.800  -0.357  23.556  0.00  0.00    -0.274 OA
BRANCH   6   9
ATOM      9  CA  GLY A   2       9.073  -0.402  21.286  0.00  0.00    +0.224 C 
BRANCH   9  10
ATOM     10  C   GLY A   2       8.795   1.095  21.447  0.00  0.00    +0.322 C 
ATOM     11  OXT GLY A   2       7.697   1.540  21.751  0.00  0.00    -0.249 OA
BRANCH  10  12
ATOM     12  O   GLY A   2       9.891   1.884  21.480  0.00  0.00    -0.480 OA
ATOM     13  H   GLY A   2       9.937   2.521  20.740  0.00  0.00    +0.295 HD
ENDBRANCH  10  12
ENDBRANCH   9  10
ENDBRANCH   6   9
ENDBRANCH   4   5
BRANCH   4  14
ATOM     14  N   UNK A   1       8.310  -2.763  24.362  0.00  0.00    -0.303 N 
ATOM     15  H   UNK A   1       7.609  -2.491  23.677  0.00  0.00    +0.149 HD
ATOM     16  C   UNK A   1       8.692  -4.090  24.388  0.00  0.00    +0.214 C 
ATOM     17  O   UNK A   1       9.763  -4.446  24.875  0.00  0.00    -0.276 OA
BRANCH  16  18
ATOM     18  C   UNK A   1       7.726  -5.062  23.738  0.00  0.00    +0.098 C 
BRANCH  18  19
ATOM     19  C   UNK A   1       7.748  -4.934  22.208  0.00  0.00    +0.039 C 
BRANCH  19  20
ATOM     20  C   UNK A   1       6.353  -4.843  21.573  0.00  0.00    +0.161 C 
BRANCH  20  21
ATOM     21  N   UNK A   1       5.561  -6.087  21.818  0.00  0.00    -0.318 NA
ATOM     22  H   UNK A   1       4.907  -6.194  21.042  0.00  0.00    +0.119 HD
ATOM     23  H   UNK A   1       6.191  -6.891  21.718  0.00  0.00    +0.119 HD
ENDBRANCH  20  21
BRANCH  20  24
ATOM     24  C   UNK A   1       5.581  -3.658  22.180  0.00  0.00    +0.322 C 
ATOM     25  O   UNK A   1       5.981  -2.506  22.223  0.00  0.00    -0.249 OA
BRANCH  24  26
ATOM     26  O   UNK A   1       4.381  -4.054  22.680  0.00  0.00    -0.480 OA
ATOM     27  H   UNK A   1       4.054  -3.315  23.249  0.00  0.00    +0.295 HD
ENDBRANCH  24  26
ENDBRANCH  20  24
ENDBRANCH  19  20
ENDBRANCH  18  19
ENDBRANCH  16  18
ENDBRANCH   4  14
ENDBRANCH   3   4
ENDBRANCH   2   3
ENDBRANCH   1   2
BRANCH   1  28
ATOM     28  C   UNK A   1       4.815  -2.122  25.508  0.00  0.00    +0.112 C 
BRANCH  28  29
ATOM     29  C   UNK A   1       3.797  -3.025  26.241  0.00  0.00    +0.169 C 
BRANCH  29  30
ATOM     30  C   UNK A   1       4.449  -3.888  27.345  0.00  0.00    +0.235 C 
ATOM     31  N   GLY A   2       4.997  -5.095  26.929  0.00  0.00    -0.303 N 
ATOM     32  H   GLY A   2       5.151  -5.106  25.912  0.00  0.00    +0.149 HD
ATOM     33  O   UNK A   1       4.515  -3.518  28.511  0.00  0.00    -0.274 OA
BRANCH  31  34
ATOM     34  CA  GLY A   2       6.203  -5.511  27.624  0.00  0.00    +0.224 C 
BRANCH  34  35
ATOM     35  C   GLY A   2       6.239  -6.336  28.917  0.00  0.00    +0.322 C 
ATOM     36  OXT GLY A   2       6.186  -7.562  28.939  0.00  0.00    -0.249 OA
BRANCH  35  37
ATOM     37  O   GLY A   2       6.125  -5.600  30.052  0.00  0.00    -0.480 OA
ATOM     38  H   GLY A   2       5.790  -4.710  29.883  0.00  0.00    +0.295 HD
ENDBRANCH  35  37
ENDBRANCH  34  35
ENDBRANCH  31  34
ENDBRANCH  29  30
BRANCH  29  40
ATOM     39  C   UNK A   1       1.678  -3.665  25.141  0.00  0.00    +0.214 C 
ATOM     40  N   UNK A   1       2.994  -3.924  25.409  0.00  0.00    -0.303 N 
ATOM     41  H   UNK A   1       3.216  -4.906  25.531  0.00  0.00    +0.149 HD
ATOM     42  O   UNK A   1       1.124  -2.590  25.323  0.00  0.00    -0.276 OA
BRANCH  39  43
ATOM     43  C   UNK A   1       0.940  -4.904  24.657  0.00  0.00    +0.098 C 
BRANCH  43  44
ATOM     44  C   UNK A   1       1.567  -5.556  23.432  0.00  0.00    +0.039 C 
BRANCH  44  45
ATOM     45  C   UNK A   1       1.858  -7.039  23.692  0.00  0.00    +0.161 C 
BRANCH  45  46
ATOM     46  N   UNK A   1       1.875  -7.851  22.438  0.00  0.00    -0.318 NA
ATOM     47  H   UNK A   1       2.535  -7.428  21.780  0.00  0.00    +0.119 HD
ATOM     48  H   UNK A   1       2.285  -8.767  22.658  0.00  0.00    +0.119 HD
ENDBRANCH  45  46
BRANCH  45  49
ATOM     49  C   UNK A   1       3.199  -7.251  24.413  0.00  0.00    +0.322 C 
ATOM     50  O   UNK A   1       4.147  -6.484  24.396  0.00  0.00    -0.249 OA
BRANCH  49  51
ATOM     51  O   UNK A   1       3.180  -8.409  25.128  0.00  0.00    -0.480 OA
ATOM     52  H   UNK A   1       2.227  -8.582  25.337  0.00  0.00    +0.295 HD
ENDBRANCH  49  51
ENDBRANCH  45  49
ENDBRANCH  44  45
ENDBRANCH  43  44
ENDBRANCH  39  43
ENDBRANCH  29  40
ENDBRANCH  28  29
ENDBRANCH   1  28
TORSDOF 27
ENDMDL
MODEL 4
REMARK VINA RESULT:      -5.9      2.228      9.209
REMARK  Name = 
REMARK  27 active torsions:
REMARK  status: ('A' for Active; 'I' for Inactive)
REMARK    1  A    between atoms: N_1  and  C_2
REMARK    2  A    between atoms: C_2  and  C_4
REMARK    3  A    between atoms: C_2  and  C_42
REMARK    4  A    between atoms: C_4  and  C_5
REMARK    5  A    between atoms: C_5  and  C_6
REMARK    6  A    between atoms: N_8  and  C_9
REMARK    7  A    between atoms: C_9  and  C_11
REMARK    8  A    between atoms: C_9  and  C_35
REMARK    9  A    between atoms: C_11  and  S_12
REMARK   10  A    between atoms: S_12  and  S_13
REMARK   11  A    between atoms: S_13  and  C_14
REMARK   12  A    between atoms: C_14  and  C_15
REMARK   13  A    between atoms: C_15  and  N_17
REMARK   14  A    between atoms: C_15  and  C_28
REMARK   15  A    between atoms: C_18  and  C_20
REMARK   16  A    between atoms: C_20  and  C_21
REMARK   17  A    between atoms: C_21  and  C_22
REMARK   18  A    between atoms: C_22  and  N_24
REMARK   19  A    between atoms: C_22  and  C_25
REMARK   20  A    between atoms: C_25  and  O_26
REMARK   21  A    between atoms: N_30  and  CA_31
REMARK   22  A    between atoms: CA_31  and  C_32
REMARK   23  A    between atoms: C_32  and  O_33
REMARK   24  A    between atoms: N_37  and  CA_38
REMARK   25  A    between atoms: CA_38  and  C_39
REMARK   26  A    between atoms: C_39  and  O_40
REMARK   27  A    between atoms: C_42  and  O_43
REMARK                            x       y       z     vdW  Elec       q    Type
REMARK                         _______ _______ _______ _____ _____    ______ ____
ROOT
ATOM      1  S   UNK A   1       5.888   0.929  26.019  0.00  0.00    -0.091 S 
ENDROOT
BRANCH   1   2
ATOM      2  S   UNK A   1       6.420  -0.873  26.894  0.00  0.00    -0.091 S 
BRANCH   2   3
ATOM      3  C   UNK A   1       6.357  -2.191  25.589  0.00  0.00    +0.112 C 
BRANCH   3   4
ATOM      4  C   UNK A   1       6.990  -3.549  25.911  0.00  0.00    +0.169 C 
BRANCH   4   5
ATOM      5  C   UNK A   1       7.739  -4.102  24.699  0.00  0.00    +0.235 C 
ATOM      6  N   GLY A   2       6.895  -4.398  23.647  0.00  0.00    -0.303 N 
ATOM      7  H   GLY A   2       6.059  -3.810  23.622  0.00  0.00    +0.149 HD
ATOM      8  O   UNK A   1       8.960  -4.204  24.640  0.00  0.00    -0.274 OA
BRANCH   6   9
ATOM      9  CA  GLY A   2       7.372  -4.772  22.340  0.00  0.00    +0.224 C 
BRANCH   9  10
ATOM     10  C   GLY A   2       6.327  -5.566  21.550  0.00  0.00    +0.322 C 
ATOM     11  OXT GLY A   2       5.950  -5.242  20.432  0.00  0.00    -0.249 OA
BRANCH  10  12
ATOM     12  O   GLY A   2       6.029  -6.784  22.052  0.00  0.00    -0.480 OA
ATOM     13  H   GLY A   2       6.798  -7.244  22.445  0.00  0.00    +0.295 HD
ENDBRANCH  10  12
ENDBRANCH   9  10
ENDBRANCH   6   9
ENDBRANCH   4   5
BRANCH   4  14
ATOM     14  N   UNK A   1       5.992  -4.574  26.280  0.00  0.00    -0.303 N 
ATOM     15  H   UNK A   1       5.233  -4.755  25.627  0.00  0.00    +0.149 HD
ATOM     16  C   UNK A   1       6.348  -5.598  27.137  0.00  0.00    +0.214 C 
ATOM     17  O   UNK A   1       7.454  -5.637  27.672  0.00  0.00    -0.276 OA
BRANCH  16  18
ATOM     18  C   UNK A   1       5.306  -6.682  27.333  0.00  0.00    +0.098 C 
BRANCH  18  19
ATOM     19  C   UNK A   1       4.063  -6.424  26.469  0.00  0.00    +0.039 C 
BRANCH  19  20
ATOM     20  C   UNK A   1       4.053  -7.204  25.147  0.00  0.00    +0.161 C 
BRANCH  20  21
ATOM     21  N   UNK A   1       3.040  -8.303  25.170  0.00  0.00    -0.318 NA
ATOM     22  H   UNK A   1       2.714  -8.443  24.214  0.00  0.00    +0.119 HD
ATOM     23  H   UNK A   1       3.525  -9.180  25.393  0.00  0.00    +0.119 HD
ENDBRANCH  20  21
BRANCH  20  24
ATOM     24  C   UNK A   1       3.703  -6.257  23.986  0.00  0.00    +0.322 C 
ATOM     25  O   UNK A   1       3.962  -5.066  23.948  0.00  0.00    -0.249 OA
BRANCH  24  26
ATOM     26  O   UNK A   1       3.052  -6.914  22.990  0.00  0.00    -0.480 OA
ATOM     27  H   UNK A   1       2.703  -7.750  23.384  0.00  0.00    +0.295 HD
ENDBRANCH  24  26
ENDBRANCH  20  24
ENDBRANCH  19  20
ENDBRANCH  18  19
ENDBRANCH  16  18
ENDBRANCH   4  14
ENDBRANCH   3   4
ENDBRANCH   2   3
ENDBRANCH   1   2
BRANCH   1  28
ATOM     28  C   UNK A   1       7.461   1.880  25.968  0.00  0.00    +0.112 C 
BRANCH  28  29
ATOM     29  C   UNK A   1       7.751   2.632  24.648  0.00  0.00    +0.169 C 
BRANCH  29  30
ATOM     30  C   UNK A   1       8.319   1.709  23.546  0.00  0.00    +0.235 C 
ATOM     31  N   GLY A   2       8.761   0.461  23.968  0.00  0.00    -0.303 N 
ATOM     32  H   GLY A   2       8.379   0.220  24.892  0.00  0.00    +0.149 HD
ATOM     33  O   UNK A   1       8.346   2.038  22.367  0.00  0.00    -0.274 OA
BRANCH  31  34
ATOM     34  CA  GLY A   2       8.543  -0.631  23.033  0.00  0.00    +0.224 C 
BRANCH  34  35
ATOM     35  C   GLY A   2       9.631  -1.296  22.180  0.00  0.00    +0.322 C 
ATOM     36  OXT GLY A   2      10.577  -1.917  22.654  0.00  0.00    -0.249 OA
BRANCH  35  37
ATOM     37  O   GLY A   2       9.585  -0.969  20.864  0.00  0.00    -0.480 OA
ATOM     38  H   GLY A   2       9.577  -0.014  20.719  0.00  0.00    +0.295 HD
ENDBRANCH  35  37
ENDBRANCH  34  35
ENDBRANCH  31  34
ENDBRANCH  29  30
BRANCH  29  40
ATOM     39  C   UNK A   1       8.374   4.944  24.036  0.00  0.00    +0.214 C 
ATOM     40  N   UNK A   1       8.635   3.797  24.733  0.00  0.00    -0.303 N 
ATOM     41  H   UNK A   1       9.619   3.563  24.811  0.00  0.00    +0.149 HD
ATOM     42  O   UNK A   1       7.304   5.217  23.509  0.00  0.00    -0.276 OA
BRANCH  39  43
ATOM     43  C   UNK A   1       9.604   5.831  23.915  0.00  0.00    +0.098 C 
BRANCH  43  44
ATOM     44  C   UNK A   1      10.909   5.058  23.780  0.00  0.00    +0.039 C 
BRANCH  44  45
ATOM     45  C   UNK A   1      12.091   6.013  23.572  0.00  0.00    +0.161 C 
BRANCH  45  46
ATOM     46  N   UNK A   1      12.757   6.393  24.853  0.00  0.00    -0.318 NA
ATOM     47  H   UNK A   1      12.479   5.728  25.580  0.00  0.00    +0.119 HD
ATOM     48  H   UNK A   1      13.767   6.243  24.743  0.00  0.00    +0.119 HD
ENDBRANCH  45  46
BRANCH  45  49
ATOM     49  C   UNK A   1      13.159   5.420  22.638  0.00  0.00    +0.322 C 
ATOM     50  O   UNK A   1      13.109   5.396  21.421  0.00  0.00    -0.249 OA
BRANCH  49  51
ATOM     51  O   UNK A   1      14.217   4.955  23.358  0.00  0.00    -0.480 OA
ATOM     52  H   UNK A   1      13.838   4.611  24.206  0.00  0.00    +0.295 HD
ENDBRANCH  49  51
ENDBRANCH  45  49
ENDBRANCH  44  45
ENDBRANCH  43  44
ENDBRANCH  39  43
ENDBRANCH  29  40
ENDBRANCH  28  29
ENDBRANCH   1  28
TORSDOF 27
ENDMDL
MODEL 5
REMARK VINA RESULT:      -5.9      2.759      7.856
REMARK  Name = 
REMARK  27 active torsions:
REMARK  status: ('A' for Active; 'I' for Inactive)
REMARK    1  A    between atoms: N_1  and  C_2
REMARK    2  A    between atoms: C_2  and  C_4
REMARK    3  A    between atoms: C_2  and  C_42
REMARK    4  A    between atoms: C_4  and  C_5
REMARK    5  A    between atoms: C_5  and  C_6
REMARK    6  A    between atoms: N_8  and  C_9
REMARK    7  A    between atoms: C_9  and  C_11
REMARK    8  A    between atoms: C_9  and  C_35
REMARK    9  A    between atoms: C_11  and  S_12
REMARK   10  A    between atoms: S_12  and  S_13
REMARK   11  A    between atoms: S_13  and  C_14
REMARK   12  A    between atoms: C_14  and  C_15
REMARK   13  A    between atoms: C_15  and  N_17
REMARK   14  A    between atoms: C_15  and  C_28
REMARK   15  A    between atoms: C_18  and  C_20
REMARK   16  A    between atoms: C_20  and  C_21
REMARK   17  A    between atoms: C_21  and  C_22
REMARK   18  A    between atoms: C_22  and  N_24
REMARK   19  A    between atoms: C_22  and  C_25
REMARK   20  A    between atoms: C_25  and  O_26
REMARK   21  A    between atoms: N_30  and  CA_31
REMARK   22  A    between atoms: CA_31  and  C_32
REMARK   23  A    between atoms: C_32  and  O_33
REMARK   24  A    between atoms: N_37  and  CA_38
REMARK   25  A    between atoms: CA_38  and  C_39
REMARK   26  A    between atoms: C_39  and  O_40
REMARK   27  A    between atoms: C_42  and  O_43
REMARK                            x       y       z     vdW  Elec       q    Type
REMARK                         _______ _______ _______ _____ _____    ______ ____
ROOT
ATOM      1  S   UNK A   1       4.731  -0.641  27.675  0.00  0.00    -0.091 S 
ENDROOT
BRANCH   1   2
ATOM      2  S   UNK A   1       3.922  -2.494  27.224  0.00  0.00    -0.091 S 
BRANCH   2   3
ATOM      3  C   UNK A   1       4.887  -3.787  28.142  0.00  0.00    +0.112 C 
BRANCH   3   4
ATOM      4  C   UNK A   1       5.041  -5.165  27.489  0.00  0.00    +0.169 C 
BRANCH   4   5
ATOM      5  C   UNK A   1       6.482  -5.662  27.598  0.00  0.00    +0.235 C 
ATOM      6  N   GLY A   2       7.241  -5.326  26.495  0.00  0.00    -0.303 N 
ATOM      7  H   GLY A   2       6.934  -4.463  26.040  0.00  0.00    +0.149 HD
ATOM      8  O   UNK A   1       6.934  -6.231  28.586  0.00  0.00    -0.274 OA
BRANCH   6   9
ATOM      9  CA  GLY A   2       8.666  -5.532  26.430  0.00  0.00    +0.224 C 
BRANCH   9  10
ATOM     10  C   GLY A   2       9.381  -4.390  25.702  0.00  0.00    +0.322 C 
ATOM     11  OXT GLY A   2      10.129  -4.572  24.751  0.00  0.00    -0.249 OA
BRANCH  10  12
ATOM     12  O   GLY A   2       8.944  -3.150  26.007  0.00  0.00    -0.480 OA
ATOM     13  H   GLY A   2       8.051  -3.136  26.405  0.00  0.00    +0.295 HD
ENDBRANCH  10  12
ENDBRANCH   9  10
ENDBRANCH   6   9
ENDBRANCH   4   5
BRANCH   4  14
ATOM     14  N   UNK A   1       4.718  -5.157  26.047  0.00  0.00    -0.303 N 
ATOM     15  H   UNK A   1       5.450  -4.878  25.398  0.00  0.00    +0.149 HD
ATOM     16  C   UNK A   1       3.724  -5.987  25.565  0.00  0.00    +0.214 C 
ATOM     17  O   UNK A   1       3.038  -6.678  26.315  0.00  0.00    -0.276 OA
BRANCH  16  18
ATOM     18  C   UNK A   1       3.572  -6.019  24.056  0.00  0.00    +0.098 C 
BRANCH  18  19
ATOM     19  C   UNK A   1       4.077  -4.718  23.416  0.00  0.00    +0.039 C 
BRANCH  19  20
ATOM     20  C   UNK A   1       4.957  -4.937  22.177  0.00  0.00    +0.161 C 
BRANCH  20  21
ATOM     21  N   UNK A   1       5.413  -3.637  21.597  0.00  0.00    -0.318 NA
ATOM     22  H   UNK A   1       5.602  -3.002  22.372  0.00  0.00    +0.119 HD
ATOM     23  H   UNK A   1       6.336  -3.784  21.172  0.00  0.00    +0.119 HD
ENDBRANCH  20  21
BRANCH  20  24
ATOM     24  C   UNK A   1       6.204  -5.751  22.561  0.00  0.00    +0.322 C 
ATOM     25  O   UNK A   1       6.603  -6.745  21.976  0.00  0.00    -0.249 OA
BRANCH  24  26
ATOM     26  O   UNK A   1       6.818  -5.230  23.656  0.00  0.00    -0.480 OA
ATOM     27  H   UNK A   1       7.697  -5.675  23.726  0.00  0.00    +0.295 HD
ENDBRANCH  24  26
ENDBRANCH  20  24
ENDBRANCH  19  20
ENDBRANCH  18  19
ENDBRANCH  16  18
ENDBRANCH   4  14
ENDBRANCH   3   4
ENDBRANCH   2   3
ENDBRANCH   1   2
BRANCH   1  28
ATOM     28  C   UNK A   1       6.183  -0.504  26.555  0.00  0.00    +0.112 C 
BRANCH  28  29
ATOM     29  C   UNK A   1       5.864  -0.416  25.045  0.00  0.00    +0.169 C 
BRANCH  29  30
ATOM     30  C   UNK A   1       6.443  -1.601  24.240  0.00  0.00    +0.235 C 
ATOM     31  N   GLY A   2       7.055  -1.275  23.035  0.00  0.00    -0.303 N 
ATOM     32  H   GLY A   2       7.293  -0.276  22.994  0.00  0.00    +0.149 HD
ATOM     33  O   UNK A   1       6.403  -2.754  24.652  0.00  0.00    -0.274 OA
BRANCH  31  34
ATOM     34  CA  GLY A   2       8.209  -2.083  22.679  0.00  0.00    +0.224 C 
BRANCH  34  35
ATOM     35  C   GLY A   2       9.673  -1.679  22.900  0.00  0.00    +0.322 C 
ATOM     36  OXT GLY A   2      10.118  -1.315  23.983  0.00  0.00    -0.249 OA
BRANCH  35  37
ATOM     37  O   GLY A   2      10.396  -1.557  21.758  0.00  0.00    -0.480 OA
ATOM     38  H   GLY A   2      10.731  -2.405  21.439  0.00  0.00    +0.295 HD
ENDBRANCH  35  37
ENDBRANCH  34  35
ENDBRANCH  31  34
ENDBRANCH  29  30
BRANCH  29  40
ATOM     39  C   UNK A   1       5.406   1.863  24.205  0.00  0.00    +0.214 C 
ATOM     40  N   UNK A   1       6.267   0.812  24.356  0.00  0.00    -0.303 N 
ATOM     41  H   UNK A   1       6.888   0.658  23.569  0.00  0.00    +0.149 HD
ATOM     42  O   UNK A   1       4.358   2.005  24.821  0.00  0.00    -0.276 OA
BRANCH  39  43
ATOM     43  C   UNK A   1       5.857   2.819  23.111  0.00  0.00    +0.098 C 
BRANCH  43  44
ATOM     44  C   UNK A   1       6.684   2.156  22.017  0.00  0.00    +0.039 C 
BRANCH  44  45
ATOM     45  C   UNK A   1       8.077   2.790  21.925  0.00  0.00    +0.161 C 
BRANCH  45  46
ATOM     46  N   UNK A   1       8.183   4.062  22.702  0.00  0.00    -0.318 NA
ATOM     47  H   UNK A   1       7.245   4.449  22.831  0.00  0.00    +0.119 HD
ATOM     48  H   UNK A   1       8.496   3.829  23.652  0.00  0.00    +0.119 HD
ENDBRANCH  45  46
BRANCH  45  49
ATOM     49  C   UNK A   1       9.181   1.841  22.415  0.00  0.00    +0.322 C 
ATOM     50  O   UNK A   1      10.177   1.521  21.789  0.00  0.00    -0.249 OA
BRANCH  49  51
ATOM     51  O   UNK A   1       8.926   1.426  23.687  0.00  0.00    -0.480 OA
ATOM     52  H   UNK A   1       8.500   0.536  23.601  0.00  0.00    +0.295 HD
ENDBRANCH  49  51
ENDBRANCH  45  49
ENDBRANCH  44  45
ENDBRANCH  43  44
ENDBRANCH  39  43
ENDBRANCH  29  40
ENDBRANCH  28  29
ENDBRANCH   1  28
TORSDOF 27
ENDMDL
MODEL 6
REMARK VINA RESULT:      -5.9      2.528      7.777
REMARK  Name = 
REMARK  27 active torsions:
REMARK  status: ('A' for Active; 'I' for Inactive)
REMARK    1  A    between atoms: N_1  and  C_2
REMARK    2  A    between atoms: C_2  and  C_4
REMARK    3  A    between atoms: C_2  and  C_42
REMARK    4  A    between atoms: C_4  and  C_5
REMARK    5  A    between atoms: C_5  and  C_6
REMARK    6  A    between atoms: N_8  and  C_9
REMARK    7  A    between atoms: C_9  and  C_11
REMARK    8  A    between atoms: C_9  and  C_35
REMARK    9  A    between atoms: C_11  and  S_12
REMARK   10  A    between atoms: S_12  and  S_13
REMARK   11  A    between atoms: S_13  and  C_14
REMARK   12  A    between atoms: C_14  and  C_15
REMARK   13  A    between atoms: C_15  and  N_17
REMARK   14  A    between atoms: C_15  and  C_28
REMARK   15  A    between atoms: C_18  and  C_20
REMARK   16  A    between atoms: C_20  and  C_21
REMARK   17  A    between atoms: C_21  and  C_22
REMARK   18  A    between atoms: C_22  and  N_24
REMARK   19  A    between atoms: C_22  and  C_25
REMARK   20  A    between atoms: C_25  and  O_26
REMARK   21  A    between atoms: N_30  and  CA_31
REMARK   22  A    between atoms: CA_31  and  C_32
REMARK   23  A    between atoms: C_32  and  O_33
REMARK   24  A    between atoms: N_37  and  CA_38
REMARK   25  A    between atoms: CA_38  and  C_39
REMARK   26  A    between atoms: C_39  and  O_40
REMARK   27  A    between atoms: C_42  and  O_43
REMARK                            x       y       z     vdW  Elec       q    Type
REMARK                         _______ _______ _______ _____ _____    ______ ____
ROOT
ATOM      1  S   UNK A   1       5.924   1.355  27.478  0.00  0.00    -0.091 S 
ENDROOT
BRANCH   1   2
ATOM      2  S   UNK A   1       4.846  -0.395  27.215  0.00  0.00    -0.091 S 
BRANCH   2   3
ATOM      3  C   UNK A   1       6.041  -1.756  26.813  0.00  0.00    +0.112 C 
BRANCH   3   4
ATOM      4  C   UNK A   1       5.545  -3.203  26.926  0.00  0.00    +0.169 C 
BRANCH   4   5
ATOM      5  C   UNK A   1       6.708  -4.160  27.182  0.00  0.00    +0.235 C 
ATOM      6  N   GLY A   2       7.831  -3.834  26.446  0.00  0.00    -0.303 N 
ATOM      7  H   GLY A   2       7.906  -2.835  26.244  0.00  0.00    +0.149 HD
ATOM      8  O   UNK A   1       6.674  -5.071  28.002  0.00  0.00    -0.274 OA
BRANCH   6   9
ATOM      9  CA  GLY A   2       9.106  -4.478  26.634  0.00  0.00    +0.224 C 
BRANCH   9  10
ATOM     10  C   GLY A   2       9.728  -4.924  25.308  0.00  0.00    +0.322 C 
ATOM     11  OXT GLY A   2      10.084  -4.138  24.441  0.00  0.00    -0.249 OA
BRANCH  10  12
ATOM     12  O   GLY A   2      10.093  -6.223  25.252  0.00  0.00    -0.480 OA
ATOM     13  H   GLY A   2       9.379  -6.842  25.504  0.00  0.00    +0.295 HD
ENDBRANCH  10  12
ENDBRANCH   9  10
ENDBRANCH   6   9
ENDBRANCH   4   5
BRANCH   4  14
ATOM     14  N   UNK A   1       4.883  -3.680  25.694  0.00  0.00    -0.303 N 
ATOM     15  H   UNK A   1       5.409  -3.631  24.824  0.00  0.00    +0.149 HD
ATOM     16  C   UNK A   1       3.883  -4.630  25.778  0.00  0.00    +0.214 C 
ATOM     17  O   UNK A   1       3.465  -5.033  26.862  0.00  0.00    -0.276 OA
BRANCH  16  18
ATOM     18  C   UNK A   1       3.375  -5.166  24.454  0.00  0.00    +0.098 C 
BRANCH  18  19
ATOM     19  C   UNK A   1       4.396  -6.113  23.807  0.00  0.00    +0.039 C 
BRANCH  19  20
ATOM     20  C   UNK A   1       5.111  -5.515  22.587  0.00  0.00    +0.161 C 
BRANCH  20  21
ATOM     21  N   UNK A   1       4.710  -4.091  22.365  0.00  0.00    -0.318 NA
ATOM     22  H   UNK A   1       5.555  -3.522  22.409  0.00  0.00    +0.119 HD
ATOM     23  H   UNK A   1       4.402  -3.995  21.390  0.00  0.00    +0.119 HD
ENDBRANCH  20  21
BRANCH  20  24
ATOM     24  C   UNK A   1       6.633  -5.553  22.804  0.00  0.00    +0.322 C 
ATOM     25  O   UNK A   1       7.407  -6.300  22.229  0.00  0.00    -0.249 OA
BRANCH  24  26
ATOM     26  O   UNK A   1       7.023  -4.645  23.737  0.00  0.00    -0.480 OA
ATOM     27  H   UNK A   1       6.474  -3.837  23.592  0.00  0.00    +0.295 HD
ENDBRANCH  24  26
ENDBRANCH  20  24
ENDBRANCH  19  20
ENDBRANCH  18  19
ENDBRANCH  16  18
ENDBRANCH   4  14
ENDBRANCH   3   4
ENDBRANCH   2   3
ENDBRANCH   1   2
BRANCH   1  28
ATOM     28  C   UNK A   1       7.539   1.008  26.671  0.00  0.00    +0.112 C 
BRANCH  28  29
ATOM     29  C   UNK A   1       7.764   1.681  25.297  0.00  0.00    +0.169 C 
BRANCH  29  30
ATOM     30  C   UNK A   1       6.484   1.720  24.432  0.00  0.00    +0.235 C 
ATOM     31  N   GLY A   2       5.954   2.982  24.188  0.00  0.00    -0.303 N 
ATOM     32  H   GLY A   2       6.647   3.721  24.367  0.00  0.00    +0.149 HD
ATOM     33  O   UNK A   1       5.984   0.708  23.957  0.00  0.00    -0.274 OA
BRANCH  31  34
ATOM     34  CA  GLY A   2       5.349   3.167  22.880  0.00  0.00    +0.224 C 
BRANCH  34  35
ATOM     35  C   GLY A   2       3.851   3.367  22.618  0.00  0.00    +0.322 C 
ATOM     36  OXT GLY A   2       2.971   2.856  23.304  0.00  0.00    -0.249 OA
BRANCH  35  37
ATOM     37  O   GLY A   2       3.568   3.984  21.443  0.00  0.00    -0.480 OA
ATOM     38  H   GLY A   2       3.837   3.462  20.676  0.00  0.00    +0.295 HD
ENDBRANCH  35  37
ENDBRANCH  34  35
ENDBRANCH  31  34
ENDBRANCH  29  30
BRANCH  29  40
ATOM     39  C   UNK A   1       9.367   1.843  23.422  0.00  0.00    +0.214 C 
ATOM     40  N   UNK A   1       8.833   1.131  24.460  0.00  0.00    -0.303 N 
ATOM     41  H   UNK A   1       8.753   0.134  24.292  0.00  0.00    +0.149 HD
ATOM     42  O   UNK A   1       9.220   3.046  23.247  0.00  0.00    -0.276 OA
BRANCH  39  43
ATOM     43  C   UNK A   1      10.114   0.951  22.442  0.00  0.00    +0.098 C 
BRANCH  43  44
ATOM     44  C   UNK A   1       9.204   0.164  21.508  0.00  0.00    +0.039 C 
BRANCH  44  45
ATOM     45  C   UNK A   1       9.267  -1.336  21.819  0.00  0.00    +0.161 C 
BRANCH  45  46
ATOM     46  N   UNK A   1      10.517  -1.723  22.539  0.00  0.00    -0.318 NA
ATOM     47  H   UNK A   1      10.885  -0.901  23.027  0.00  0.00    +0.119 HD
ATOM     48  H   UNK A   1      10.262  -2.374  23.292  0.00  0.00    +0.119 HD
ENDBRANCH  45  46
BRANCH  45  49
ATOM     49  C   UNK A   1       8.070  -1.806  22.660  0.00  0.00    +0.322 C 
ATOM     50  O   UNK A   1       6.976  -2.126  22.227  0.00  0.00    -0.249 OA
BRANCH  49  51
ATOM     51  O   UNK A   1       8.406  -1.867  23.978  0.00  0.00    -0.480 OA
ATOM     52  H   UNK A   1       8.812  -2.760  24.113  0.00  0.00    +0.295 HD
ENDBRANCH  49  51
ENDBRANCH  45  49
ENDBRANCH  44  45
ENDBRANCH  43  44
ENDBRANCH  39  43
ENDBRANCH  29  40
ENDBRANCH  28  29
ENDBRANCH   1  28
TORSDOF 27
ENDMDL
MODEL 7
REMARK VINA RESULT:      -5.8      3.053      8.355
REMARK  Name = 
REMARK  27 active torsions:
REMARK  status: ('A' for Active; 'I' for Inactive)
REMARK    1  A    between atoms: N_1  and  C_2
REMARK    2  A    between atoms: C_2  and  C_4
REMARK    3  A    between atoms: C_2  and  C_42
REMARK    4  A    between atoms: C_4  and  C_5
REMARK    5  A    between atoms: C_5  and  C_6
REMARK    6  A    between atoms: N_8  and  C_9
REMARK    7  A    between atoms: C_9  and  C_11
REMARK    8  A    between atoms: C_9  and  C_35
REMARK    9  A    between atoms: C_11  and  S_12
REMARK   10  A    between atoms: S_12  and  S_13
REMARK   11  A    between atoms: S_13  and  C_14
REMARK   12  A    between atoms: C_14  and  C_15
REMARK   13  A    between atoms: C_15  and  N_17
REMARK   14  A    between atoms: C_15  and  C_28
REMARK   15  A    between atoms: C_18  and  C_20
REMARK   16  A    between atoms: C_20  and  C_21
REMARK   17  A    between atoms: C_21  and  C_22
REMARK   18  A    between atoms: C_22  and  N_24
REMARK   19  A    between atoms: C_22  and  C_25
REMARK   20  A    between atoms: C_25  and  O_26
REMARK   21  A    between atoms: N_30  and  CA_31
REMARK   22  A    between atoms: CA_31  and  C_32
REMARK   23  A    between atoms: C_32  and  O_33
REMARK   24  A    between atoms: N_37  and  CA_38
REMARK   25  A    between atoms: CA_38  and  C_39
REMARK   26  A    between atoms: C_39  and  O_40
REMARK   27  A    between atoms: C_42  and  O_43
REMARK                            x       y       z     vdW  Elec       q    Type
REMARK                         _______ _______ _______ _____ _____    ______ ____
ROOT
ATOM      1  S   UNK A   1       7.540  -0.991  26.719  0.00  0.00    -0.091 S 
ENDROOT
BRANCH   1   2
ATOM      2  S   UNK A   1       5.766  -0.641  25.707  0.00  0.00    -0.091 S 
BRANCH   2   3
ATOM      3  C   UNK A   1       4.988  -2.280  25.318  0.00  0.00    +0.112 C 
BRANCH   3   4
ATOM      4  C   UNK A   1       3.717  -2.670  26.082  0.00  0.00    +0.169 C 
BRANCH   4   5
ATOM      5  C   UNK A   1       4.063  -3.333  27.414  0.00  0.00    +0.235 C 
ATOM      6  N   GLY A   2       3.955  -4.709  27.362  0.00  0.00    -0.303 N 
ATOM      7  H   GLY A   2       4.136  -5.094  26.432  0.00  0.00    +0.149 HD
ATOM      8  O   UNK A   1       4.462  -2.720  28.398  0.00  0.00    -0.274 OA
BRANCH   6   9
ATOM      9  CA  GLY A   2       4.388  -5.571  28.433  0.00  0.00    +0.224 C 
BRANCH   9  10
ATOM     10  C   GLY A   2       5.425  -6.596  27.965  0.00  0.00    +0.322 C 
ATOM     11  OXT GLY A   2       5.789  -7.537  28.656  0.00  0.00    -0.249 OA
BRANCH  10  12
ATOM     12  O   GLY A   2       5.730  -6.547  26.651  0.00  0.00    -0.480 OA
ATOM     13  H   GLY A   2       5.577  -5.670  26.245  0.00  0.00    +0.295 HD
ENDBRANCH  10  12
ENDBRANCH   9  10
ENDBRANCH   6   9
ENDBRANCH   4   5
BRANCH   4  14
ATOM     14  N   UNK A   1       2.880  -3.639  25.345  0.00  0.00    -0.303 N 
ATOM     15  H   UNK A   1       3.179  -4.612  25.333  0.00  0.00    +0.149 HD
ATOM     16  C   UNK A   1       1.532  -3.388  25.174  0.00  0.00    +0.214 C 
ATOM     17  O   UNK A   1       1.019  -2.336  25.547  0.00  0.00    -0.276 OA
BRANCH  16  18
ATOM     18  C   UNK A   1       0.731  -4.510  24.542  0.00  0.00    +0.098 C 
BRANCH  18  19
ATOM     19  C   UNK A   1       1.079  -5.868  25.170  0.00  0.00    +0.039 C 
BRANCH  19  20
ATOM     20  C   UNK A   1       1.853  -6.805  24.232  0.00  0.00    +0.161 C 
BRANCH  20  21
ATOM     21  N   UNK A   1       2.396  -6.067  23.051  0.00  0.00    -0.318 NA
ATOM     22  H   UNK A   1       3.411  -6.038  23.144  0.00  0.00    +0.119 HD
ATOM     23  H   UNK A   1       2.244  -6.645  22.216  0.00  0.00    +0.119 HD
ENDBRANCH  20  21
BRANCH  20  24
ATOM     24  C   UNK A   1       3.037  -7.435  24.986  0.00  0.00    +0.322 C 
ATOM     25  O   UNK A   1       4.111  -7.730  24.487  0.00  0.00    -0.249 OA
BRANCH  24  26
ATOM     26  O   UNK A   1       2.739  -7.636  26.296  0.00  0.00    -0.480 OA
ATOM     27  H   UNK A   1       2.473  -6.759  26.663  0.00  0.00    +0.295 HD
ENDBRANCH  24  26
ENDBRANCH  20  24
ENDBRANCH  19  20
ENDBRANCH  18  19
ENDBRANCH  16  18
ENDBRANCH   4  14
ENDBRANCH   3   4
ENDBRANCH   2   3
ENDBRANCH   1   2
BRANCH   1  28
ATOM     28  C   UNK A   1       8.841  -0.675  25.459  0.00  0.00    +0.112 C 
BRANCH  28  29
ATOM     29  C   UNK A   1       9.318  -1.910  24.659  0.00  0.00    +0.169 C 
BRANCH  29  30
ATOM     30  C   UNK A   1       9.577  -1.595  23.169  0.00  0.00    +0.235 C 
ATOM     31  N   GLY A   2       8.608  -0.829  22.533  0.00  0.00    -0.303 N 
ATOM     32  H   GLY A   2       8.011  -0.339  23.213  0.00  0.00    +0.149 HD
ATOM     33  O   UNK A   1      10.591  -1.963  22.589  0.00  0.00    -0.274 OA
BRANCH  31  34
ATOM     34  CA  GLY A   2       9.100   0.103  21.532  0.00  0.00    +0.224 C 
BRANCH  34  35
ATOM     35  C   GLY A   2       9.026   1.632  21.634  0.00  0.00    +0.322 C 
ATOM     36  OXT GLY A   2       7.975   2.263  21.584  0.00  0.00    -0.249 OA
BRANCH  35  37
ATOM     37  O   GLY A   2      10.231   2.254  21.575  0.00  0.00    -0.480 OA
ATOM     38  H   GLY A   2      10.279   2.900  20.859  0.00  0.00    +0.295 HD
ENDBRANCH  35  37
ENDBRANCH  34  35
ENDBRANCH  31  34
ENDBRANCH  29  30
BRANCH  29  40
ATOM     39  C   UNK A   1       8.988  -4.360  24.684  0.00  0.00    +0.214 C 
ATOM     40  N   UNK A   1       8.462  -3.098  24.707  0.00  0.00    -0.303 N 
ATOM     41  H   UNK A   1       7.586  -2.995  24.205  0.00  0.00    +0.149 HD
ATOM     42  O   UNK A   1      10.165  -4.633  24.883  0.00  0.00    -0.276 OA
BRANCH  39  43
ATOM     43  C   UNK A   1       7.952  -5.404  24.299  0.00  0.00    +0.098 C 
BRANCH  43  44
ATOM     44  C   UNK A   1       7.718  -5.515  22.798  0.00  0.00    +0.039 C 
BRANCH  44  45
ATOM     45  C   UNK A   1       6.253  -5.226  22.450  0.00  0.00    +0.161 C 
BRANCH  45  46
ATOM     46  N   UNK A   1       5.380  -5.138  23.659  0.00  0.00    -0.318 NA
ATOM     47  H   UNK A   1       5.000  -6.067  23.860  0.00  0.00    +0.119 HD
ATOM     48  H   UNK A   1       5.977  -4.925  24.467  0.00  0.00    +0.119 HD
ENDBRANCH  45  46
BRANCH  45  49
ATOM     49  C   UNK A   1       6.091  -3.923  21.651  0.00  0.00    +0.322 C 
ATOM     50  O   UNK A   1       5.680  -3.832  20.508  0.00  0.00    -0.249 OA
BRANCH  49  51
ATOM     51  O   UNK A   1       6.430  -2.849  22.417  0.00  0.00    -0.480 OA
ATOM     52  H   UNK A   1       7.415  -2.769  22.352  0.00  0.00    +0.295 HD
ENDBRANCH  49  51
ENDBRANCH  45  49
ENDBRANCH  44  45
ENDBRANCH  43  44
ENDBRANCH  39  43
ENDBRANCH  29  40
ENDBRANCH  28  29
ENDBRANCH   1  28
TORSDOF 27
ENDMDL
MODEL 8
REMARK VINA RESULT:      -5.8      2.701      4.896
REMARK  Name = 
REMARK  27 active torsions:
REMARK  status: ('A' for Active; 'I' for Inactive)
REMARK    1  A    between atoms: N_1  and  C_2
REMARK    2  A    between atoms: C_2  and  C_4
REMARK    3  A    between atoms: C_2  and  C_42
REMARK    4  A    between atoms: C_4  and  C_5
REMARK    5  A    between atoms: C_5  and  C_6
REMARK    6  A    between atoms: N_8  and  C_9
REMARK    7  A    between atoms: C_9  and  C_11
REMARK    8  A    between atoms: C_9  and  C_35
REMARK    9  A    between atoms: C_11  and  S_12
REMARK   10  A    between atoms: S_12  and  S_13
REMARK   11  A    between atoms: S_13  and  C_14
REMARK   12  A    between atoms: C_14  and  C_15
REMARK   13  A    between atoms: C_15  and  N_17
REMARK   14  A    between atoms: C_15  and  C_28
REMARK   15  A    between atoms: C_18  and  C_20
REMARK   16  A    between atoms: C_20  and  C_21
REMARK   17  A    between atoms: C_21  and  C_22
REMARK   18  A    between atoms: C_22  and  N_24
REMARK   19  A    between atoms: C_22  and  C_25
REMARK   20  A    between atoms: C_25  and  O_26
REMARK   21  A    between atoms: N_30  and  CA_31
REMARK   22  A    between atoms: CA_31  and  C_32
REMARK   23  A    between atoms: C_32  and  O_33
REMARK   24  A    between atoms: N_37  and  CA_38
REMARK   25  A    between atoms: CA_38  and  C_39
REMARK   26  A    between atoms: C_39  and  O_40
REMARK   27  A    between atoms: C_42  and  O_43
REMARK                            x       y       z     vdW  Elec       q    Type
REMARK                         _______ _______ _______ _____ _____    ______ ____
ROOT
ATOM      1  S   UNK A   1       7.588  -1.339  26.285  0.00  0.00    -0.091 S 
ENDROOT
BRANCH   1   2
ATOM      2  S   UNK A   1       6.484   0.290  25.636  0.00  0.00    -0.091 S 
BRANCH   2   3
ATOM      3  C   UNK A   1       7.526   1.812  25.832  0.00  0.00    +0.112 C 
BRANCH   3   4
ATOM      4  C   UNK A   1       7.579   2.801  24.661  0.00  0.00    +0.169 C 
BRANCH   4   5
ATOM      5  C   UNK A   1       8.454   4.006  25.005  0.00  0.00    +0.235 C 
ATOM      6  N   GLY A   2       9.273   4.379  23.957  0.00  0.00    -0.303 N 
ATOM      7  H   GLY A   2       8.879   4.163  23.039  0.00  0.00    +0.149 HD
ATOM      8  O   UNK A   1       8.385   4.618  26.065  0.00  0.00    -0.274 OA
BRANCH   6   9
ATOM      9  CA  GLY A   2      10.066   5.582  23.971  0.00  0.00    +0.224 C 
BRANCH   9  10
ATOM     10  C   GLY A   2      11.524   5.316  23.588  0.00  0.00    +0.322 C 
ATOM     11  OXT GLY A   2      12.470   5.832  24.168  0.00  0.00    -0.249 OA
BRANCH  10  12
ATOM     12  O   GLY A   2      11.717   4.286  22.737  0.00  0.00    -0.480 OA
ATOM     13  H   GLY A   2      11.693   4.547  21.794  0.00  0.00    +0.295 HD
ENDBRANCH  10  12
ENDBRANCH   9  10
ENDBRANCH   6   9
ENDBRANCH   4   5
BRANCH   4  14
ATOM     14  N   UNK A   1       6.251   3.344  24.309  0.00  0.00    -0.303 N 
ATOM     15  H   UNK A   1       5.907   4.140  24.842  0.00  0.00    +0.149 HD
ATOM     16  C   UNK A   1       5.763   3.181  23.027  0.00  0.00    +0.214 C 
ATOM     17  O   UNK A   1       6.368   2.521  22.185  0.00  0.00    -0.276 OA
BRANCH  16  18
ATOM     18  C   UNK A   1       4.466   3.905  22.722  0.00  0.00    +0.098 C 
BRANCH  18  19
ATOM     19  C   UNK A   1       3.899   4.587  23.975  0.00  0.00    +0.039 C 
BRANCH  19  20
ATOM     20  C   UNK A   1       2.728   3.830  24.618  0.00  0.00    +0.161 C 
BRANCH  20  21
ATOM     21  N   UNK A   1       2.063   2.919  23.636  0.00  0.00    -0.318 NA
ATOM     22  H   UNK A   1       1.902   3.452  22.781  0.00  0.00    +0.119 HD
ATOM     23  H   UNK A   1       2.744   2.205  23.353  0.00  0.00    +0.119 HD
ENDBRANCH  20  21
BRANCH  20  24
ATOM     24  C   UNK A   1       3.241   2.975  25.790  0.00  0.00    +0.322 C 
ATOM     25  O   UNK A   1       4.112   3.310  26.576  0.00  0.00    -0.249 OA
BRANCH  24  26
ATOM     26  O   UNK A   1       2.603   1.776  25.844  0.00  0.00    -0.480 OA
ATOM     27  H   UNK A   1       3.039   1.194  25.176  0.00  0.00    +0.295 HD
ENDBRANCH  24  26
ENDBRANCH  20  24
ENDBRANCH  19  20
ENDBRANCH  18  19
ENDBRANCH  16  18
ENDBRANCH   4  14
ENDBRANCH   3   4
ENDBRANCH   2   3
ENDBRANCH   1   2
BRANCH   1  28
ATOM     28  C   UNK A   1       9.171  -1.200  25.359  0.00  0.00    +0.112 C 
BRANCH  28  29
ATOM     29  C   UNK A   1       9.434  -2.300  24.304  0.00  0.00    +0.169 C 
BRANCH  29  30
ATOM     30  C   UNK A   1       9.785  -1.726  22.914  0.00  0.00    +0.235 C 
ATOM     31  N   GLY A   2       8.811  -0.931  22.321  0.00  0.00    -0.303 N 
ATOM     32  H   GLY A   2       8.124  -0.602  23.012  0.00  0.00    +0.149 HD
ATOM     33  O   UNK A   1      10.869  -1.923  22.379  0.00  0.00    -0.274 OA
BRANCH  31  34
ATOM     34  CA  GLY A   2       9.304   0.185  21.532  0.00  0.00    +0.224 C 
BRANCH  34  35
ATOM     35  C   GLY A   2       9.792   1.524  22.100  0.00  0.00    +0.322 C 
ATOM     36  OXT GLY A   2      10.527   1.615  23.078  0.00  0.00    -0.249 OA
BRANCH  35  37
ATOM     37  O   GLY A   2       9.182   2.612  21.566  0.00  0.00    -0.480 OA
ATOM     38  H   GLY A   2       8.869   3.229  22.240  0.00  0.00    +0.295 HD
ENDBRANCH  35  37
ENDBRANCH  34  35
ENDBRANCH  31  34
ENDBRANCH  29  30
BRANCH  29  40
ATOM     39  C   UNK A   1       8.603  -4.629  24.272  0.00  0.00    +0.214 C 
ATOM     40  N   UNK A   1       8.373  -3.291  24.106  0.00  0.00    -0.303 N 
ATOM     41  H   UNK A   1       7.730  -3.062  23.355  0.00  0.00    +0.149 HD
ATOM     42  O   UNK A   1       9.580  -5.108  24.832  0.00  0.00    -0.276 OA
BRANCH  39  43
ATOM     43  C   UNK A   1       7.535  -5.480  23.604  0.00  0.00    +0.098 C 
BRANCH  43  44
ATOM     44  C   UNK A   1       7.444  -5.282  22.096  0.00  0.00    +0.039 C 
BRANCH  44  45
ATOM     45  C   UNK A   1       6.000  -4.991  21.669  0.00  0.00    +0.161 C 
BRANCH  45  46
ATOM     46  N   UNK A   1       5.062  -6.101  22.014  0.00  0.00    -0.318 NA
ATOM     47  H   UNK A   1       4.869  -6.070  23.018  0.00  0.00    +0.119 HD
ATOM     48  H   UNK A   1       4.156  -5.901  21.573  0.00  0.00    +0.119 HD
ENDBRANCH  45  46
BRANCH  45  49
ATOM     49  C   UNK A   1       5.457  -3.698  22.298  0.00  0.00    +0.322 C 
ATOM     50  O   UNK A   1       6.009  -2.612  22.284  0.00  0.00    -0.249 OA
BRANCH  49  51
ATOM     51  O   UNK A   1       4.229  -3.912  22.846  0.00  0.00    -0.480 OA
ATOM     52  H   UNK A   1       3.690  -4.350  22.139  0.00  0.00    +0.295 HD
ENDBRANCH  49  51
ENDBRANCH  45  49
ENDBRANCH  44  45
ENDBRANCH  43  44
ENDBRANCH  39  43
ENDBRANCH  29  40
ENDBRANCH  28  29
ENDBRANCH   1  28
TORSDOF 27
ENDMDL
MODEL 9
REMARK VINA RESULT:      -5.7      2.408      4.539
REMARK  Name = 
REMARK  27 active torsions:
REMARK  status: ('A' for Active; 'I' for Inactive)
REMARK    1  A    between atoms: N_1  and  C_2
REMARK    2  A    between atoms: C_2  and  C_4
REMARK    3  A    between atoms: C_2  and  C_42
REMARK    4  A    between atoms: C_4  and  C_5
REMARK    5  A    between atoms: C_5  and  C_6
REMARK    6  A    between atoms: N_8  and  C_9
REMARK    7  A    between atoms: C_9  and  C_11
REMARK    8  A    between atoms: C_9  and  C_35
REMARK    9  A    between atoms: C_11  and  S_12
REMARK   10  A    between atoms: S_12  and  S_13
REMARK   11  A    between atoms: S_13  and  C_14
REMARK   12  A    between atoms: C_14  and  C_15
REMARK   13  A    between atoms: C_15  and  N_17
REMARK   14  A    between atoms: C_15  and  C_28
REMARK   15  A    between atoms: C_18  and  C_20
REMARK   16  A    between atoms: C_20  and  C_21
REMARK   17  A    between atoms: C_21  and  C_22
REMARK   18  A    between atoms: C_22  and  N_24
REMARK   19  A    between atoms: C_22  and  C_25
REMARK   20  A    between atoms: C_25  and  O_26
REMARK   21  A    between atoms: N_30  and  CA_31
REMARK   22  A    between atoms: CA_31  and  C_32
REMARK   23  A    between atoms: C_32  and  O_33
REMARK   24  A    between atoms: N_37  and  CA_38
REMARK   25  A    between atoms: CA_38  and  C_39
REMARK   26  A    between atoms: C_39  and  O_40
REMARK   27  A    between atoms: C_42  and  O_43
REMARK                            x       y       z     vdW  Elec       q    Type
REMARK                         _______ _______ _______ _____ _____    ______ ____
ROOT
ATOM      1  S   UNK A   1      10.098  -0.997  22.604  0.00  0.00    -0.091 S 
ENDROOT
BRANCH   1   2
ATOM      2  S   UNK A   1       9.817   0.934  21.910  0.00  0.00    -0.091 S 
BRANCH   2   3
ATOM      3  C   UNK A   1      10.328   2.112  23.250  0.00  0.00    +0.112 C 
BRANCH   3   4
ATOM      4  C   UNK A   1       9.310   3.163  23.708  0.00  0.00    +0.169 C 
BRANCH   4   5
ATOM      5  C   UNK A   1       9.970   4.534  23.851  0.00  0.00    +0.235 C 
ATOM      6  N   GLY A   2      11.305   4.517  23.500  0.00  0.00    -0.303 N 
ATOM      7  H   GLY A   2      11.528   3.812  22.794  0.00  0.00    +0.149 HD
ATOM      8  O   UNK A   1       9.365   5.551  24.173  0.00  0.00    -0.274 OA
BRANCH   6   9
ATOM      9  CA  GLY A   2      12.103   5.711  23.389  0.00  0.00    +0.224 C 
BRANCH   9  10
ATOM     10  C   GLY A   2      13.390   5.474  22.595  0.00  0.00    +0.322 C 
ATOM     11  OXT GLY A   2      13.579   5.937  21.478  0.00  0.00    -0.249 OA
BRANCH  10  12
ATOM     12  O   GLY A   2      14.408   4.932  23.297  0.00  0.00    -0.480 OA
ATOM     13  H   GLY A   2      14.154   4.137  23.807  0.00  0.00    +0.295 HD
ENDBRANCH  10  12
ENDBRANCH   9  10
ENDBRANCH   6   9
ENDBRANCH   4   5
BRANCH   4  14
ATOM     14  N   UNK A   1       8.718   2.852  25.025  0.00  0.00    -0.303 N 
ATOM     15  H   UNK A   1       8.935   3.472  25.802  0.00  0.00    +0.149 HD
ATOM     16  C   UNK A   1       7.533   2.143  25.092  0.00  0.00    +0.214 C 
ATOM     17  O   UNK A   1       6.995   1.688  24.085  0.00  0.00    -0.276 OA
BRANCH  16  18
ATOM     18  C   UNK A   1       6.928   2.008  26.475  0.00  0.00    +0.098 C 
BRANCH  18  19
ATOM     19  C   UNK A   1       6.539   0.553  26.776  0.00  0.00    +0.039 C 
BRANCH  19  20
ATOM     20  C   UNK A   1       5.064   0.234  26.493  0.00  0.00    +0.161 C 
BRANCH  20  21
ATOM     21  N   UNK A   1       4.376   1.382  25.826  0.00  0.00    -0.318 NA
ATOM     22  H   UNK A   1       4.407   1.219  24.820  0.00  0.00    +0.119 HD
ATOM     23  H   UNK A   1       3.376   1.329  26.051  0.00  0.00    +0.119 HD
ENDBRANCH  20  21
BRANCH  20  24
ATOM     24  C   UNK A   1       4.964  -0.987  25.562  0.00  0.00    +0.322 C 
ATOM     25  O   UNK A   1       4.209  -1.932  25.721  0.00  0.00    -0.249 OA
BRANCH  24  26
ATOM     26  O   UNK A   1       5.838  -0.892  24.526  0.00  0.00    -0.480 OA
ATOM     27  H   UNK A   1       6.693  -1.273  24.842  0.00  0.00    +0.295 HD
ENDBRANCH  24  26
ENDBRANCH  20  24
ENDBRANCH  19  20
ENDBRANCH  18  19
ENDBRANCH  16  18
ENDBRANCH   4  14
ENDBRANCH   3   4
ENDBRANCH   2   3
ENDBRANCH   1   2
BRANCH   1  28
ATOM     28  C   UNK A   1       8.700  -1.941  21.871  0.00  0.00    +0.112 C 
BRANCH  28  29
ATOM     29  C   UNK A   1       8.120  -3.076  22.746  0.00  0.00    +0.169 C 
BRANCH  29  30
ATOM     30  C   UNK A   1       6.688  -3.480  22.331  0.00  0.00    +0.235 C 
ATOM     31  N   GLY A   2       6.505  -4.819  22.004  0.00  0.00    -0.303 N 
ATOM     32  H   GLY A   2       7.272  -5.402  22.365  0.00  0.00    +0.149 HD
ATOM     33  O   UNK A   1       5.759  -2.683  22.325  0.00  0.00    -0.274 OA
BRANCH  31  34
ATOM     34  CA  GLY A   2       5.222  -5.388  22.380  0.00  0.00    +0.224 C 
BRANCH  34  35
ATOM     35  C   GLY A   2       4.714  -5.553  23.818  0.00  0.00    +0.322 C 
ATOM     36  OXT GLY A   2       4.750  -6.615  24.430  0.00  0.00    -0.249 OA
BRANCH  35  37
ATOM     37  O   GLY A   2       4.029  -4.482  24.293  0.00  0.00    -0.480 OA
ATOM     38  H   GLY A   2       4.612  -3.786  24.623  0.00  0.00    +0.295 HD
ENDBRANCH  35  37
ENDBRANCH  34  35
ENDBRANCH  31  34
ENDBRANCH  29  30
BRANCH  29  40
ATOM     39  C   UNK A   1       8.828  -3.633  25.048  0.00  0.00    +0.214 C 
ATOM     40  N   UNK A   1       8.103  -2.850  24.193  0.00  0.00    -0.303 N 
ATOM     41  H   UNK A   1       7.202  -2.552  24.552  0.00  0.00    +0.149 HD
ATOM     42  O   UNK A   1       9.729  -4.390  24.713  0.00  0.00    -0.276 OA
BRANCH  39  43
ATOM     43  C   UNK A   1       8.333  -3.522  26.482  0.00  0.00    +0.098 C 
BRANCH  43  44
ATOM     44  C   UNK A   1       6.871  -3.910  26.662  0.00  0.00    +0.039 C 
BRANCH  44  45
ATOM     45  C   UNK A   1       6.736  -5.407  26.963  0.00  0.00    +0.161 C 
BRANCH  45  46
ATOM     46  N   UNK A   1       8.017  -6.019  27.428  0.00  0.00    -0.318 NA
ATOM     47  H   UNK A   1       8.662  -6.077  26.636  0.00  0.00    +0.119 HD
ATOM     48  H   UNK A   1       8.467  -5.361  28.076  0.00  0.00    +0.119 HD
ENDBRANCH  45  46
BRANCH  45  49
ATOM     49  C   UNK A   1       5.661  -5.692  28.023  0.00  0.00    +0.322 C 
ATOM     50  O   UNK A   1       4.986  -4.856  28.598  0.00  0.00    -0.249 OA
BRANCH  49  51
ATOM     51  O   UNK A   1       5.519  -7.034  28.210  0.00  0.00    -0.480 OA
ATOM     52  H   UNK A   1       5.539  -7.173  29.191  0.00  0.00    +0.295 HD
ENDBRANCH  49  51
ENDBRANCH  45  49
ENDBRANCH  44  45
ENDBRANCH  43  44
ENDBRANCH  39  43
ENDBRANCH  29  40
ENDBRANCH  28  29
ENDBRANCH   1  28
TORSDOF 27
ENDMDL
