MODEL 1
REMARK VINA RESULT:      -6.9      0.000      0.000
REMARK  Name = 
REMARK  4 active torsions:
REMARK  status: ('A' for Active; 'I' for Inactive)
REMARK    1  A    between atoms: C_1  and  O_2
REMARK    2  A    between atoms: O_2  and  C_3
REMARK    3  A    between atoms: C_9  and  C_14
REMARK    4  A    between atoms: C_17  and  O_18
REMARK                            x       y       z     vdW  Elec       q    Type
REMARK                         _______ _______ _______ _____ _____    ______ ____
ROOT
ATOM      1  C   UNL     1       4.461  -6.756  24.699  0.00  0.00    +0.124 A 
ATOM      2  C   UNL     1       4.346  -5.983  23.537  0.00  0.00    +0.092 A 
ATOM      3  C   UNL     1       5.113  -4.827  23.387  0.00  0.00    +0.142 A 
ATOM      4  C   UNL     1       5.971  -4.431  24.405  0.00  0.00    +0.065 A 
ATOM      5  C   UNL     1       6.776  -3.214  24.240  0.00  0.00    +0.200 A 
ATOM      6  C   UNL     1       6.685  -2.513  22.924  0.00  0.00    +0.064 A 
ATOM      7  C   UNL     1       5.808  -3.027  22.043  0.00  0.00    +0.208 A 
ATOM      8  O   UNL     1       7.481  -2.820  25.163  0.00  0.00    -0.286 OA
ATOM      9  C   UNL     1       6.073  -5.180  25.579  0.00  0.00    +0.019 A 
ATOM     10  O   UNL     1       4.992  -4.123  22.218  0.00  0.00    -0.462 OA
ATOM     11  C   UNL     1       5.313  -6.340  25.724  0.00  0.00    +0.046 A 
ENDROOT
BRANCH   6  12
ATOM     12  C   UNL     1       7.528  -1.339  22.593  0.00  0.00    -0.011 A 
ATOM     13  C   UNL     1       8.768  -1.501  21.952  0.00  0.00    +0.012 A 
ATOM     14  C   UNL     1       9.566  -0.402  21.621  0.00  0.00    +0.046 A 
ATOM     15  C   UNL     1       9.125   0.879  21.916  0.00  0.00    +0.117 A 
ATOM     16  C   UNL     1       7.913   1.077  22.565  0.00  0.00    +0.046 A 
ATOM     17  C   UNL     1       7.124  -0.028  22.910  0.00  0.00    +0.012 A 
BRANCH  15  18
ATOM     18  O   UNL     1       9.914   1.925  21.541  0.00  0.00    -0.507 OA
ATOM     19  H   UNL     1      10.829   1.733  21.801  0.00  0.00    +0.292 HD
ENDBRANCH  15  18
ENDBRANCH   6  12
BRANCH   1  21
ATOM     20  C   UNL     1       2.433  -7.784  24.068  0.00  0.00    +0.277 C 
ATOM     21  O   UNL     1       3.681  -7.880  24.752  0.00  0.00    -0.495 OA
ENDBRANCH   1  21
TORSDOF 3
ENDMDL
MODEL 2
REMARK VINA RESULT:      -6.6      3.087      3.384
REMARK  Name = 
REMARK  4 active torsions:
REMARK  status: ('A' for Active; 'I' for Inactive)
REMARK    1  A    between atoms: C_1  and  O_2
REMARK    2  A    between atoms: O_2  and  C_3
REMARK    3  A    between atoms: C_9  and  C_14
REMARK    4  A    between atoms: C_17  and  O_18
REMARK                            x       y       z     vdW  Elec       q    Type
REMARK                         _______ _______ _______ _____ _____    ______ ____
ROOT
ATOM      1  C   UNL     1       6.655  -5.506  27.680  0.00  0.00    +0.124 A 
ATOM      2  C   UNL     1       7.755  -5.502  26.812  0.00  0.00    +0.092 A 
ATOM      3  C   UNL     1       8.042  -4.367  26.052  0.00  0.00    +0.142 A 
ATOM      4  C   UNL     1       7.218  -3.252  26.139  0.00  0.00    +0.065 A 
ATOM      5  C   UNL     1       7.527  -2.061  25.336  0.00  0.00    +0.200 A 
ATOM      6  C   UNL     1       8.783  -2.093  24.529  0.00  0.00    +0.064 A 
ATOM      7  C   UNL     1       9.470  -3.249  24.556  0.00  0.00    +0.208 A 
ATOM      8  O   UNL     1       6.763  -1.100  25.354  0.00  0.00    -0.286 OA
ATOM      9  C   UNL     1       6.103  -3.256  26.980  0.00  0.00    +0.019 A 
ATOM     10  O   UNL     1       9.148  -4.398  25.244  0.00  0.00    -0.462 OA
ATOM     11  C   UNL     1       5.823  -4.387  27.746  0.00  0.00    +0.046 A 
ENDROOT
BRANCH   6  12
ATOM     12  C   UNL     1       9.262  -0.916  23.765  0.00  0.00    -0.011 A 
ATOM     13  C   UNL     1       9.012  -0.803  22.387  0.00  0.00    +0.012 A 
ATOM     14  C   UNL     1       9.445   0.309  21.658  0.00  0.00    +0.046 A 
ATOM     15  C   UNL     1      10.122   1.331  22.303  0.00  0.00    +0.117 A 
ATOM     16  C   UNL     1      10.402   1.246  23.661  0.00  0.00    +0.046 A 
ATOM     17  C   UNL     1       9.982   0.123  24.384  0.00  0.00    +0.012 A 
BRANCH  15  18
ATOM     18  O   UNL     1      10.492   2.415  21.564  0.00  0.00    -0.507 OA
ATOM     19  H   UNL     1      10.610   3.172  22.161  0.00  0.00    +0.292 HD
ENDBRANCH  15  18
ENDBRANCH   6  12
BRANCH   1  21
ATOM     20  C   UNL     1       6.085  -6.466  29.758  0.00  0.00    +0.277 C 
ATOM     21  O   UNL     1       6.460  -6.657  28.395  0.00  0.00    -0.495 OA
ENDBRANCH   1  21
TORSDOF 3
ENDMDL
MODEL 3
REMARK VINA RESULT:      -6.5      2.372      7.766
REMARK  Name = 
REMARK  4 active torsions:
REMARK  status: ('A' for Active; 'I' for Inactive)
REMARK    1  A    between atoms: C_1  and  O_2
REMARK    2  A    between atoms: O_2  and  C_3
REMARK    3  A    between atoms: C_9  and  C_14
REMARK    4  A    between atoms: C_17  and  O_18
REMARK                            x       y       z     vdW  Elec       q    Type
REMARK                         _______ _______ _______ _____ _____    ______ ____
ROOT
ATOM      1  C   UNL     1       9.776   3.169  23.730  0.00  0.00    +0.124 A 
ATOM      2  C   UNL     1      10.124   2.194  22.788  0.00  0.00    +0.092 A 
ATOM      3  C   UNL     1       9.551   0.923  22.852  0.00  0.00    +0.142 A 
ATOM      4  C   UNL     1       8.655   0.620  23.868  0.00  0.00    +0.065 A 
ATOM      5  C   UNL     1       8.055  -0.720  23.928  0.00  0.00    +0.200 A 
ATOM      6  C   UNL     1       8.386  -1.662  22.818  0.00  0.00    +0.064 A 
ATOM      7  C   UNL     1       9.270  -1.213  21.909  0.00  0.00    +0.208 A 
ATOM      8  O   UNL     1       7.319  -1.016  24.865  0.00  0.00    -0.286 OA
ATOM      9  C   UNL     1       8.322   1.577  24.829  0.00  0.00    +0.019 A 
ATOM     10  O   UNL     1       9.897   0.013  21.887  0.00  0.00    -0.462 OA
ATOM     11  C   UNL     1       8.887   2.849  24.759  0.00  0.00    +0.046 A 
ENDROOT
BRANCH   6  12
ATOM     12  C   UNL     1       7.760  -3.002  22.705  0.00  0.00    -0.011 A 
ATOM     13  C   UNL     1       6.658  -3.212  21.860  0.00  0.00    +0.012 A 
ATOM     14  C   UNL     1       6.068  -4.473  21.733  0.00  0.00    +0.046 A 
ATOM     15  C   UNL     1       6.584  -5.546  22.441  0.00  0.00    +0.117 A 
ATOM     16  C   UNL     1       7.662  -5.373  23.301  0.00  0.00    +0.046 A 
ATOM     17  C   UNL     1       8.239  -4.104  23.438  0.00  0.00    +0.012 A 
BRANCH  15  18
ATOM     18  O   UNL     1       6.006  -6.767  22.260  0.00  0.00    -0.507 OA
ATOM     19  H   UNL     1       6.628  -7.452  22.554  0.00  0.00    +0.292 HD
ENDBRANCH  15  18
ENDBRANCH   6  12
BRANCH   1  21
ATOM     20  C   UNL     1      11.785   4.349  23.360  0.00  0.00    +0.277 C 
ATOM     21  O   UNL     1      10.376   4.390  23.580  0.00  0.00    -0.495 OA
ENDBRANCH   1  21
TORSDOF 3
ENDMDL
MODEL 4
REMARK VINA RESULT:      -6.5      1.825      2.784
REMARK  Name = 
REMARK  4 active torsions:
REMARK  status: ('A' for Active; 'I' for Inactive)
REMARK    1  A    between atoms: C_1  and  O_2
REMARK    2  A    between atoms: O_2  and  C_3
REMARK    3  A    between atoms: C_9  and  C_14
REMARK    4  A    between atoms: C_17  and  O_18
REMARK                            x       y       z     vdW  Elec       q    Type
REMARK                         _______ _______ _______ _____ _____    ______ ____
ROOT
ATOM      1  C   UNL     1       5.668  -5.502  23.927  0.00  0.00    +0.124 A 
ATOM      2  C   UNL     1       7.048  -5.269  23.880  0.00  0.00    +0.092 A 
ATOM      3  C   UNL     1       7.532  -3.976  23.669  0.00  0.00    +0.142 A 
ATOM      4  C   UNL     1       6.641  -2.928  23.480  0.00  0.00    +0.065 A 
ATOM      5  C   UNL     1       7.158  -1.570  23.259  0.00  0.00    +0.200 A 
ATOM      6  C   UNL     1       8.638  -1.386  23.342  0.00  0.00    +0.064 A 
ATOM      7  C   UNL     1       9.360  -2.504  23.534  0.00  0.00    +0.208 A 
ATOM      8  O   UNL     1       6.379  -0.654  23.019  0.00  0.00    -0.286 OA
ATOM      9  C   UNL     1       5.263  -3.155  23.497  0.00  0.00    +0.019 A 
ATOM     10  O   UNL     1       8.890  -3.792  23.665  0.00  0.00    -0.462 OA
ATOM     11  C   UNL     1       4.781  -4.444  23.719  0.00  0.00    +0.046 A 
ENDROOT
BRANCH   6  12
ATOM     12  C   UNL     1       9.274  -0.050  23.248  0.00  0.00    -0.011 A 
ATOM     13  C   UNL     1       9.704   0.626  24.402  0.00  0.00    +0.012 A 
ATOM     14  C   UNL     1      10.319   1.879  24.326  0.00  0.00    +0.046 A 
ATOM     15  C   UNL     1      10.526   2.467  23.088  0.00  0.00    +0.117 A 
ATOM     16  C   UNL     1      10.098   1.837  21.926  0.00  0.00    +0.046 A 
ATOM     17  C   UNL     1       9.468   0.589  22.008  0.00  0.00    +0.012 A 
BRANCH  15  18
ATOM     18  O   UNL     1      11.164   3.671  23.054  0.00  0.00    -0.507 OA
ATOM     19  H   UNL     1      11.977   3.607  23.582  0.00  0.00    +0.292 HD
ENDBRANCH  15  18
ENDBRANCH   6  12
BRANCH   1  21
ATOM     20  C   UNL     1       4.265  -6.964  25.134  0.00  0.00    +0.277 C 
ATOM     21  O   UNL     1       5.286  -6.797  24.153  0.00  0.00    -0.495 OA
ENDBRANCH   1  21
TORSDOF 3
ENDMDL
MODEL 5
REMARK VINA RESULT:      -6.5      2.548      7.853
REMARK  Name = 
REMARK  4 active torsions:
REMARK  status: ('A' for Active; 'I' for Inactive)
REMARK    1  A    between atoms: C_1  and  O_2
REMARK    2  A    between atoms: O_2  and  C_3
REMARK    3  A    between atoms: C_9  and  C_14
REMARK    4  A    between atoms: C_17  and  O_18
REMARK                            x       y       z     vdW  Elec       q    Type
REMARK                         _______ _______ _______ _____ _____    ______ ____
ROOT
ATOM      1  C   UNL     1       9.604   3.248  23.696  0.00  0.00    +0.124 A 
ATOM      2  C   UNL     1       8.525   2.559  24.262  0.00  0.00    +0.092 A 
ATOM      3  C   UNL     1       8.231   1.258  23.848  0.00  0.00    +0.142 A 
ATOM      4  C   UNL     1       8.995   0.660  22.854  0.00  0.00    +0.065 A 
ATOM      5  C   UNL     1       8.680  -0.709  22.424  0.00  0.00    +0.200 A 
ATOM      6  C   UNL     1       7.591  -1.417  23.161  0.00  0.00    +0.064 A 
ATOM      7  C   UNL     1       6.949  -0.697  24.098  0.00  0.00    +0.208 A 
ATOM      8  O   UNL     1       9.305  -1.215  21.498  0.00  0.00    -0.286 OA
ATOM      9  C   UNL     1      10.057   1.350  22.264  0.00  0.00    +0.019 A 
ATOM     10  O   UNL     1       7.186   0.612  24.455  0.00  0.00    -0.462 OA
ATOM     11  C   UNL     1      10.356   2.644  22.685  0.00  0.00    +0.046 A 
ENDROOT
BRANCH   6  12
ATOM     12  C   UNL     1       7.252  -2.837  22.897  0.00  0.00    -0.011 A 
ATOM     13  C   UNL     1       6.219  -3.176  22.007  0.00  0.00    +0.012 A 
ATOM     14  C   UNL     1       5.899  -4.510  21.738  0.00  0.00    +0.046 A 
ATOM     15  C   UNL     1       6.621  -5.525  22.345  0.00  0.00    +0.117 A 
ATOM     16  C   UNL     1       7.638  -5.227  23.244  0.00  0.00    +0.046 A 
ATOM     17  C   UNL     1       7.944  -3.889  23.524  0.00  0.00    +0.012 A 
BRANCH  15  18
ATOM     18  O   UNL     1       6.305  -6.811  22.026  0.00  0.00    -0.507 OA
ATOM     19  H   UNL     1       6.388  -6.922  21.065  0.00  0.00    +0.292 HD
ENDBRANCH  15  18
ENDBRANCH   6  12
BRANCH   1  21
ATOM     20  C   UNL     1      10.959   5.177  23.620  0.00  0.00    +0.277 C 
ATOM     21  O   UNL     1       9.826   4.511  24.174  0.00  0.00    -0.495 OA
ENDBRANCH   1  21
TORSDOF 3
ENDMDL
MODEL 6
REMARK VINA RESULT:      -6.4      2.054      7.411
REMARK  Name = 
REMARK  4 active torsions:
REMARK  status: ('A' for Active; 'I' for Inactive)
REMARK    1  A    between atoms: C_1  and  O_2
REMARK    2  A    between atoms: O_2  and  C_3
REMARK    3  A    between atoms: C_9  and  C_14
REMARK    4  A    between atoms: C_17  and  O_18
REMARK                            x       y       z     vdW  Elec       q    Type
REMARK                         _______ _______ _______ _____ _____    ______ ____
ROOT
ATOM      1  C   UNL     1      10.054   1.749  23.910  0.00  0.00    +0.124 A 
ATOM      2  C   UNL     1       8.804   1.436  23.361  0.00  0.00    +0.092 A 
ATOM      3  C   UNL     1       8.342   0.119  23.380  0.00  0.00    +0.142 A 
ATOM      4  C   UNL     1       9.136  -0.884  23.921  0.00  0.00    +0.065 A 
ATOM      5  C   UNL     1       8.642  -2.267  23.938  0.00  0.00    +0.200 A 
ATOM      6  C   UNL     1       7.251  -2.497  23.444  0.00  0.00    +0.064 A 
ATOM      7  C   UNL     1       6.614  -1.419  22.955  0.00  0.00    +0.208 A 
ATOM      8  O   UNL     1       9.368  -3.168  24.347  0.00  0.00    -0.286 OA
ATOM      9  C   UNL     1      10.396  -0.587  24.445  0.00  0.00    +0.019 A 
ATOM     10  O   UNL     1       7.098  -0.132  22.863  0.00  0.00    -0.462 OA
ATOM     11  C   UNL     1      10.853   0.730  24.435  0.00  0.00    +0.046 A 
ENDROOT
BRANCH   6  12
ATOM     12  C   UNL     1       6.599  -3.827  23.511  0.00  0.00    -0.011 A 
ATOM     13  C   UNL     1       5.959  -4.256  24.686  0.00  0.00    +0.012 A 
ATOM     14  C   UNL     1       5.326  -5.501  24.758  0.00  0.00    +0.046 A 
ATOM     15  C   UNL     1       5.314  -6.329  23.648  0.00  0.00    +0.117 A 
ATOM     16  C   UNL     1       5.952  -5.947  22.474  0.00  0.00    +0.046 A 
ATOM     17  C   UNL     1       6.598  -4.706  22.411  0.00  0.00    +0.012 A 
BRANCH  15  18
ATOM     18  O   UNL     1       4.654  -7.517  23.746  0.00  0.00    -0.507 OA
ATOM     19  H   UNL     1       4.025  -7.585  23.009  0.00  0.00    +0.292 HD
ENDBRANCH  15  18
ENDBRANCH   6  12
BRANCH   1  21
ATOM     20  C   UNL     1       9.335   3.994  23.828  0.00  0.00    +0.277 C 
ATOM     21  O   UNL     1      10.418   3.067  23.860  0.00  0.00    -0.495 OA
ENDBRANCH   1  21
TORSDOF 3
ENDMDL
MODEL 7
REMARK VINA RESULT:      -6.4      1.840      2.569
REMARK  Name = 
REMARK  4 active torsions:
REMARK  status: ('A' for Active; 'I' for Inactive)
REMARK    1  A    between atoms: C_1  and  O_2
REMARK    2  A    between atoms: O_2  and  C_3
REMARK    3  A    between atoms: C_9  and  C_14
REMARK    4  A    between atoms: C_17  and  O_18
REMARK                            x       y       z     vdW  Elec       q    Type
REMARK                         _______ _______ _______ _____ _____    ______ ____
ROOT
ATOM      1  C   UNL     1       5.014  -5.332  22.857  0.00  0.00    +0.124 A 
ATOM      2  C   UNL     1       4.808  -4.083  23.456  0.00  0.00    +0.092 A 
ATOM      3  C   UNL     1       5.806  -3.109  23.401  0.00  0.00    +0.142 A 
ATOM      4  C   UNL     1       7.013  -3.390  22.775  0.00  0.00    +0.065 A 
ATOM      5  C   UNL     1       8.059  -2.360  22.722  0.00  0.00    +0.200 A 
ATOM      6  C   UNL     1       7.716  -1.016  23.277  0.00  0.00    +0.064 A 
ATOM      7  C   UNL     1       6.503  -0.907  23.847  0.00  0.00    +0.208 A 
ATOM      8  O   UNL     1       9.153  -2.627  22.234  0.00  0.00    -0.286 OA
ATOM      9  C   UNL     1       7.239  -4.643  22.199  0.00  0.00    +0.019 A 
ATOM     10  O   UNL     1       5.546  -1.890  23.972  0.00  0.00    -0.462 OA
ATOM     11  C   UNL     1       6.238  -5.612  22.245  0.00  0.00    +0.046 A 
ENDROOT
BRANCH   6  12
ATOM     12  C   UNL     1       8.643   0.138  23.184  0.00  0.00    -0.011 A 
ATOM     13  C   UNL     1       8.901   0.755  21.949  0.00  0.00    +0.012 A 
ATOM     14  C   UNL     1       9.761   1.853  21.849  0.00  0.00    +0.046 A 
ATOM     15  C   UNL     1      10.365   2.357  22.990  0.00  0.00    +0.117 A 
ATOM     16  C   UNL     1      10.147   1.761  24.227  0.00  0.00    +0.046 A 
ATOM     17  C   UNL     1       9.298   0.651  24.319  0.00  0.00    +0.012 A 
BRANCH  15  18
ATOM     18  O   UNL     1      11.165   3.452  22.857  0.00  0.00    -0.507 OA
ATOM     19  H   UNL     1      10.713   4.217  23.249  0.00  0.00    +0.292 HD
ENDBRANCH  15  18
ENDBRANCH   6  12
BRANCH   1  21
ATOM     20  C   UNL     1       2.701  -5.634  23.207  0.00  0.00    +0.277 C 
ATOM     21  O   UNL     1       3.975  -6.219  22.947  0.00  0.00    -0.495 OA
ENDBRANCH   1  21
TORSDOF 3
ENDMDL
MODEL 8
REMARK VINA RESULT:      -6.4      1.899      7.583
REMARK  Name = 
REMARK  4 active torsions:
REMARK  status: ('A' for Active; 'I' for Inactive)
REMARK    1  A    between atoms: C_1  and  O_2
REMARK    2  A    between atoms: O_2  and  C_3
REMARK    3  A    between atoms: C_9  and  C_14
REMARK    4  A    between atoms: C_17  and  O_18
REMARK                            x       y       z     vdW  Elec       q    Type
REMARK                         _______ _______ _______ _____ _____    ______ ____
ROOT
ATOM      1  C   UNL     1      10.176   1.325  23.838  0.00  0.00    +0.124 A 
ATOM      2  C   UNL     1      10.564  -0.010  24.001  0.00  0.00    +0.092 A 
ATOM      3  C   UNL     1       9.598  -1.016  24.060  0.00  0.00    +0.142 A 
ATOM      4  C   UNL     1       8.251  -0.687  23.983  0.00  0.00    +0.065 A 
ATOM      5  C   UNL     1       7.241  -1.751  24.045  0.00  0.00    +0.200 A 
ATOM      6  C   UNL     1       7.740  -3.158  24.098  0.00  0.00    +0.064 A 
ATOM      7  C   UNL     1       9.075  -3.307  24.164  0.00  0.00    +0.208 A 
ATOM      8  O   UNL     1       6.049  -1.460  24.050  0.00  0.00    -0.286 OA
ATOM      9  C   UNL     1       7.853   0.645  23.848  0.00  0.00    +0.019 A 
ATOM     10  O   UNL     1      10.028  -2.312  24.185  0.00  0.00    -0.462 OA
ATOM     11  C   UNL     1       8.818   1.649  23.779  0.00  0.00    +0.046 A 
ENDROOT
BRANCH   6  12
ATOM     12  C   UNL     1       6.825  -4.324  24.053  0.00  0.00    -0.011 A 
ATOM     13  C   UNL     1       6.301  -4.874  25.235  0.00  0.00    +0.012 A 
ATOM     14  C   UNL     1       5.425  -5.963  25.206  0.00  0.00    +0.046 A 
ATOM     15  C   UNL     1       5.049  -6.508  23.989  0.00  0.00    +0.117 A 
ATOM     16  C   UNL     1       5.560  -6.002  22.800  0.00  0.00    +0.046 A 
ATOM     17  C   UNL     1       6.451  -4.921  22.835  0.00  0.00    +0.012 A 
BRANCH  15  18
ATOM     18  O   UNL     1       4.163  -7.543  24.001  0.00  0.00    -0.507 OA
ATOM     19  H   UNL     1       3.574  -7.439  24.766  0.00  0.00    +0.292 HD
ENDBRANCH  15  18
ENDBRANCH   6  12
BRANCH   1  21
ATOM     20  C   UNL     1      10.792   3.564  23.420  0.00  0.00    +0.277 C 
ATOM     21  O   UNL     1      11.191   2.242  23.776  0.00  0.00    -0.495 OA
ENDBRANCH   1  21
TORSDOF 3
ENDMDL
MODEL 9
REMARK VINA RESULT:      -6.3      2.577      4.085
REMARK  Name = 
REMARK  4 active torsions:
REMARK  status: ('A' for Active; 'I' for Inactive)
REMARK    1  A    between atoms: C_1  and  O_2
REMARK    2  A    between atoms: O_2  and  C_3
REMARK    3  A    between atoms: C_9  and  C_14
REMARK    4  A    between atoms: C_17  and  O_18
REMARK                            x       y       z     vdW  Elec       q    Type
REMARK                         _______ _______ _______ _____ _____    ______ ____
ROOT
ATOM      1  C   UNL     1       7.109  -4.820  25.699  0.00  0.00    +0.124 A 
ATOM      2  C   UNL     1       7.727  -3.854  26.500  0.00  0.00    +0.092 A 
ATOM      3  C   UNL     1       8.128  -2.637  25.946  0.00  0.00    +0.142 A 
ATOM      4  C   UNL     1       7.935  -2.399  24.591  0.00  0.00    +0.065 A 
ATOM      5  C   UNL     1       8.359  -1.116  24.015  0.00  0.00    +0.200 A 
ATOM      6  C   UNL     1       8.900  -0.093  24.960  0.00  0.00    +0.064 A 
ATOM      7  C   UNL     1       9.020  -0.481  26.242  0.00  0.00    +0.208 A 
ATOM      8  O   UNL     1       8.258  -0.928  22.807  0.00  0.00    -0.286 OA
ATOM      9  C   UNL     1       7.345  -3.368  23.777  0.00  0.00    +0.019 A 
ATOM     10  O   UNL     1       8.698  -1.709  26.778  0.00  0.00    -0.462 OA
ATOM     11  C   UNL     1       6.935  -4.579  24.334  0.00  0.00    +0.046 A 
ENDROOT
BRANCH   6  12
ATOM     12  C   UNL     1       9.259   1.277  24.520  0.00  0.00    -0.011 A 
ATOM     13  C   UNL     1       8.446   2.374  24.851  0.00  0.00    +0.012 A 
ATOM     14  C   UNL     1       8.780   3.674  24.457  0.00  0.00    +0.046 A 
ATOM     15  C   UNL     1       9.943   3.893  23.736  0.00  0.00    +0.117 A 
ATOM     16  C   UNL     1      10.762   2.830  23.375  0.00  0.00    +0.046 A 
ATOM     17  C   UNL     1      10.415   1.529  23.758  0.00  0.00    +0.012 A 
BRANCH  15  18
ATOM     18  O   UNL     1      10.254   5.178  23.404  0.00  0.00    -0.507 OA
ATOM     19  H   UNL     1      10.526   5.201  22.473  0.00  0.00    +0.292 HD
ENDBRANCH  15  18
ENDBRANCH   6  12
BRANCH   1  21
ATOM     20  C   UNL     1       5.339  -6.257  26.306  0.00  0.00    +0.277 C 
ATOM     21  O   UNL     1       6.737  -5.976  26.331  0.00  0.00    -0.495 OA
ENDBRANCH   1  21
TORSDOF 3
ENDMDL
