MODEL 1
REMARK VINA RESULT:      -6.6      0.000      0.000
REMARK  Name = 
REMARK  9 active torsions:
REMARK  status: ('A' for Active; 'I' for Inactive)
REMARK    1  A    between atoms: C_2  and  N_3
REMARK    2  A    between atoms: C_2  and  C_4
REMARK    3  A    between atoms: C_2  and  C_8
REMARK    4  A    between atoms: C_4  and  C_5
REMARK    5  A    between atoms: C_5  and  C_6
REMARK    6  A    between atoms: C_5  and  C_7
REMARK    7  A    between atoms: C_14  and  C_16
REMARK    8  A    between atoms: N_18  and  C_19
REMARK    9  A    between atoms: C_19  and  C_20
REMARK                            x       y       z     vdW  Elec       q    Type
REMARK                         _______ _______ _______ _____ _____    ______ ____
ROOT
ATOM      1  C   UNL     1       9.153  -1.384  23.850  0.00  0.00    +0.233 C 
ATOM      2  N   UNL     1       8.222  -0.906  24.748  0.00  0.00    -0.289 N 
ATOM      3  C   UNL     1       8.390  -1.251  26.169  0.00  0.00    +0.162 C 
ATOM      4  C   UNL     1       7.860  -0.027  26.931  0.00  0.00    +0.033 C 
ATOM      5  C   UNL     1       7.532   1.018  25.865  0.00  0.00    +0.021 C 
ATOM      6  C   UNL     1       7.299   0.208  24.606  0.00  0.00    +0.108 C 
ATOM      7  O   UNL     1       9.805  -2.402  24.115  0.00  0.00    -0.274 OA
ENDROOT
BRANCH   3   8
ATOM      8  C   UNL     1       7.623  -2.514  26.605  0.00  0.00    +0.234 C 
ATOM      9  N   UNL     1       8.312  -3.692  26.428  0.00  0.00    -0.310 N 
ATOM     10  H   UNL     1       9.311  -3.626  26.282  0.00  0.00    +0.149 HD
ATOM     11  O   UNL     1       6.433  -2.476  26.913  0.00  0.00    -0.274 OA
BRANCH   9  12
ATOM     12  C   UNL     1       7.736  -4.984  26.702  0.00  0.00    +0.139 C 
BRANCH  12  13
ATOM     13  C   UNL     1       6.858  -5.442  25.567  0.00  0.00    -0.029 A 
ATOM     14  C   UNL     1       5.609  -6.025  25.830  0.00  0.00    +0.005 A 
ATOM     15  C   UNL     1       4.763  -6.394  24.783  0.00  0.00    +0.002 A 
ATOM     16  C   UNL     1       5.156  -6.187  23.461  0.00  0.00    +0.020 A 
ATOM     17  C   UNL     1       6.401  -5.623  23.193  0.00  0.00    +0.041 A 
ATOM     18 CL   UNL     1       6.888  -5.365  21.562  0.00  0.00    -0.084 Cl
ATOM     19  C   UNL     1       7.253  -5.253  24.234  0.00  0.00    +0.025 A 
ENDBRANCH  12  13
ENDBRANCH   9  12
ENDBRANCH   3   8
BRANCH   1  20
ATOM     20  C   UNL     1       9.451  -0.628  22.528  0.00  0.00    +0.138 C 
BRANCH  20  21
ATOM     21  N   UNL     1       9.990  -1.556  21.510  0.00  0.00    -0.320 NA
ATOM     22  H   UNL     1      10.199  -1.020  20.667  0.00  0.00    +0.119 HD
ATOM     23  H   UNL     1      10.886  -1.919  21.833  0.00  0.00    +0.119 HD
ENDBRANCH  20  21
BRANCH  20  24
ATOM     24  C   UNL     1      10.322   0.619  22.732  0.00  0.00    +0.031 C 
BRANCH  24  25
ATOM     25  C   UNL     1       9.704   1.933  22.195  0.00  0.00    -0.015 C 
ATOM     26  C   UNL     1       9.533   2.948  23.329  0.00  0.00    +0.007 C 
ATOM     27  C   UNL     1       8.356   1.718  21.501  0.00  0.00    +0.007 C 
ENDBRANCH  24  25
ENDBRANCH  20  24
ENDBRANCH   1  20
TORSDOF 7
ENDMDL
MODEL 2
REMARK VINA RESULT:      -6.5      2.953      7.380
REMARK  Name = 
REMARK  9 active torsions:
REMARK  status: ('A' for Active; 'I' for Inactive)
REMARK    1  A    between atoms: C_2  and  N_3
REMARK    2  A    between atoms: C_2  and  C_4
REMARK    3  A    between atoms: C_2  and  C_8
REMARK    4  A    between atoms: C_4  and  C_5
REMARK    5  A    between atoms: C_5  and  C_6
REMARK    6  A    between atoms: C_5  and  C_7
REMARK    7  A    between atoms: C_14  and  C_16
REMARK    8  A    between atoms: N_18  and  C_19
REMARK    9  A    between atoms: C_19  and  C_20
REMARK                            x       y       z     vdW  Elec       q    Type
REMARK                         _______ _______ _______ _____ _____    ______ ____
ROOT
ATOM      1  C   UNL     1       6.860  -5.307  26.621  0.00  0.00    +0.233 C 
ATOM      2  N   UNL     1       6.835  -4.497  25.505  0.00  0.00    -0.289 N 
ATOM      3  C   UNL     1       7.720  -4.840  24.380  0.00  0.00    +0.162 C 
ATOM      4  C   UNL     1       6.940  -4.412  23.128  0.00  0.00    +0.033 C 
ATOM      5  C   UNL     1       5.568  -3.957  23.626  0.00  0.00    +0.021 C 
ATOM      6  C   UNL     1       5.806  -3.566  25.071  0.00  0.00    +0.108 C 
ATOM      7  O   UNL     1       7.864  -5.985  26.873  0.00  0.00    -0.274 OA
ENDROOT
BRANCH   3   8
ATOM      8  C   UNL     1       9.087  -4.130  24.416  0.00  0.00    +0.234 C 
ATOM      9  N   UNL     1       9.120  -2.917  23.766  0.00  0.00    -0.310 N 
ATOM     10  H   UNL     1       8.232  -2.481  23.555  0.00  0.00    +0.149 HD
ATOM     11  O   UNL     1      10.097  -4.692  24.835  0.00  0.00    -0.274 OA
BRANCH   9  12
ATOM     12  C   UNL     1      10.324  -2.140  23.623  0.00  0.00    +0.139 C 
BRANCH  12  13
ATOM     13  C   UNL     1      10.047  -0.825  22.942  0.00  0.00    -0.029 A 
ATOM     14  C   UNL     1       9.306  -0.788  21.751  0.00  0.00    +0.005 A 
ATOM     15  C   UNL     1       8.992   0.431  21.148  0.00  0.00    +0.002 A 
ATOM     16  C   UNL     1       9.415   1.627  21.727  0.00  0.00    +0.020 A 
ATOM     17  C   UNL     1      10.164   1.596  22.902  0.00  0.00    +0.041 A 
ATOM     18 CL   UNL     1      10.686   3.070  23.620  0.00  0.00    -0.084 Cl
ATOM     19  C   UNL     1      10.484   0.381  23.509  0.00  0.00    +0.025 A 
ENDBRANCH  12  13
ENDBRANCH   9  12
ENDBRANCH   3   8
BRANCH   1  20
ATOM     20  C   UNL     1       5.617  -5.441  27.540  0.00  0.00    +0.138 C 
BRANCH  20  21
ATOM     21  N   UNL     1       5.981  -5.166  28.948  0.00  0.00    -0.320 NA
ATOM     22  H   UNL     1       6.981  -4.962  28.986  0.00  0.00    +0.119 HD
ATOM     23  H   UNL     1       5.515  -4.312  29.251  0.00  0.00    +0.119 HD
ENDBRANCH  20  21
BRANCH  20  24
ATOM     24  C   UNL     1       4.872  -6.769  27.356  0.00  0.00    +0.031 C 
BRANCH  24  25
ATOM     25  C   UNL     1       3.638  -6.694  26.424  0.00  0.00    -0.015 C 
ATOM     26  C   UNL     1       4.029  -7.059  24.989  0.00  0.00    +0.007 C 
ATOM     27  C   UNL     1       2.969  -5.317  26.430  0.00  0.00    +0.007 C 
ENDBRANCH  24  25
ENDBRANCH  20  24
ENDBRANCH   1  20
TORSDOF 7
ENDMDL
MODEL 3
REMARK VINA RESULT:      -6.5      3.069      7.536
REMARK  Name = 
REMARK  9 active torsions:
REMARK  status: ('A' for Active; 'I' for Inactive)
REMARK    1  A    between atoms: C_2  and  N_3
REMARK    2  A    between atoms: C_2  and  C_4
REMARK    3  A    between atoms: C_2  and  C_8
REMARK    4  A    between atoms: C_4  and  C_5
REMARK    5  A    between atoms: C_5  and  C_6
REMARK    6  A    between atoms: C_5  and  C_7
REMARK    7  A    between atoms: C_14  and  C_16
REMARK    8  A    between atoms: N_18  and  C_19
REMARK    9  A    between atoms: C_19  and  C_20
REMARK                            x       y       z     vdW  Elec       q    Type
REMARK                         _______ _______ _______ _____ _____    ______ ____
ROOT
ATOM      1  C   UNL     1       9.161  -3.070  24.459  0.00  0.00    +0.233 C 
ATOM      2  N   UNL     1       8.427  -1.952  24.796  0.00  0.00    -0.289 N 
ATOM      3  C   UNL     1       8.491  -0.785  23.901  0.00  0.00    +0.162 C 
ATOM      4  C   UNL     1       7.095  -0.151  23.988  0.00  0.00    +0.033 C 
ATOM      5  C   UNL     1       6.262  -1.097  24.854  0.00  0.00    +0.021 C 
ATOM      6  C   UNL     1       7.285  -1.840  25.687  0.00  0.00    +0.108 C 
ATOM      7  O   UNL     1      10.160  -2.961  23.736  0.00  0.00    -0.274 OA
ENDROOT
BRANCH   3   8
ATOM      8  C   UNL     1       9.564   0.249  24.292  0.00  0.00    +0.234 C 
ATOM      9  N   UNL     1       9.719   1.281  23.393  0.00  0.00    -0.310 N 
ATOM     10  H   UNL     1       8.979   1.420  22.718  0.00  0.00    +0.149 HD
ATOM     11  O   UNL     1      10.332   0.062  25.233  0.00  0.00    -0.274 OA
BRANCH   9  12
ATOM     12  C   UNL     1      10.723   2.302  23.542  0.00  0.00    +0.139 C 
BRANCH  12  13
ATOM     13  C   UNL     1      10.103   3.674  23.589  0.00  0.00    -0.029 A 
ATOM     14  C   UNL     1      10.914   4.813  23.712  0.00  0.00    +0.005 A 
ATOM     15  C   UNL     1      10.353   6.090  23.693  0.00  0.00    +0.002 A 
ATOM     16  C   UNL     1       8.974   6.245  23.553  0.00  0.00    +0.020 A 
ATOM     17  C   UNL     1       8.162   5.119  23.447  0.00  0.00    +0.041 A 
ATOM     18 CL   UNL     1       6.460   5.307  23.273  0.00  0.00    -0.084 Cl
ATOM     19  C   UNL     1       8.716   3.838  23.466  0.00  0.00    +0.025 A 
ENDBRANCH  12  13
ENDBRANCH   9  12
ENDBRANCH   3   8
BRANCH   1  20
ATOM     20  C   UNL     1       8.719  -4.485  24.916  0.00  0.00    +0.138 C 
BRANCH  20  21
ATOM     21  N   UNL     1       9.848  -5.436  24.824  0.00  0.00    -0.320 NA
ATOM     22  H   UNL     1       9.904  -5.776  23.863  0.00  0.00    +0.119 HD
ATOM     23  H   UNL     1      10.720  -4.934  24.989  0.00  0.00    +0.119 HD
ENDBRANCH  20  21
BRANCH  20  24
ATOM     24  C   UNL     1       7.452  -4.979  24.204  0.00  0.00    +0.031 C 
BRANCH  24  25
ATOM     25  C   UNL     1       7.439  -4.746  22.674  0.00  0.00    -0.015 C 
ATOM     26  C   UNL     1       6.367  -3.719  22.298  0.00  0.00    +0.007 C 
ATOM     27  C   UNL     1       7.208  -6.032  21.876  0.00  0.00    +0.007 C 
ENDBRANCH  24  25
ENDBRANCH  20  24
ENDBRANCH   1  20
TORSDOF 7
ENDMDL
MODEL 4
REMARK VINA RESULT:      -6.5      2.994      7.188
REMARK  Name = 
REMARK  9 active torsions:
REMARK  status: ('A' for Active; 'I' for Inactive)
REMARK    1  A    between atoms: C_2  and  N_3
REMARK    2  A    between atoms: C_2  and  C_4
REMARK    3  A    between atoms: C_2  and  C_8
REMARK    4  A    between atoms: C_4  and  C_5
REMARK    5  A    between atoms: C_5  and  C_6
REMARK    6  A    between atoms: C_5  and  C_7
REMARK    7  A    between atoms: C_14  and  C_16
REMARK    8  A    between atoms: N_18  and  C_19
REMARK    9  A    between atoms: C_19  and  C_20
REMARK                            x       y       z     vdW  Elec       q    Type
REMARK                         _______ _______ _______ _____ _____    ______ ____
ROOT
ATOM      1  C   UNL     1       5.352  -3.803  24.876  0.00  0.00    +0.233 C 
ATOM      2  N   UNL     1       6.095  -4.063  23.744  0.00  0.00    -0.289 N 
ATOM      3  C   UNL     1       7.187  -5.045  23.841  0.00  0.00    +0.162 C 
ATOM      4  C   UNL     1       7.223  -5.724  22.464  0.00  0.00    +0.033 C 
ATOM      5  C   UNL     1       6.034  -5.157  21.689  0.00  0.00    +0.021 C 
ATOM      6  C   UNL     1       5.757  -3.823  22.350  0.00  0.00    +0.108 C 
ATOM      7  O   UNL     1       5.838  -4.004  25.997  0.00  0.00    -0.274 OA
ENDROOT
BRANCH   3   8
ATOM      8  C   UNL     1       8.562  -4.428  24.160  0.00  0.00    +0.234 C 
ATOM      9  N   UNL     1       8.743  -3.152  23.678  0.00  0.00    -0.310 N 
ATOM     10  H   UNL     1       7.916  -2.642  23.397  0.00  0.00    +0.149 HD
ATOM     11  O   UNL     1       9.474  -5.095  24.646  0.00  0.00    -0.274 OA
BRANCH   9  12
ATOM     12  C   UNL     1       9.988  -2.437  23.806  0.00  0.00    +0.139 C 
BRANCH  12  13
ATOM     13  C   UNL     1       9.932  -1.113  23.091  0.00  0.00    -0.029 A 
ATOM     14  C   UNL     1       9.353  -1.021  21.815  0.00  0.00    +0.005 A 
ATOM     15  C   UNL     1       9.240   0.213  21.173  0.00  0.00    +0.002 A 
ATOM     16  C   UNL     1       9.707   1.370  21.796  0.00  0.00    +0.020 A 
ATOM     17  C   UNL     1      10.298   1.284  23.055  0.00  0.00    +0.041 A 
ATOM     18 CL   UNL     1      10.874   2.710  23.827  0.00  0.00    -0.084 Cl
ATOM     19  C   UNL     1      10.415   0.053  23.703  0.00  0.00    +0.025 A 
ENDBRANCH  12  13
ENDBRANCH   9  12
ENDBRANCH   3   8
BRANCH   1  20
ATOM     20  C   UNL     1       3.880  -3.322  24.774  0.00  0.00    +0.138 C 
BRANCH  20  21
ATOM     21  N   UNL     1       3.621  -2.236  25.744  0.00  0.00    -0.320 NA
ATOM     22  H   UNL     1       2.611  -2.107  25.818  0.00  0.00    +0.119 HD
ATOM     23  H   UNL     1       3.928  -2.536  26.669  0.00  0.00    +0.119 HD
ENDBRANCH  20  21
BRANCH  20  24
ATOM     24  C   UNL     1       2.865  -4.470  24.864  0.00  0.00    +0.031 C 
BRANCH  24  25
ATOM     25  C   UNL     1       2.731  -5.315  23.575  0.00  0.00    -0.015 C 
ATOM     26  C   UNL     1       1.264  -5.406  23.144  0.00  0.00    +0.007 C 
ATOM     27  C   UNL     1       3.302  -6.728  23.725  0.00  0.00    +0.007 C 
ENDBRANCH  24  25
ENDBRANCH  20  24
ENDBRANCH   1  20
TORSDOF 7
ENDMDL
MODEL 5
REMARK VINA RESULT:      -6.5      1.756      2.426
REMARK  Name = 
REMARK  9 active torsions:
REMARK  status: ('A' for Active; 'I' for Inactive)
REMARK    1  A    between atoms: C_2  and  N_3
REMARK    2  A    between atoms: C_2  and  C_4
REMARK    3  A    between atoms: C_2  and  C_8
REMARK    4  A    between atoms: C_4  and  C_5
REMARK    5  A    between atoms: C_5  and  C_6
REMARK    6  A    between atoms: C_5  and  C_7
REMARK    7  A    between atoms: C_14  and  C_16
REMARK    8  A    between atoms: N_18  and  C_19
REMARK    9  A    between atoms: C_19  and  C_20
REMARK                            x       y       z     vdW  Elec       q    Type
REMARK                         _______ _______ _______ _____ _____    ______ ____
ROOT
ATOM      1  C   UNL     1       9.544   0.044  22.976  0.00  0.00    +0.233 C 
ATOM      2  N   UNL     1       8.713  -0.406  23.981  0.00  0.00    -0.289 N 
ATOM      3  C   UNL     1       9.292  -1.258  25.030  0.00  0.00    +0.162 C 
ATOM      4  C   UNL     1       8.511  -0.895  26.302  0.00  0.00    +0.033 C 
ATOM      5  C   UNL     1       7.595   0.265  25.911  0.00  0.00    +0.021 C 
ATOM      6  C   UNL     1       7.429   0.121  24.412  0.00  0.00    +0.108 C 
ATOM      7  O   UNL     1      10.574  -0.583  22.696  0.00  0.00    -0.274 OA
ENDROOT
BRANCH   3   8
ATOM      8  C   UNL     1       9.172  -2.769  24.752  0.00  0.00    +0.234 C 
ATOM      9  N   UNL     1       8.094  -3.378  25.354  0.00  0.00    -0.310 N 
ATOM     10  H   UNL     1       7.355  -2.778  25.696  0.00  0.00    +0.149 HD
ATOM     11  O   UNL     1      10.066  -3.397  24.190  0.00  0.00    -0.274 OA
BRANCH   9  12
ATOM     12  C   UNL     1       7.855  -4.796  25.278  0.00  0.00    +0.139 C 
BRANCH  12  13
ATOM     13  C   UNL     1       7.030  -5.146  24.067  0.00  0.00    -0.029 A 
ATOM     14  C   UNL     1       7.658  -5.521  22.869  0.00  0.00    +0.005 A 
ATOM     15  C   UNL     1       6.901  -5.907  21.762  0.00  0.00    +0.002 A 
ATOM     16  C   UNL     1       5.509  -5.922  21.838  0.00  0.00    +0.020 A 
ATOM     17  C   UNL     1       4.880  -5.537  23.019  0.00  0.00    +0.041 A 
ATOM     18 CL   UNL     1       3.161  -5.557  23.117  0.00  0.00    -0.084 Cl
ATOM     19  C   UNL     1       5.629  -5.148  24.130  0.00  0.00    +0.025 A 
ENDBRANCH  12  13
ENDBRANCH   9  12
ENDBRANCH   3   8
BRANCH   1  20
ATOM     20  C   UNL     1       9.250   1.371  22.228  0.00  0.00    +0.138 C 
BRANCH  20  21
ATOM     21  N   UNL     1       8.673   1.096  20.893  0.00  0.00    -0.320 NA
ATOM     22  H   UNL     1       7.676   0.908  21.008  0.00  0.00    +0.119 HD
ATOM     23  H   UNL     1       8.729   1.942  20.327  0.00  0.00    +0.119 HD
ENDBRANCH  20  21
BRANCH  20  24
ATOM     24  C   UNL     1      10.457   2.318  22.183  0.00  0.00    +0.031 C 
BRANCH  24  25
ATOM     25  C   UNL     1      10.729   3.080  23.502  0.00  0.00    -0.015 C 
ATOM     26  C   UNL     1       9.420   3.610  24.094  0.00  0.00    +0.007 C 
ATOM     27  C   UNL     1      11.712   4.242  23.329  0.00  0.00    +0.007 C 
ENDBRANCH  24  25
ENDBRANCH  20  24
ENDBRANCH   1  20
TORSDOF 7
ENDMDL
MODEL 6
REMARK VINA RESULT:      -6.4      2.851      7.253
REMARK  Name = 
REMARK  9 active torsions:
REMARK  status: ('A' for Active; 'I' for Inactive)
REMARK    1  A    between atoms: C_2  and  N_3
REMARK    2  A    between atoms: C_2  and  C_4
REMARK    3  A    between atoms: C_2  and  C_8
REMARK    4  A    between atoms: C_4  and  C_5
REMARK    5  A    between atoms: C_5  and  C_6
REMARK    6  A    between atoms: C_5  and  C_7
REMARK    7  A    between atoms: C_14  and  C_16
REMARK    8  A    between atoms: N_18  and  C_19
REMARK    9  A    between atoms: C_19  and  C_20
REMARK                            x       y       z     vdW  Elec       q    Type
REMARK                         _______ _______ _______ _____ _____    ______ ____
ROOT
ATOM      1  C   UNL     1       6.902  -4.569  22.505  0.00  0.00    +0.233 C 
ATOM      2  N   UNL     1       7.820  -4.381  23.516  0.00  0.00    -0.289 N 
ATOM      3  C   UNL     1       7.913  -3.047  24.129  0.00  0.00    +0.162 C 
ATOM      4  C   UNL     1       8.270  -3.317  25.598  0.00  0.00    +0.033 C 
ATOM      5  C   UNL     1       8.232  -4.837  25.763  0.00  0.00    +0.021 C 
ATOM      6  C   UNL     1       8.465  -5.370  24.364  0.00  0.00    +0.108 C 
ATOM      7  O   UNL     1       6.516  -3.606  21.830  0.00  0.00    -0.274 OA
ENDROOT
BRANCH   3   8
ATOM      8  C   UNL     1       8.976  -2.133  23.489  0.00  0.00    +0.234 C 
ATOM      9  N   UNL     1       8.495  -1.291  22.512  0.00  0.00    -0.310 N 
ATOM     10  H   UNL     1       7.494  -1.153  22.473  0.00  0.00    +0.149 HD
ATOM     11  O   UNL     1      10.176  -2.280  23.713  0.00  0.00    -0.274 OA
BRANCH   9  12
ATOM     12  C   UNL     1       9.345  -0.418  21.744  0.00  0.00    +0.139 C 
BRANCH  12  13
ATOM     13  C   UNL     1       9.363   0.973  22.321  0.00  0.00    -0.029 A 
ATOM     14  C   UNL     1      10.440   1.395  23.116  0.00  0.00    +0.005 A 
ATOM     15  C   UNL     1      10.495   2.702  23.602  0.00  0.00    +0.002 A 
ATOM     16  C   UNL     1       9.473   3.602  23.302  0.00  0.00    +0.020 A 
ATOM     17  C   UNL     1       8.393   3.185  22.528  0.00  0.00    +0.041 A 
ATOM     18 CL   UNL     1       7.131   4.294  22.155  0.00  0.00    -0.084 Cl
ATOM     19  C   UNL     1       8.330   1.879  22.039  0.00  0.00    +0.025 A 
ENDBRANCH  12  13
ENDBRANCH   9  12
ENDBRANCH   3   8
BRANCH   1  20
ATOM     20  C   UNL     1       6.284  -5.966  22.234  0.00  0.00    +0.138 C 
BRANCH  20  21
ATOM     21  N   UNL     1       5.748  -6.039  20.857  0.00  0.00    -0.320 NA
ATOM     22  H   UNL     1       5.910  -5.139  20.403  0.00  0.00    +0.119 HD
ATOM     23  H   UNL     1       6.292  -6.717  20.324  0.00  0.00    +0.119 HD
ENDBRANCH  20  21
BRANCH  20  24
ATOM     24  C   UNL     1       5.268  -6.392  23.303  0.00  0.00    +0.031 C 
BRANCH  24  25
ATOM     25  C   UNL     1       4.388  -5.243  23.851  0.00  0.00    -0.015 C 
ATOM     26  C   UNL     1       4.489  -5.172  25.377  0.00  0.00    +0.007 C 
ATOM     27  C   UNL     1       2.916  -5.373  23.448  0.00  0.00    +0.007 C 
ENDBRANCH  24  25
ENDBRANCH  20  24
ENDBRANCH   1  20
TORSDOF 7
ENDMDL
MODEL 7
REMARK VINA RESULT:      -6.3      2.181      4.183
REMARK  Name = 
REMARK  9 active torsions:
REMARK  status: ('A' for Active; 'I' for Inactive)
REMARK    1  A    between atoms: C_2  and  N_3
REMARK    2  A    between atoms: C_2  and  C_4
REMARK    3  A    between atoms: C_2  and  C_8
REMARK    4  A    between atoms: C_4  and  C_5
REMARK    5  A    between atoms: C_5  and  C_6
REMARK    6  A    between atoms: C_5  and  C_7
REMARK    7  A    between atoms: C_14  and  C_16
REMARK    8  A    between atoms: N_18  and  C_19
REMARK    9  A    between atoms: C_19  and  C_20
REMARK                            x       y       z     vdW  Elec       q    Type
REMARK                         _______ _______ _______ _____ _____    ______ ____
ROOT
ATOM      1  C   UNL     1       7.748   0.532  24.627  0.00  0.00    +0.233 C 
ATOM      2  N   UNL     1       8.750   0.457  23.682  0.00  0.00    -0.289 N 
ATOM      3  C   UNL     1       8.438  -0.177  22.391  0.00  0.00    +0.162 C 
ATOM      4  C   UNL     1       9.289   0.588  21.366  0.00  0.00    +0.033 C 
ATOM      5  C   UNL     1       9.954   1.724  22.143  0.00  0.00    +0.021 C 
ATOM      6  C   UNL     1       9.972   1.236  23.577  0.00  0.00    +0.108 C 
ATOM      7  O   UNL     1       6.809  -0.274  24.601  0.00  0.00    -0.274 OA
ENDROOT
BRANCH   3   8
ATOM      8  C   UNL     1       8.769  -1.681  22.332  0.00  0.00    +0.234 C 
ATOM      9  N   UNL     1       7.728  -2.511  22.680  0.00  0.00    -0.310 N 
ATOM     10  H   UNL     1       6.800  -2.109  22.691  0.00  0.00    +0.149 HD
ATOM     11  O   UNL     1       9.918  -2.085  22.162  0.00  0.00    -0.274 OA
BRANCH   9  12
ATOM     12  C   UNL     1       7.863  -3.943  22.762  0.00  0.00    +0.139 C 
BRANCH  12  13
ATOM     13  C   UNL     1       7.869  -4.409  24.194  0.00  0.00    -0.029 A 
ATOM     14  C   UNL     1       8.962  -4.125  25.027  0.00  0.00    +0.005 A 
ATOM     15  C   UNL     1       8.948  -4.499  26.371  0.00  0.00    +0.002 A 
ATOM     16  C   UNL     1       7.841  -5.163  26.899  0.00  0.00    +0.020 A 
ATOM     17  C   UNL     1       6.759  -5.462  26.075  0.00  0.00    +0.041 A 
ATOM     18 CL   UNL     1       5.392  -6.281  26.725  0.00  0.00    -0.084 Cl
ATOM     19  C   UNL     1       6.767  -5.093  24.729  0.00  0.00    +0.025 A 
ENDBRANCH  12  13
ENDBRANCH   9  12
ENDBRANCH   3   8
BRANCH   1  20
ATOM     20  C   UNL     1       7.738   1.659  25.694  0.00  0.00    +0.138 C 
BRANCH  20  21
ATOM     21  N   UNL     1       7.667   1.083  27.055  0.00  0.00    -0.320 NA
ATOM     22  H   UNL     1       7.004   0.308  27.041  0.00  0.00    +0.119 HD
ATOM     23  H   UNL     1       8.569   0.669  27.288  0.00  0.00    +0.119 HD
ENDBRANCH  20  21
BRANCH  20  24
ATOM     24  C   UNL     1       6.668   2.727  25.431  0.00  0.00    +0.031 C 
BRANCH  24  25
ATOM     25  C   UNL     1       7.173   3.971  24.661  0.00  0.00    -0.015 C 
ATOM     26  C   UNL     1       7.008   3.771  23.152  0.00  0.00    +0.007 C 
ATOM     27  C   UNL     1       8.634   4.311  24.969  0.00  0.00    +0.007 C 
ENDBRANCH  24  25
ENDBRANCH  20  24
ENDBRANCH   1  20
TORSDOF 7
ENDMDL
MODEL 8
REMARK VINA RESULT:      -6.2      2.638      7.336
REMARK  Name = 
REMARK  9 active torsions:
REMARK  status: ('A' for Active; 'I' for Inactive)
REMARK    1  A    between atoms: C_2  and  N_3
REMARK    2  A    between atoms: C_2  and  C_4
REMARK    3  A    between atoms: C_2  and  C_8
REMARK    4  A    between atoms: C_4  and  C_5
REMARK    5  A    between atoms: C_5  and  C_6
REMARK    6  A    between atoms: C_5  and  C_7
REMARK    7  A    between atoms: C_14  and  C_16
REMARK    8  A    between atoms: N_18  and  C_19
REMARK    9  A    between atoms: C_19  and  C_20
REMARK                            x       y       z     vdW  Elec       q    Type
REMARK                         _______ _______ _______ _____ _____    ______ ____
ROOT
ATOM      1  C   UNL     1       7.067  -5.140  26.264  0.00  0.00    +0.233 C 
ATOM      2  N   UNL     1       6.841  -4.151  25.330  0.00  0.00    -0.289 N 
ATOM      3  C   UNL     1       7.510  -4.266  24.024  0.00  0.00    +0.162 C 
ATOM      4  C   UNL     1       6.517  -3.655  23.024  0.00  0.00    +0.033 C 
ATOM      5  C   UNL     1       5.257  -3.336  23.829  0.00  0.00    +0.021 C 
ATOM      6  C   UNL     1       5.751  -3.193  25.254  0.00  0.00    +0.108 C 
ATOM      7  O   UNL     1       8.101  -5.818  26.213  0.00  0.00    -0.274 OA
ENDROOT
BRANCH   3   8
ATOM      8  C   UNL     1       8.861  -3.530  23.941  0.00  0.00    +0.234 C 
ATOM      9  N   UNL     1       8.892  -2.490  23.040  0.00  0.00    -0.310 N 
ATOM     10  H   UNL     1       8.003  -2.136  22.712  0.00  0.00    +0.149 HD
ATOM     11  O   UNL     1       9.867  -3.958  24.503  0.00  0.00    -0.274 OA
BRANCH   9  12
ATOM     12  C   UNL     1      10.085  -1.732  22.762  0.00  0.00    +0.139 C 
BRANCH  12  13
ATOM     13  C   UNL     1       9.874  -0.265  23.032  0.00  0.00    -0.029 A 
ATOM     14  C   UNL     1      10.711   0.417  23.929  0.00  0.00    +0.005 A 
ATOM     15  C   UNL     1      10.563   1.788  24.137  0.00  0.00    +0.002 A 
ATOM     16  C   UNL     1       9.575   2.496  23.452  0.00  0.00    +0.020 A 
ATOM     17  C   UNL     1       8.730   1.823  22.573  0.00  0.00    +0.041 A 
ATOM     18 CL   UNL     1       7.511   2.693  21.725  0.00  0.00    -0.084 Cl
ATOM     19  C   UNL     1       8.871   0.450  22.361  0.00  0.00    +0.025 A 
ENDBRANCH  12  13
ENDBRANCH   9  12
ENDBRANCH   3   8
BRANCH   1  20
ATOM     20  C   UNL     1       6.010  -5.469  27.351  0.00  0.00    +0.138 C 
BRANCH  20  21
ATOM     21  N   UNL     1       6.660  -5.656  28.667  0.00  0.00    -0.320 NA
ATOM     22  H   UNL     1       7.651  -5.430  28.570  0.00  0.00    +0.119 HD
ATOM     23  H   UNL     1       6.285  -4.971  29.323  0.00  0.00    +0.119 HD
ENDBRANCH  20  21
BRANCH  20  24
ATOM     24  C   UNL     1       5.088  -6.632  26.961  0.00  0.00    +0.031 C 
BRANCH  24  25
ATOM     25  C   UNL     1       4.030  -6.285  25.885  0.00  0.00    -0.015 C 
ATOM     26  C   UNL     1       2.630  -6.676  26.365  0.00  0.00    +0.007 C 
ATOM     27  C   UNL     1       4.308  -6.956  24.537  0.00  0.00    +0.007 C 
ENDBRANCH  24  25
ENDBRANCH  20  24
ENDBRANCH   1  20
TORSDOF 7
ENDMDL
MODEL 9
REMARK VINA RESULT:      -6.2      2.100      3.940
REMARK  Name = 
REMARK  9 active torsions:
REMARK  status: ('A' for Active; 'I' for Inactive)
REMARK    1  A    between atoms: C_2  and  N_3
REMARK    2  A    between atoms: C_2  and  C_4
REMARK    3  A    between atoms: C_2  and  C_8
REMARK    4  A    between atoms: C_4  and  C_5
REMARK    5  A    between atoms: C_5  and  C_6
REMARK    6  A    between atoms: C_5  and  C_7
REMARK    7  A    between atoms: C_14  and  C_16
REMARK    8  A    between atoms: N_18  and  C_19
REMARK    9  A    between atoms: C_19  and  C_20
REMARK                            x       y       z     vdW  Elec       q    Type
REMARK                         _______ _______ _______ _____ _____    ______ ____
ROOT
ATOM      1  C   UNL     1       7.892   0.943  24.708  0.00  0.00    +0.233 C 
ATOM      2  N   UNL     1       8.939   0.779  23.825  0.00  0.00    -0.289 N 
ATOM      3  C   UNL     1       8.720  -0.060  22.637  0.00  0.00    +0.162 C 
ATOM      4  C   UNL     1       9.579   0.585  21.540  0.00  0.00    +0.033 C 
ATOM      5  C   UNL     1      10.152   1.862  22.157  0.00  0.00    +0.021 C 
ATOM      6  C   UNL     1      10.126   1.601  23.649  0.00  0.00    +0.108 C 
ATOM      7  O   UNL     1       6.996   0.092  24.771  0.00  0.00    -0.274 OA
ENDROOT
BRANCH   3   8
ATOM      8  C   UNL     1       9.126  -1.534  22.824  0.00  0.00    +0.234 C 
ATOM      9  N   UNL     1       8.242  -2.283  23.568  0.00  0.00    -0.310 N 
ATOM     10  H   UNL     1       7.315  -1.902  23.704  0.00  0.00    +0.149 HD
ATOM     11  O   UNL     1      10.234  -1.949  22.487  0.00  0.00    -0.274 OA
BRANCH   9  12
ATOM     12  C   UNL     1       8.484  -3.659  23.918  0.00  0.00    +0.139 C 
BRANCH  12  13
ATOM     13  C   UNL     1       7.370  -4.549  23.435  0.00  0.00    -0.029 A 
ATOM     14  C   UNL     1       7.212  -4.804  22.063  0.00  0.00    +0.005 A 
ATOM     15  C   UNL     1       6.221  -5.677  21.612  0.00  0.00    +0.002 A 
ATOM     16  C   UNL     1       5.375  -6.305  22.526  0.00  0.00    +0.020 A 
ATOM     17  C   UNL     1       5.516  -6.044  23.887  0.00  0.00    +0.041 A 
ATOM     18 CL   UNL     1       4.474  -6.819  25.016  0.00  0.00    -0.084 Cl
ATOM     19  C   UNL     1       6.503  -5.171  24.346  0.00  0.00    +0.025 A 
ENDBRANCH  12  13
ENDBRANCH   9  12
ENDBRANCH   3   8
BRANCH   1  20
ATOM     20  C   UNL     1       7.777   2.216  25.586  0.00  0.00    +0.138 C 
BRANCH  20  21
ATOM     21  N   UNL     1       7.535   1.852  26.999  0.00  0.00    -0.320 NA
ATOM     22  H   UNL     1       8.143   1.067  27.237  0.00  0.00    +0.119 HD
ATOM     23  H   UNL     1       7.834   2.622  27.597  0.00  0.00    +0.119 HD
ENDBRANCH  20  21
BRANCH  20  24
ATOM     24  C   UNL     1       6.766   3.234  25.041  0.00  0.00    +0.031 C 
BRANCH  24  25
ATOM     25  C   UNL     1       7.398   4.457  24.333  0.00  0.00    -0.015 C 
ATOM     26  C   UNL     1       7.462   4.227  22.821  0.00  0.00    +0.007 C 
ATOM     27  C   UNL     1       8.800   4.789  24.854  0.00  0.00    +0.007 C 
ENDBRANCH  24  25
ENDBRANCH  20  24
ENDBRANCH   1  20
TORSDOF 7
ENDMDL
