MODEL 1
REMARK VINA RESULT:      -7.1      0.000      0.000
REMARK  Name = 
REMARK  6 active torsions:
REMARK  status: ('A' for Active; 'I' for Inactive)
REMARK    1  A    between atoms: C_2  and  N_3
REMARK    2  A    between atoms: C_2  and  C_4
REMARK    3  A    between atoms: C_2  and  C_21
REMARK    4  A    between atoms: C_4  and  C_5
REMARK    5  A    between atoms: C_16  and  C_18
REMARK    6  A    between atoms: C_21  and  C_22
REMARK                            x       y       z     vdW  Elec       q    Type
REMARK                         _______ _______ _______ _____ _____    ______ ____
ROOT
ATOM      1  C   UNL     1       6.318  -2.543  26.589  0.00  0.00    +0.218 C 
ATOM      2  N   UNL     1       7.610  -2.688  26.116  0.00  0.00    -0.285 N 
ATOM      3  C   UNL     1       8.014  -3.650  25.074  0.00  0.00    +0.166 C 
ATOM      4  C   UNL     1       8.067  -2.898  23.746  0.00  0.00    +0.067 C 
ATOM      5  C   UNL     1       8.950  -1.679  23.847  0.00  0.00    -0.040 A 
ATOM      6  C   UNL     1       9.200  -1.082  25.100  0.00  0.00    -0.027 A 
ATOM      7  C   UNL     1      10.069   0.017  25.161  0.00  0.00    +0.005 A 
ATOM      8  C   UNL     1      10.654   0.522  23.998  0.00  0.00    +0.000 A 
ATOM      9  C   UNL     1      10.368  -0.051  22.760  0.00  0.00    +0.000 A 
ATOM     10  C   UNL     1       9.515  -1.145  22.683  0.00  0.00    +0.004 A 
ATOM     11  C   UNL     1       8.589  -1.630  26.381  0.00  0.00    +0.144 C 
ATOM     12  O   UNL     1       5.978  -1.603  27.311  0.00  0.00    -0.276 OA
ENDROOT
BRANCH   3  13
ATOM     13  C   UNL     1       9.284  -4.422  25.515  0.00  0.00    +0.231 C 
ATOM     14  O   UNL     1      10.229  -4.633  24.749  0.00  0.00    -0.274 OA
ATOM     15  N   UNL     1       9.362  -4.869  26.802  0.00  0.00    -0.328 N 
ATOM     16  H   UNL     1       8.523  -5.107  27.318  0.00  0.00    +0.145 HD
ATOM     17  H   UNL     1      10.170  -5.448  27.002  0.00  0.00    +0.145 HD
ENDBRANCH   3  13
BRANCH   1  18
ATOM     18  C   UNL     1       5.286  -3.587  26.196  0.00  0.00    +0.114 C 
BRANCH  18  19
ATOM     19  C   UNL     1       4.298  -3.071  25.142  0.00  0.00    +0.064 C 
BRANCH  19  20
ATOM     20  N   UNL     1       3.205  -2.374  25.847  0.00  0.00    -0.327 NA
ATOM     21  H   UNL     1       2.425  -2.248  25.197  0.00  0.00    +0.118 HD
ATOM     22  H   UNL     1       2.838  -2.977  26.583  0.00  0.00    +0.118 HD
ENDBRANCH  19  20
BRANCH  19  23
ATOM     23  C   UNL     1       3.794  -4.222  24.241  0.00  0.00    +0.057 C 
BRANCH  23  24
ATOM     24  C   UNL     1       4.800  -4.680  23.211  0.00  0.00    -0.011 A 
ATOM     25  C   UNL     1       5.352  -5.963  23.286  0.00  0.00    +0.127 A 
ATOM     26  F   UNL     1       4.986  -6.794  24.273  0.00  0.00    -0.205 F 
ATOM     27  C   UNL     1       6.276  -6.411  22.347  0.00  0.00    +0.038 A 
ATOM     28  C   UNL     1       6.663  -5.571  21.306  0.00  0.00    +0.003 A 
ATOM     29  C   UNL     1       6.131  -4.285  21.218  0.00  0.00    +0.000 A 
ATOM     30  C   UNL     1       5.206  -3.836  22.165  0.00  0.00    +0.006 A 
ENDBRANCH  23  24
ENDBRANCH  19  23
ENDBRANCH  18  19
ENDBRANCH   1  18
TORSDOF 6
ENDMDL
MODEL 2
REMARK VINA RESULT:      -7.0      3.222      6.673
REMARK  Name = 
REMARK  6 active torsions:
REMARK  status: ('A' for Active; 'I' for Inactive)
REMARK    1  A    between atoms: C_2  and  N_3
REMARK    2  A    between atoms: C_2  and  C_4
REMARK    3  A    between atoms: C_2  and  C_21
REMARK    4  A    between atoms: C_4  and  C_5
REMARK    5  A    between atoms: C_16  and  C_18
REMARK    6  A    between atoms: C_21  and  C_22
REMARK                            x       y       z     vdW  Elec       q    Type
REMARK                         _______ _______ _______ _____ _____    ______ ____
ROOT
ATOM      1  C   UNL     1       7.244  -2.028  22.661  0.00  0.00    +0.218 C 
ATOM      2  N   UNL     1       6.552  -3.223  22.748  0.00  0.00    -0.285 N 
ATOM      3  C   UNL     1       7.176  -4.556  22.660  0.00  0.00    +0.166 C 
ATOM      4  C   UNL     1       7.385  -5.064  24.086  0.00  0.00    +0.067 C 
ATOM      5  C   UNL     1       6.096  -5.028  24.869  0.00  0.00    -0.040 A 
ATOM      6  C   UNL     1       5.055  -4.156  24.488  0.00  0.00    -0.027 A 
ATOM      7  C   UNL     1       3.852  -4.190  25.208  0.00  0.00    +0.005 A 
ATOM      8  C   UNL     1       3.701  -5.054  26.294  0.00  0.00    +0.000 A 
ATOM      9  C   UNL     1       4.750  -5.883  26.686  0.00  0.00    +0.000 A 
ATOM     10  C   UNL     1       5.947  -5.867  25.979  0.00  0.00    +0.004 A 
ATOM     11  C   UNL     1       5.192  -3.222  23.296  0.00  0.00    +0.144 C 
ATOM     12  O   UNL     1       6.727  -0.942  22.934  0.00  0.00    -0.276 OA
ENDROOT
BRANCH   3  13
ATOM     13  C   UNL     1       6.382  -5.461  21.683  0.00  0.00    +0.231 C 
ATOM     14  O   UNL     1       5.964  -5.053  20.597  0.00  0.00    -0.274 OA
ATOM     15  N   UNL     1       6.154  -6.760  22.037  0.00  0.00    -0.328 N 
ATOM     16  H   UNL     1       6.081  -7.026  23.012  0.00  0.00    +0.145 HD
ATOM     17  H   UNL     1       5.549  -7.271  21.404  0.00  0.00    +0.145 HD
ENDBRANCH   3  13
BRANCH   1  18
ATOM     18  C   UNL     1       8.694  -2.067  22.212  0.00  0.00    +0.114 C 
BRANCH  18  19
ATOM     19  C   UNL     1       9.672  -1.746  23.350  0.00  0.00    +0.064 C 
BRANCH  19  20
ATOM     20  N   UNL     1       8.890  -1.597  24.592  0.00  0.00    -0.327 NA
ATOM     21  H   UNL     1       9.513  -1.746  25.390  0.00  0.00    +0.118 HD
ATOM     22  H   UNL     1       8.577  -0.630  24.681  0.00  0.00    +0.118 HD
ENDBRANCH  19  20
BRANCH  19  23
ATOM     23  C   UNL     1      10.520  -0.496  23.019  0.00  0.00    +0.057 C 
BRANCH  23  24
ATOM     24  C   UNL     1       9.774   0.809  23.173  0.00  0.00    -0.011 A 
ATOM     25  C   UNL     1       9.112   1.375  22.080  0.00  0.00    +0.127 A 
ATOM     26  F   UNL     1       9.131   0.758  20.889  0.00  0.00    -0.205 F 
ATOM     27  C   UNL     1       8.413   2.573  22.196  0.00  0.00    +0.038 A 
ATOM     28  C   UNL     1       8.366   3.227  23.424  0.00  0.00    +0.003 A 
ATOM     29  C   UNL     1       9.028   2.683  24.525  0.00  0.00    +0.000 A 
ATOM     30  C   UNL     1       9.732   1.482  24.405  0.00  0.00    +0.006 A 
ENDBRANCH  23  24
ENDBRANCH  19  23
ENDBRANCH  18  19
ENDBRANCH   1  18
TORSDOF 6
ENDMDL
MODEL 3
REMARK VINA RESULT:      -7.0      2.375      3.171
REMARK  Name = 
REMARK  6 active torsions:
REMARK  status: ('A' for Active; 'I' for Inactive)
REMARK    1  A    between atoms: C_2  and  N_3
REMARK    2  A    between atoms: C_2  and  C_4
REMARK    3  A    between atoms: C_2  and  C_21
REMARK    4  A    between atoms: C_4  and  C_5
REMARK    5  A    between atoms: C_16  and  C_18
REMARK    6  A    between atoms: C_21  and  C_22
REMARK                            x       y       z     vdW  Elec       q    Type
REMARK                         _______ _______ _______ _____ _____    ______ ____
ROOT
ATOM      1  C   UNL     1       7.807  -1.693  26.025  0.00  0.00    +0.218 C 
ATOM      2  N   UNL     1       8.454  -1.192  24.909  0.00  0.00    -0.285 N 
ATOM      3  C   UNL     1       8.151  -1.588  23.522  0.00  0.00    +0.166 C 
ATOM      4  C   UNL     1       7.220  -0.531  22.931  0.00  0.00    +0.067 C 
ATOM      5  C   UNL     1       7.811   0.850  23.072  0.00  0.00    -0.040 A 
ATOM      6  C   UNL     1       8.773   1.116  24.068  0.00  0.00    -0.027 A 
ATOM      7  C   UNL     1       9.338   2.398  24.133  0.00  0.00    +0.005 A 
ATOM      8  C   UNL     1       8.935   3.395  23.243  0.00  0.00    +0.000 A 
ATOM      9  C   UNL     1       7.954   3.132  22.288  0.00  0.00    +0.000 A 
ATOM     10  C   UNL     1       7.389   1.865  22.205  0.00  0.00    +0.004 A 
ATOM     11  C   UNL     1       9.240   0.038  25.033  0.00  0.00    +0.144 C 
ATOM     12  O   UNL     1       7.944  -1.201  27.147  0.00  0.00    -0.276 OA
ENDROOT
BRANCH   3  13
ATOM     13  C   UNL     1       9.459  -1.906  22.753  0.00  0.00    +0.231 C 
ATOM     14  O   UNL     1      10.339  -2.635  23.217  0.00  0.00    -0.274 OA
ATOM     15  N   UNL     1       9.632  -1.367  21.510  0.00  0.00    -0.328 N 
ATOM     16  H   UNL     1       9.203  -0.483  21.265  0.00  0.00    +0.145 HD
ATOM     17  H   UNL     1      10.545  -1.532  21.100  0.00  0.00    +0.145 HD
ENDBRANCH   3  13
BRANCH   1  18
ATOM     18  C   UNL     1       6.894  -2.895  25.849  0.00  0.00    +0.114 C 
BRANCH  18  19
ATOM     19  C   UNL     1       7.338  -4.100  26.688  0.00  0.00    +0.064 C 
BRANCH  19  20
ATOM     20  N   UNL     1       8.804  -4.029  26.845  0.00  0.00    -0.327 NA
ATOM     21  H   UNL     1       9.091  -3.049  26.791  0.00  0.00    +0.118 HD
ATOM     22  H   UNL     1       9.057  -4.324  27.789  0.00  0.00    +0.118 HD
ENDBRANCH  19  20
BRANCH  19  23
ATOM     23  C   UNL     1       6.866  -5.427  26.049  0.00  0.00    +0.057 C 
BRANCH  23  24
ATOM     24  C   UNL     1       6.527  -5.314  24.581  0.00  0.00    -0.011 A 
ATOM     25  C   UNL     1       7.545  -5.275  23.624  0.00  0.00    +0.127 A 
ATOM     26  F   UNL     1       8.829  -5.342  24.006  0.00  0.00    -0.205 F 
ATOM     27  C   UNL     1       7.260  -5.178  22.265  0.00  0.00    +0.038 A 
ATOM     28  C   UNL     1       5.935  -5.119  21.842  0.00  0.00    +0.003 A 
ATOM     29  C   UNL     1       4.904  -5.148  22.782  0.00  0.00    +0.000 A 
ATOM     30  C   UNL     1       5.194  -5.242  24.146  0.00  0.00    +0.006 A 
ENDBRANCH  23  24
ENDBRANCH  19  23
ENDBRANCH  18  19
ENDBRANCH   1  18
TORSDOF 6
ENDMDL
MODEL 4
REMARK VINA RESULT:      -6.9      2.789      6.541
REMARK  Name = 
REMARK  6 active torsions:
REMARK  status: ('A' for Active; 'I' for Inactive)
REMARK    1  A    between atoms: C_2  and  N_3
REMARK    2  A    between atoms: C_2  and  C_4
REMARK    3  A    between atoms: C_2  and  C_21
REMARK    4  A    between atoms: C_4  and  C_5
REMARK    5  A    between atoms: C_16  and  C_18
REMARK    6  A    between atoms: C_21  and  C_22
REMARK                            x       y       z     vdW  Elec       q    Type
REMARK                         _______ _______ _______ _____ _____    ______ ____
ROOT
ATOM      1  C   UNL     1       7.854  -4.824  24.052  0.00  0.00    +0.218 C 
ATOM      2  N   UNL     1       6.888  -4.973  25.032  0.00  0.00    -0.285 N 
ATOM      3  C   UNL     1       6.746  -4.088  26.203  0.00  0.00    +0.166 C 
ATOM      4  C   UNL     1       5.655  -3.068  25.883  0.00  0.00    +0.067 C 
ATOM      5  C   UNL     1       4.380  -3.753  25.458  0.00  0.00    -0.040 A 
ATOM      6  C   UNL     1       4.415  -5.060  24.930  0.00  0.00    -0.027 A 
ATOM      7  C   UNL     1       3.204  -5.684  24.597  0.00  0.00    +0.005 A 
ATOM      8  C   UNL     1       1.992  -5.011  24.762  0.00  0.00    +0.000 A 
ATOM      9  C   UNL     1       1.973  -3.704  25.247  0.00  0.00    +0.000 A 
ATOM     10  C   UNL     1       3.163  -3.074  25.589  0.00  0.00    +0.004 A 
ATOM     11  C   UNL     1       5.722  -5.818  24.762  0.00  0.00    +0.144 C 
ATOM     12  O   UNL     1       7.825  -5.453  22.992  0.00  0.00    -0.276 OA
ENDROOT
BRANCH   3  13
ATOM     13  C   UNL     1       6.588  -4.927  27.497  0.00  0.00    +0.231 C 
ATOM     14  O   UNL     1       7.349  -5.856  27.780  0.00  0.00    -0.274 OA
ATOM     15  N   UNL     1       5.578  -4.611  28.360  0.00  0.00    -0.328 N 
ATOM     16  H   UNL     1       4.720  -4.194  28.021  0.00  0.00    +0.145 HD
ATOM     17  H   UNL     1       5.468  -5.254  29.136  0.00  0.00    +0.145 HD
ENDBRANCH   3  13
BRANCH   1  18
ATOM     18  C   UNL     1       8.988  -3.844  24.301  0.00  0.00    +0.114 C 
BRANCH  18  19
ATOM     19  C   UNL     1       8.765  -2.495  23.605  0.00  0.00    +0.064 C 
BRANCH  19  20
ATOM     20  N   UNL     1       7.730  -2.683  22.570  0.00  0.00    -0.327 NA
ATOM     21  H   UNL     1       8.180  -2.666  21.652  0.00  0.00    +0.118 HD
ATOM     22  H   UNL     1       7.337  -3.621  22.652  0.00  0.00    +0.118 HD
ENDBRANCH  19  20
BRANCH  19  23
ATOM     23  C   UNL     1      10.090  -1.936  23.037  0.00  0.00    +0.057 C 
BRANCH  23  24
ATOM     24  C   UNL     1      10.167  -0.427  23.032  0.00  0.00    -0.011 A 
ATOM     25  C   UNL     1       9.777   0.294  21.899  0.00  0.00    +0.127 A 
ATOM     26  F   UNL     1       9.327  -0.352  20.813  0.00  0.00    -0.205 F 
ATOM     27  C   UNL     1       9.832   1.684  21.870  0.00  0.00    +0.038 A 
ATOM     28  C   UNL     1      10.283   2.379  22.989  0.00  0.00    +0.003 A 
ATOM     29  C   UNL     1      10.685   1.678  24.126  0.00  0.00    +0.000 A 
ATOM     30  C   UNL     1      10.632   0.282  24.151  0.00  0.00    +0.006 A 
ENDBRANCH  23  24
ENDBRANCH  19  23
ENDBRANCH  18  19
ENDBRANCH   1  18
TORSDOF 6
ENDMDL
MODEL 5
REMARK VINA RESULT:      -6.9      3.896      5.561
REMARK  Name = 
REMARK  6 active torsions:
REMARK  status: ('A' for Active; 'I' for Inactive)
REMARK    1  A    between atoms: C_2  and  N_3
REMARK    2  A    between atoms: C_2  and  C_4
REMARK    3  A    between atoms: C_2  and  C_21
REMARK    4  A    between atoms: C_4  and  C_5
REMARK    5  A    between atoms: C_16  and  C_18
REMARK    6  A    between atoms: C_21  and  C_22
REMARK                            x       y       z     vdW  Elec       q    Type
REMARK                         _______ _______ _______ _____ _____    ______ ____
ROOT
ATOM      1  C   UNL     1      10.105   0.488  24.531  0.00  0.00    +0.218 C 
ATOM      2  N   UNL     1       9.642   1.548  23.770  0.00  0.00    -0.285 N 
ATOM      3  C   UNL     1       8.217   1.870  23.569  0.00  0.00    +0.166 C 
ATOM      4  C   UNL     1       7.847   2.972  24.560  0.00  0.00    +0.067 C 
ATOM      5  C   UNL     1       8.779   4.152  24.431  0.00  0.00    -0.040 A 
ATOM      6  C   UNL     1      10.067   3.986  23.883  0.00  0.00    -0.027 A 
ATOM      7  C   UNL     1      10.885   5.115  23.729  0.00  0.00    +0.005 A 
ATOM      8  C   UNL     1      10.436   6.374  24.136  0.00  0.00    +0.000 A 
ATOM      9  C   UNL     1       9.176   6.519  24.713  0.00  0.00    +0.000 A 
ATOM     10  C   UNL     1       8.351   5.411  24.866  0.00  0.00    +0.004 A 
ATOM     11  C   UNL     1      10.567   2.628  23.415  0.00  0.00    +0.144 C 
ATOM     12  O   UNL     1      11.292   0.363  24.840  0.00  0.00    -0.276 OA
ENDROOT
BRANCH   3  13
ATOM     13  C   UNL     1       7.928   2.125  22.068  0.00  0.00    +0.231 C 
ATOM     14  O   UNL     1       7.113   2.969  21.686  0.00  0.00    -0.274 OA
ATOM     15  N   UNL     1       8.614   1.397  21.138  0.00  0.00    -0.328 N 
ATOM     16  H   UNL     1       8.941   0.463  21.352  0.00  0.00    +0.145 HD
ATOM     17  H   UNL     1       8.312   1.540  20.181  0.00  0.00    +0.145 HD
ENDBRANCH   3  13
BRANCH   1  18
ATOM     18  C   UNL     1       9.104  -0.555  24.997  0.00  0.00    +0.114 C 
BRANCH  18  19
ATOM     19  C   UNL     1       8.966  -1.722  24.012  0.00  0.00    +0.064 C 
BRANCH  19  20
ATOM     20  N   UNL     1       9.704  -1.369  22.783  0.00  0.00    -0.327 NA
ATOM     21  H   UNL     1      10.087  -2.225  22.375  0.00  0.00    +0.118 HD
ATOM     22  H   UNL     1       9.048  -1.016  22.085  0.00  0.00    +0.118 HD
ENDBRANCH  19  20
BRANCH  19  23
ATOM     23  C   UNL     1       7.479  -2.054  23.746  0.00  0.00    +0.057 C 
BRANCH  23  24
ATOM     24  C   UNL     1       7.254  -3.421  23.145  0.00  0.00    -0.011 A 
ATOM     25  C   UNL     1       6.291  -3.602  22.146  0.00  0.00    +0.127 A 
ATOM     26  F   UNL     1       5.567  -2.559  21.715  0.00  0.00    -0.205 F 
ATOM     27  C   UNL     1       6.067  -4.849  21.572  0.00  0.00    +0.038 A 
ATOM     28  C   UNL     1       6.815  -5.946  21.994  0.00  0.00    +0.003 A 
ATOM     29  C   UNL     1       7.774  -5.789  22.994  0.00  0.00    +0.000 A 
ATOM     30  C   UNL     1       7.994  -4.535  23.572  0.00  0.00    +0.006 A 
ENDBRANCH  23  24
ENDBRANCH  19  23
ENDBRANCH  18  19
ENDBRANCH   1  18
TORSDOF 6
ENDMDL
MODEL 6
REMARK VINA RESULT:      -6.9      3.413      6.880
REMARK  Name = 
REMARK  6 active torsions:
REMARK  status: ('A' for Active; 'I' for Inactive)
REMARK    1  A    between atoms: C_2  and  N_3
REMARK    2  A    between atoms: C_2  and  C_4
REMARK    3  A    between atoms: C_2  and  C_21
REMARK    4  A    between atoms: C_4  and  C_5
REMARK    5  A    between atoms: C_16  and  C_18
REMARK    6  A    between atoms: C_21  and  C_22
REMARK                            x       y       z     vdW  Elec       q    Type
REMARK                         _______ _______ _______ _____ _____    ______ ____
ROOT
ATOM      1  C   UNL     1       7.939  -2.760  22.846  0.00  0.00    +0.218 C 
ATOM      2  N   UNL     1       7.826  -3.823  23.725  0.00  0.00    -0.285 N 
ATOM      3  C   UNL     1       8.067  -3.733  25.177  0.00  0.00    +0.166 C 
ATOM      4  C   UNL     1       6.711  -3.573  25.862  0.00  0.00    +0.067 C 
ATOM      5  C   UNL     1       5.764  -4.675  25.453  0.00  0.00    -0.040 A 
ATOM      6  C   UNL     1       5.957  -5.365  24.238  0.00  0.00    -0.027 A 
ATOM      7  C   UNL     1       5.088  -6.418  23.918  0.00  0.00    +0.005 A 
ATOM      8  C   UNL     1       4.039  -6.756  24.775  0.00  0.00    +0.000 A 
ATOM      9  C   UNL     1       3.834  -6.041  25.954  0.00  0.00    +0.000 A 
ATOM     10  C   UNL     1       4.691  -4.999  26.290  0.00  0.00    +0.004 A 
ATOM     11  C   UNL     1       7.105  -5.026  23.301  0.00  0.00    +0.144 C 
ATOM     12  O   UNL     1       7.542  -2.820  21.680  0.00  0.00    -0.276 OA
ENDROOT
BRANCH   3  13
ATOM     13  C   UNL     1       8.978  -4.895  25.647  0.00  0.00    +0.231 C 
ATOM     14  O   UNL     1      10.052  -5.156  25.099  0.00  0.00    -0.274 OA
ATOM     15  N   UNL     1       8.579  -5.646  26.715  0.00  0.00    -0.328 N 
ATOM     16  H   UNL     1       7.595  -5.771  26.921  0.00  0.00    +0.145 HD
ATOM     17  H   UNL     1       9.167  -6.448  26.913  0.00  0.00    +0.145 HD
ENDBRANCH   3  13
BRANCH   1  18
ATOM     18  C   UNL     1       8.577  -1.475  23.347  0.00  0.00    +0.114 C 
BRANCH  18  19
ATOM     19  C   UNL     1       9.184  -0.638  22.214  0.00  0.00    +0.064 C 
BRANCH  19  20
ATOM     20  N   UNL     1      10.136  -1.491  21.478  0.00  0.00    -0.327 NA
ATOM     21  H   UNL     1      10.514  -0.957  20.692  0.00  0.00    +0.118 HD
ATOM     22  H   UNL     1      10.942  -1.689  22.072  0.00  0.00    +0.118 HD
ENDBRANCH  19  20
BRANCH  19  23
ATOM     23  C   UNL     1       9.833   0.653  22.763  0.00  0.00    +0.057 C 
BRANCH  23  24
ATOM     24  C   UNL     1       8.938   1.868  22.693  0.00  0.00    -0.011 A 
ATOM     25  C   UNL     1       9.279   3.036  23.384  0.00  0.00    +0.127 A 
ATOM     26  F   UNL     1      10.407   3.083  24.107  0.00  0.00    -0.205 F 
ATOM     27  C   UNL     1       8.475   4.170  23.332  0.00  0.00    +0.038 A 
ATOM     28  C   UNL     1       7.305   4.151  22.577  0.00  0.00    +0.003 A 
ATOM     29  C   UNL     1       6.942   2.994  21.888  0.00  0.00    +0.000 A 
ATOM     30  C   UNL     1       7.750   1.855  21.945  0.00  0.00    +0.006 A 
ENDBRANCH  23  24
ENDBRANCH  19  23
ENDBRANCH  18  19
ENDBRANCH   1  18
TORSDOF 6
ENDMDL
MODEL 7
REMARK VINA RESULT:      -6.8      2.763      6.857
REMARK  Name = 
REMARK  6 active torsions:
REMARK  status: ('A' for Active; 'I' for Inactive)
REMARK    1  A    between atoms: C_2  and  N_3
REMARK    2  A    between atoms: C_2  and  C_4
REMARK    3  A    between atoms: C_2  and  C_21
REMARK    4  A    between atoms: C_4  and  C_5
REMARK    5  A    between atoms: C_16  and  C_18
REMARK    6  A    between atoms: C_21  and  C_22
REMARK                            x       y       z     vdW  Elec       q    Type
REMARK                         _______ _______ _______ _____ _____    ______ ____
ROOT
ATOM      1  C   UNL     1       7.456  -3.064  23.580  0.00  0.00    +0.218 C 
ATOM      2  N   UNL     1       7.242  -4.074  24.503  0.00  0.00    -0.285 N 
ATOM      3  C   UNL     1       7.191  -3.872  25.963  0.00  0.00    +0.166 C 
ATOM      4  C   UNL     1       5.721  -3.773  26.366  0.00  0.00    +0.067 C 
ATOM      5  C   UNL     1       4.943  -4.967  25.873  0.00  0.00    -0.040 A 
ATOM      6  C   UNL     1       5.409  -5.718  24.774  0.00  0.00    -0.027 A 
ATOM      7  C   UNL     1       4.686  -6.853  24.379  0.00  0.00    +0.005 A 
ATOM      8  C   UNL     1       3.515  -7.215  25.047  0.00  0.00    +0.000 A 
ATOM      9  C   UNL     1       3.042  -6.442  26.107  0.00  0.00    +0.000 A 
ATOM     10  C   UNL     1       3.750  -5.318  26.515  0.00  0.00    +0.004 A 
ATOM     11  C   UNL     1       6.693  -5.353  24.046  0.00  0.00    +0.144 C 
ATOM     12  O   UNL     1       7.297  -3.230  22.369  0.00  0.00    -0.276 OA
ENDROOT
BRANCH   3  13
ATOM     13  C   UNL     1       8.066  -4.929  26.685  0.00  0.00    +0.231 C 
ATOM     14  O   UNL     1       7.619  -5.664  27.569  0.00  0.00    -0.274 OA
ATOM     15  N   UNL     1       9.374  -5.056  26.315  0.00  0.00    -0.328 N 
ATOM     16  H   UNL     1       9.886  -4.264  25.947  0.00  0.00    +0.145 HD
ATOM     17  H   UNL     1       9.916  -5.693  26.887  0.00  0.00    +0.145 HD
ENDBRANCH   3  13
BRANCH   1  18
ATOM     18  C   UNL     1       7.903  -1.705  24.090  0.00  0.00    +0.114 C 
BRANCH  18  19
ATOM     19  C   UNL     1       9.406  -1.469  23.898  0.00  0.00    +0.064 C 
BRANCH  19  20
ATOM     20  N   UNL     1      10.080  -2.781  23.929  0.00  0.00    -0.327 NA
ATOM     21  H   UNL     1      10.848  -2.738  24.603  0.00  0.00    +0.118 HD
ATOM     22  H   UNL     1       9.440  -3.481  24.305  0.00  0.00    +0.118 HD
ENDBRANCH  19  20
BRANCH  19  23
ATOM     23  C   UNL     1       9.955  -0.485  24.957  0.00  0.00    +0.057 C 
BRANCH  23  24
ATOM     24  C   UNL     1       9.794   0.970  24.585  0.00  0.00    -0.011 A 
ATOM     25  C   UNL     1       8.733   1.718  25.106  0.00  0.00    +0.127 A 
ATOM     26  F   UNL     1       7.856   1.145  25.944  0.00  0.00    -0.205 F 
ATOM     27  C   UNL     1       8.565   3.061  24.785  0.00  0.00    +0.038 A 
ATOM     28  C   UNL     1       9.469   3.682  23.927  0.00  0.00    +0.003 A 
ATOM     29  C   UNL     1      10.530   2.952  23.389  0.00  0.00    +0.000 A 
ATOM     30  C   UNL     1      10.694   1.602  23.712  0.00  0.00    +0.006 A 
ENDBRANCH  23  24
ENDBRANCH  19  23
ENDBRANCH  18  19
ENDBRANCH   1  18
TORSDOF 6
ENDMDL
MODEL 8
REMARK VINA RESULT:      -6.7      2.536      4.407
REMARK  Name = 
REMARK  6 active torsions:
REMARK  status: ('A' for Active; 'I' for Inactive)
REMARK    1  A    between atoms: C_2  and  N_3
REMARK    2  A    between atoms: C_2  and  C_4
REMARK    3  A    between atoms: C_2  and  C_21
REMARK    4  A    between atoms: C_4  and  C_5
REMARK    5  A    between atoms: C_16  and  C_18
REMARK    6  A    between atoms: C_21  and  C_22
REMARK                            x       y       z     vdW  Elec       q    Type
REMARK                         _______ _______ _______ _____ _____    ______ ____
ROOT
ATOM      1  C   UNL     1       9.241  -3.211  24.822  0.00  0.00    +0.218 C 
ATOM      2  N   UNL     1       8.565  -2.117  24.311  0.00  0.00    -0.285 N 
ATOM      3  C   UNL     1       7.661  -1.255  25.094  0.00  0.00    +0.166 C 
ATOM      4  C   UNL     1       8.455  -0.025  25.530  0.00  0.00    +0.067 C 
ATOM      5  C   UNL     1       9.095   0.655  24.344  0.00  0.00    -0.040 A 
ATOM      6  C   UNL     1       9.348  -0.067  23.160  0.00  0.00    -0.027 A 
ATOM      7  C   UNL     1       9.894   0.612  22.061  0.00  0.00    +0.005 A 
ATOM      8  C   UNL     1      10.202   1.971  22.151  0.00  0.00    +0.000 A 
ATOM      9  C   UNL     1       9.985   2.665  23.339  0.00  0.00    +0.000 A 
ATOM     10  C   UNL     1       9.438   2.008  24.435  0.00  0.00    +0.004 A 
ATOM     11  C   UNL     1       9.000  -1.542  23.034  0.00  0.00    +0.144 C 
ATOM     12  O   UNL     1      10.135  -3.788  24.198  0.00  0.00    -0.276 OA
ENDROOT
BRANCH   3  13
ATOM     13  C   UNL     1       6.336  -1.020  24.324  0.00  0.00    +0.231 C 
ATOM     14  O   UNL     1       5.698  -1.943  23.810  0.00  0.00    -0.274 OA
ATOM     15  N   UNL     1       5.855   0.254  24.227  0.00  0.00    -0.328 N 
ATOM     16  H   UNL     1       6.486   1.046  24.233  0.00  0.00    +0.145 HD
ATOM     17  H   UNL     1       5.041   0.355  23.631  0.00  0.00    +0.145 HD
ENDBRANCH   3  13
BRANCH   1  18
ATOM     18  C   UNL     1       8.860  -3.712  26.204  0.00  0.00    +0.114 C 
BRANCH  18  19
ATOM     19  C   UNL     1       8.211  -5.101  26.169  0.00  0.00    +0.064 C 
BRANCH  19  20
ATOM     20  N   UNL     1       9.238  -6.072  25.747  0.00  0.00    -0.327 NA
ATOM     21  H   UNL     1       9.949  -5.580  25.202  0.00  0.00    +0.118 HD
ATOM     22  H   UNL     1       9.732  -6.421  26.570  0.00  0.00    +0.118 HD
ENDBRANCH  19  20
BRANCH  19  23
ATOM     23  C   UNL     1       6.964  -5.110  25.255  0.00  0.00    +0.057 C 
BRANCH  23  24
ATOM     24  C   UNL     1       5.667  -5.358  25.990  0.00  0.00    -0.011 A 
ATOM     25  C   UNL     1       5.092  -4.346  26.767  0.00  0.00    +0.127 A 
ATOM     26  F   UNL     1       5.689  -3.149  26.858  0.00  0.00    -0.205 F 
ATOM     27  C   UNL     1       3.896  -4.546  27.448  0.00  0.00    +0.038 A 
ATOM     28  C   UNL     1       3.249  -5.776  27.358  0.00  0.00    +0.003 A 
ATOM     29  C   UNL     1       3.810  -6.801  26.595  0.00  0.00    +0.000 A 
ATOM     30  C   UNL     1       5.014  -6.598  25.915  0.00  0.00    +0.006 A 
ENDBRANCH  23  24
ENDBRANCH  19  23
ENDBRANCH  18  19
ENDBRANCH   1  18
TORSDOF 6
ENDMDL
MODEL 9
REMARK VINA RESULT:      -6.7      3.142      6.714
REMARK  Name = 
REMARK  6 active torsions:
REMARK  status: ('A' for Active; 'I' for Inactive)
REMARK    1  A    between atoms: C_2  and  N_3
REMARK    2  A    between atoms: C_2  and  C_4
REMARK    3  A    between atoms: C_2  and  C_21
REMARK    4  A    between atoms: C_4  and  C_5
REMARK    5  A    between atoms: C_16  and  C_18
REMARK    6  A    between atoms: C_21  and  C_22
REMARK                            x       y       z     vdW  Elec       q    Type
REMARK                         _______ _______ _______ _____ _____    ______ ____
ROOT
ATOM      1  C   UNL     1       9.121  -2.339  23.362  0.00  0.00    +0.218 C 
ATOM      2  N   UNL     1       8.547  -3.472  23.912  0.00  0.00    -0.285 N 
ATOM      3  C   UNL     1       8.242  -3.640  25.345  0.00  0.00    +0.166 C 
ATOM      4  C   UNL     1       6.764  -3.312  25.546  0.00  0.00    +0.067 C 
ATOM      5  C   UNL     1       5.897  -4.131  24.622  0.00  0.00    -0.040 A 
ATOM      6  C   UNL     1       6.431  -4.666  23.431  0.00  0.00    -0.027 A 
ATOM      7  C   UNL     1       5.609  -5.467  22.625  0.00  0.00    +0.005 A 
ATOM      8  C   UNL     1       4.282  -5.708  22.986  0.00  0.00    +0.000 A 
ATOM      9  C   UNL     1       3.754  -5.141  24.145  0.00  0.00    +0.000 A 
ATOM     10  C   UNL     1       4.556  -4.351  24.958  0.00  0.00    +0.004 A 
ATOM     11  C   UNL     1       7.879  -4.433  23.031  0.00  0.00    +0.144 C 
ATOM     12  O   UNL     1       9.180  -2.151  22.145  0.00  0.00    -0.276 OA
ENDROOT
BRANCH   3  13
ATOM     13  C   UNL     1       8.748  -5.016  25.847  0.00  0.00    +0.231 C 
ATOM     14  O   UNL     1       8.018  -5.812  26.443  0.00  0.00    -0.274 OA
ATOM     15  N   UNL     1      10.047  -5.362  25.605  0.00  0.00    -0.328 N 
ATOM     16  H   UNL     1      10.765  -4.651  25.526  0.00  0.00    +0.145 HD
ATOM     17  H   UNL     1      10.343  -6.228  26.041  0.00  0.00    +0.145 HD
ENDBRANCH   3  13
BRANCH   1  18
ATOM     18  C   UNL     1       9.694  -1.292  24.302  0.00  0.00    +0.114 C 
BRANCH  18  19
ATOM     19  C   UNL     1       8.941   0.042  24.229  0.00  0.00    +0.064 C 
BRANCH  19  20
ATOM     20  N   UNL     1       7.521  -0.252  23.956  0.00  0.00    -0.327 NA
ATOM     21  H   UNL     1       7.147  -0.804  24.731  0.00  0.00    +0.118 HD
ATOM     22  H   UNL     1       6.987   0.617  23.971  0.00  0.00    +0.118 HD
ENDBRANCH  19  20
BRANCH  19  23
ATOM     23  C   UNL     1       9.574   0.981  23.176  0.00  0.00    +0.057 C 
BRANCH  23  24
ATOM     24  C   UNL     1       9.004   2.381  23.182  0.00  0.00    -0.011 A 
ATOM     25  C   UNL     1       8.031   2.748  22.247  0.00  0.00    +0.127 A 
ATOM     26  F   UNL     1       7.595   1.857  21.345  0.00  0.00    -0.205 F 
ATOM     27  C   UNL     1       7.485   4.028  22.234  0.00  0.00    +0.038 A 
ATOM     28  C   UNL     1       7.912   4.969  23.168  0.00  0.00    +0.003 A 
ATOM     29  C   UNL     1       8.888   4.624  24.103  0.00  0.00    +0.000 A 
ATOM     30  C   UNL     1       9.437   3.339  24.112  0.00  0.00    +0.006 A 
ENDBRANCH  23  24
ENDBRANCH  19  23
ENDBRANCH  18  19
ENDBRANCH   1  18
TORSDOF 6
ENDMDL
