MODEL 1
REMARK VINA RESULT:      -3.8      0.000      0.000
REMARK  Name = 
REMARK  7 active torsions:
REMARK  status: ('A' for Active; 'I' for Inactive)
REMARK    1  A    between atoms: C_1  and  S_2
REMARK    2  A    between atoms: S_2  and  C_3
REMARK    3  A    between atoms: C_3  and  C_4
REMARK    4  A    between atoms: C_4  and  C_5
REMARK    5  A    between atoms: C_5  and  N_7
REMARK    6  A    between atoms: C_5  and  P_8
REMARK    7  A    between atoms: P_8  and  O_9
REMARK                            x       y       z     vdW  Elec       q    Type
REMARK                         _______ _______ _______ _____ _____    ______ ____
ROOT
ATOM      1  C   UNL     1       9.264  -4.515  25.692  0.00  0.00    +0.136 C 
ENDROOT
BRANCH   1   2
ATOM      2  P   UNL     1       7.576  -5.190  25.906  0.00  0.00    +0.207 P 
ATOM      3  H   UNL     1       7.229  -3.867  26.251  0.00  0.00    +0.129 HD
ATOM      4  O   UNL     1       6.149  -5.761  26.086  0.00  0.00    -0.293 OA
BRANCH   2   5
ATOM      5  O   UNL     1       8.048  -5.764  27.394  0.00  0.00    -0.345 OA
ATOM      6  H   UNL     1       7.372  -5.451  28.034  0.00  0.00    +0.217 HD
ENDBRANCH   2   5
ENDBRANCH   1   2
BRANCH   1   7
ATOM      7  N   UNL     1      10.095  -5.657  25.267  0.00  0.00    -0.320 NA
ATOM      8  H   UNL     1      10.765  -5.877  26.004  0.00  0.00    +0.119 HD
ATOM      9  H   UNL     1       9.463  -6.470  25.228  0.00  0.00    +0.119 HD
ENDBRANCH   1   7
BRANCH   1  10
ATOM     10  C   UNL     1       9.323  -3.370  24.677  0.00  0.00    +0.039 C 
BRANCH  10  11
ATOM     11  C   UNL     1       8.278  -3.489  23.563  0.00  0.00    +0.071 C 
BRANCH  11  13
ATOM     12  C   UNL     1      10.187  -1.691  22.720  0.00  0.00    +0.084 C 
ATOM     13  S   UNL     1       8.448  -2.085  22.415  0.00  0.00    -0.164 S 
ENDBRANCH  11  13
ENDBRANCH  10  11
ENDBRANCH   1  10
TORSDOF 6
ENDMDL
MODEL 2
REMARK VINA RESULT:      -3.8      2.358      2.899
REMARK  Name = 
REMARK  7 active torsions:
REMARK  status: ('A' for Active; 'I' for Inactive)
REMARK    1  A    between atoms: C_1  and  S_2
REMARK    2  A    between atoms: S_2  and  C_3
REMARK    3  A    between atoms: C_3  and  C_4
REMARK    4  A    between atoms: C_4  and  C_5
REMARK    5  A    between atoms: C_5  and  N_7
REMARK    6  A    between atoms: C_5  and  P_8
REMARK    7  A    between atoms: P_8  and  O_9
REMARK                            x       y       z     vdW  Elec       q    Type
REMARK                         _______ _______ _______ _____ _____    ______ ____
ROOT
ATOM      1  C   UNL     1       8.740  -4.677  24.780  0.00  0.00    +0.136 C 
ENDROOT
BRANCH   1   2
ATOM      2  P   UNL     1       7.935  -5.015  26.388  0.00  0.00    +0.207 P 
ATOM      3  H   UNL     1       7.530  -3.666  26.323  0.00  0.00    +0.129 HD
ATOM      4  O   UNL     1       7.254  -5.301  27.748  0.00  0.00    -0.293 OA
BRANCH   2   5
ATOM      5  O   UNL     1       9.422  -4.837  27.114  0.00  0.00    -0.345 OA
ATOM      6  H   UNL     1       9.690  -5.734  27.410  0.00  0.00    +0.217 HD
ENDBRANCH   2   5
ENDBRANCH   1   2
BRANCH   1   7
ATOM      7  N   UNL     1      10.026  -5.400  24.823  0.00  0.00    -0.320 NA
ATOM      8  H   UNL     1      10.788  -4.736  24.685  0.00  0.00    +0.119 HD
ATOM      9  H   UNL     1      10.132  -5.734  25.791  0.00  0.00    +0.119 HD
ENDBRANCH   1   7
BRANCH   1  10
ATOM     10  C   UNL     1       7.890  -5.115  23.585  0.00  0.00    +0.039 C 
BRANCH  10  11
ATOM     11  C   UNL     1       6.451  -4.594  23.637  0.00  0.00    +0.071 C 
BRANCH  11  13
ATOM     12  C   UNL     1       6.327  -5.693  21.115  0.00  0.00    +0.084 C 
ATOM     13  S   UNL     1       5.372  -5.681  22.651  0.00  0.00    -0.164 S 
ENDBRANCH  11  13
ENDBRANCH  10  11
ENDBRANCH   1  10
TORSDOF 6
ENDMDL
MODEL 3
REMARK VINA RESULT:      -3.7      3.386      3.620
REMARK  Name = 
REMARK  7 active torsions:
REMARK  status: ('A' for Active; 'I' for Inactive)
REMARK    1  A    between atoms: C_1  and  S_2
REMARK    2  A    between atoms: S_2  and  C_3
REMARK    3  A    between atoms: C_3  and  C_4
REMARK    4  A    between atoms: C_4  and  C_5
REMARK    5  A    between atoms: C_5  and  N_7
REMARK    6  A    between atoms: C_5  and  P_8
REMARK    7  A    between atoms: P_8  and  O_9
REMARK                            x       y       z     vdW  Elec       q    Type
REMARK                         _______ _______ _______ _____ _____    ______ ____
ROOT
ATOM      1  C   UNL     1       7.799  -5.584  25.773  0.00  0.00    +0.136 C 
ENDROOT
BRANCH   1   2
ATOM      2  P   UNL     1       9.032  -4.498  24.967  0.00  0.00    +0.207 P 
ATOM      3  H   UNL     1       8.530  -5.035  23.764  0.00  0.00    +0.129 HD
ATOM      4  O   UNL     1      10.075  -3.579  24.286  0.00  0.00    -0.293 OA
BRANCH   2   5
ATOM      5  O   UNL     1      10.194  -5.632  25.329  0.00  0.00    -0.345 OA
ATOM      6  H   UNL     1      10.498  -5.430  26.241  0.00  0.00    +0.217 HD
ENDBRANCH   2   5
ENDBRANCH   1   2
BRANCH   1   7
ATOM      7  N   UNL     1       8.102  -5.524  27.215  0.00  0.00    -0.320 NA
ATOM      8  H   UNL     1       7.245  -5.683  27.745  0.00  0.00    +0.119 HD
ATOM      9  H   UNL     1       8.697  -6.341  27.415  0.00  0.00    +0.119 HD
ENDBRANCH   1   7
BRANCH   1  10
ATOM     10  C   UNL     1       6.356  -5.162  25.484  0.00  0.00    +0.039 C 
BRANCH  10  11
ATOM     11  C   UNL     1       6.172  -4.520  24.106  0.00  0.00    +0.071 C 
BRANCH  11  13
ATOM     12  C   UNL     1       6.956  -6.060  21.962  0.00  0.00    +0.084 C 
ATOM     13  S   UNL     1       5.475  -5.743  22.951  0.00  0.00    -0.164 S 
ENDBRANCH  11  13
ENDBRANCH  10  11
ENDBRANCH   1  10
TORSDOF 6
ENDMDL
MODEL 4
REMARK VINA RESULT:      -3.5      5.553      6.138
REMARK  Name = 
REMARK  7 active torsions:
REMARK  status: ('A' for Active; 'I' for Inactive)
REMARK    1  A    between atoms: C_1  and  S_2
REMARK    2  A    between atoms: S_2  and  C_3
REMARK    3  A    between atoms: C_3  and  C_4
REMARK    4  A    between atoms: C_4  and  C_5
REMARK    5  A    between atoms: C_5  and  N_7
REMARK    6  A    between atoms: C_5  and  P_8
REMARK    7  A    between atoms: P_8  and  O_9
REMARK                            x       y       z     vdW  Elec       q    Type
REMARK                         _______ _______ _______ _____ _____    ______ ____
ROOT
ATOM      1  C   UNL     1       9.789   0.711  21.830  0.00  0.00    +0.136 C 
ENDROOT
BRANCH   1   2
ATOM      2  P   UNL     1       9.013  -0.913  22.161  0.00  0.00    +0.207 P 
ATOM      3  H   UNL     1       9.328  -0.644  23.509  0.00  0.00    +0.129 HD
ATOM      4  O   UNL     1       8.357  -2.287  22.441  0.00  0.00    -0.293 OA
BRANCH   2   5
ATOM      5  O   UNL     1      10.430  -1.634  21.671  0.00  0.00    -0.345 OA
ATOM      6  H   UNL     1      11.131  -1.296  22.271  0.00  0.00    +0.217 HD
ENDBRANCH   2   5
ENDBRANCH   1   2
BRANCH   1   7
ATOM      7  N   UNL     1       8.767   1.497  21.113  0.00  0.00    -0.320 NA
ATOM      8  H   UNL     1       8.205   2.014  21.791  0.00  0.00    +0.119 HD
ATOM      9  H   UNL     1       9.281   2.217  20.586  0.00  0.00    +0.119 HD
ENDBRANCH   1   7
BRANCH   1  10
ATOM     10  C   UNL     1      10.251   1.421  23.105  0.00  0.00    +0.039 C 
BRANCH  10  11
ATOM     11  C   UNL     1       9.473   0.997  24.355  0.00  0.00    +0.071 C 
BRANCH  11  13
ATOM     12  C   UNL     1       9.237   3.728  24.089  0.00  0.00    +0.084 C 
ATOM     13  S   UNL     1       8.369   2.349  24.875  0.00  0.00    -0.164 S 
ENDBRANCH  11  13
ENDBRANCH  10  11
ENDBRANCH   1  10
TORSDOF 6
ENDMDL
MODEL 5
REMARK VINA RESULT:      -3.5      5.851      6.308
REMARK  Name = 
REMARK  7 active torsions:
REMARK  status: ('A' for Active; 'I' for Inactive)
REMARK    1  A    between atoms: C_1  and  S_2
REMARK    2  A    between atoms: S_2  and  C_3
REMARK    3  A    between atoms: C_3  and  C_4
REMARK    4  A    between atoms: C_4  and  C_5
REMARK    5  A    between atoms: C_5  and  N_7
REMARK    6  A    between atoms: C_5  and  P_8
REMARK    7  A    between atoms: P_8  and  O_9
REMARK                            x       y       z     vdW  Elec       q    Type
REMARK                         _______ _______ _______ _____ _____    ______ ____
ROOT
ATOM      1  C   UNL     1      10.358   0.791  23.485  0.00  0.00    +0.136 C 
ENDROOT
BRANCH   1   2
ATOM      2  P   UNL     1       9.067   1.666  22.528  0.00  0.00    +0.207 P 
ATOM      3  H   UNL     1       8.903   0.433  21.865  0.00  0.00    +0.129 HD
ATOM      4  O   UNL     1       7.974   2.407  21.719  0.00  0.00    -0.293 OA
BRANCH   2   5
ATOM      5  O   UNL     1      10.276   2.336  21.602  0.00  0.00    -0.345 OA
ATOM      6  H   UNL     1      10.154   1.979  20.695  0.00  0.00    +0.217 HD
ENDBRANCH   2   5
ENDBRANCH   1   2
BRANCH   1   7
ATOM      7  N   UNL     1      10.068   1.085  24.901  0.00  0.00    -0.320 NA
ATOM      8  H   UNL     1       9.087   1.353  24.993  0.00  0.00    +0.119 HD
ATOM      9  H   UNL     1      10.150   0.188  25.400  0.00  0.00    +0.119 HD
ENDBRANCH   1   7
BRANCH   1  10
ATOM     10  C   UNL     1      10.378  -0.716  23.217  0.00  0.00    +0.039 C 
BRANCH  10  11
ATOM     11  C   UNL     1       9.544  -1.131  22.002  0.00  0.00    +0.071 C 
BRANCH  11  13
ATOM     12  C   UNL     1       9.112  -2.991  23.986  0.00  0.00    +0.084 C 
ATOM     13  S   UNL     1       8.287  -2.347  22.510  0.00  0.00    -0.164 S 
ENDBRANCH  11  13
ENDBRANCH  10  11
ENDBRANCH   1  10
TORSDOF 6
ENDMDL
MODEL 6
REMARK VINA RESULT:      -3.4      5.598      6.111
REMARK  Name = 
REMARK  7 active torsions:
REMARK  status: ('A' for Active; 'I' for Inactive)
REMARK    1  A    between atoms: C_1  and  S_2
REMARK    2  A    between atoms: S_2  and  C_3
REMARK    3  A    between atoms: C_3  and  C_4
REMARK    4  A    between atoms: C_4  and  C_5
REMARK    5  A    between atoms: C_5  and  N_7
REMARK    6  A    between atoms: C_5  and  P_8
REMARK    7  A    between atoms: P_8  and  O_9
REMARK                            x       y       z     vdW  Elec       q    Type
REMARK                         _______ _______ _______ _____ _____    ______ ____
ROOT
ATOM      1  C   UNL     1       9.074  -0.440  21.856  0.00  0.00    +0.136 C 
ENDROOT
BRANCH   1   2
ATOM      2  P   UNL     1       9.922   0.900  22.769  0.00  0.00    +0.207 P 
ATOM      3  H   UNL     1       8.670   1.096  23.387  0.00  0.00    +0.129 HD
ATOM      4  O   UNL     1      10.640   2.033  23.542  0.00  0.00    -0.293 OA
BRANCH   2   5
ATOM      5  O   UNL     1       9.738   1.865  21.427  0.00  0.00    -0.345 OA
ATOM      6  H   UNL     1      10.605   2.303  21.284  0.00  0.00    +0.217 HD
ENDBRANCH   2   5
ENDBRANCH   1   2
BRANCH   1   7
ATOM      7  N   UNL     1      10.139  -1.378  21.452  0.00  0.00    -0.320 NA
ATOM      8  H   UNL     1       9.738  -2.308  21.330  0.00  0.00    +0.119 HD
ATOM      9  H   UNL     1      10.431  -1.086  20.508  0.00  0.00    +0.119 HD
ENDBRANCH   1   7
BRANCH   1  10
ATOM     10  C   UNL     1       7.997  -1.140  22.689  0.00  0.00    +0.039 C 
BRANCH  10  11
ATOM     11  C   UNL     1       8.498  -2.404  23.394  0.00  0.00    +0.071 C 
BRANCH  11  13
ATOM     12  C   UNL     1       6.029  -2.840  22.254  0.00  0.00    +0.084 C 
ATOM     13  S   UNL     1       7.330  -3.770  23.099  0.00  0.00    -0.164 S 
ENDBRANCH  11  13
ENDBRANCH  10  11
ENDBRANCH   1  10
TORSDOF 6
ENDMDL
MODEL 7
REMARK VINA RESULT:      -3.4      7.160      7.672
REMARK  Name = 
REMARK  7 active torsions:
REMARK  status: ('A' for Active; 'I' for Inactive)
REMARK    1  A    between atoms: C_1  and  S_2
REMARK    2  A    between atoms: S_2  and  C_3
REMARK    3  A    between atoms: C_3  and  C_4
REMARK    4  A    between atoms: C_4  and  C_5
REMARK    5  A    between atoms: C_5  and  N_7
REMARK    6  A    between atoms: C_5  and  P_8
REMARK    7  A    between atoms: P_8  and  O_9
REMARK                            x       y       z     vdW  Elec       q    Type
REMARK                         _______ _______ _______ _____ _____    ______ ____
ROOT
ATOM      1  C   UNL     1      10.298   2.047  23.655  0.00  0.00    +0.136 C 
ENDROOT
BRANCH   1   2
ATOM      2  P   UNL     1       9.848   0.841  22.354  0.00  0.00    +0.207 P 
ATOM      3  H   UNL     1      11.240   0.691  22.190  0.00  0.00    +0.129 HD
ATOM      4  O   UNL     1       9.466  -0.180  21.254  0.00  0.00    -0.293 OA
BRANCH   2   5
ATOM      5  O   UNL     1       9.570   2.123  21.331  0.00  0.00    -0.345 OA
ATOM      6  H   UNL     1       9.760   2.934  21.851  0.00  0.00    +0.217 HD
ENDBRANCH   2   5
ENDBRANCH   1   2
BRANCH   1   7
ATOM      7  N   UNL     1      10.731   3.260  22.935  0.00  0.00    -0.320 NA
ATOM      8  H   UNL     1      11.488   3.018  22.295  0.00  0.00    +0.119 HD
ATOM      9  H   UNL     1       9.942   3.527  22.329  0.00  0.00    +0.119 HD
ENDBRANCH   1   7
BRANCH   1  10
ATOM     10  C   UNL     1       9.144   2.346  24.615  0.00  0.00    +0.039 C 
BRANCH  10  11
ATOM     11  C   UNL     1       8.668   3.801  24.560  0.00  0.00    +0.071 C 
BRANCH  11  13
ATOM     12  C   UNL     1       7.249   4.592  22.336  0.00  0.00    +0.084 C 
ATOM     13  S   UNL     1       6.948   3.858  23.962  0.00  0.00    -0.164 S 
ENDBRANCH  11  13
ENDBRANCH  10  11
ENDBRANCH   1  10
TORSDOF 6
ENDMDL
MODEL 8
REMARK VINA RESULT:      -3.4      6.484      6.910
REMARK  Name = 
REMARK  7 active torsions:
REMARK  status: ('A' for Active; 'I' for Inactive)
REMARK    1  A    between atoms: C_1  and  S_2
REMARK    2  A    between atoms: S_2  and  C_3
REMARK    3  A    between atoms: C_3  and  C_4
REMARK    4  A    between atoms: C_4  and  C_5
REMARK    5  A    between atoms: C_5  and  N_7
REMARK    6  A    between atoms: C_5  and  P_8
REMARK    7  A    between atoms: P_8  and  O_9
REMARK                            x       y       z     vdW  Elec       q    Type
REMARK                         _______ _______ _______ _____ _____    ______ ____
ROOT
ATOM      1  C   UNL     1       8.074   1.597  22.161  0.00  0.00    +0.136 C 
ENDROOT
BRANCH   1   2
ATOM      2  P   UNL     1       9.478   2.364  23.049  0.00  0.00    +0.207 P 
ATOM      3  H   UNL     1       8.779   3.572  22.847  0.00  0.00    +0.129 HD
ATOM      4  O   UNL     1      10.666   3.013  23.801  0.00  0.00    -0.293 OA
BRANCH   2   5
ATOM      5  O   UNL     1      10.349   2.291  21.633  0.00  0.00    -0.345 OA
ATOM      6  H   UNL     1      10.762   3.175  21.521  0.00  0.00    +0.217 HD
ENDBRANCH   2   5
ENDBRANCH   1   2
BRANCH   1   7
ATOM      7  N   UNL     1       8.590   1.263  20.820  0.00  0.00    -0.320 NA
ATOM      8  H   UNL     1       8.018   0.521  20.415  0.00  0.00    +0.119 HD
ATOM      9  H   UNL     1       8.411   2.090  20.233  0.00  0.00    +0.119 HD
ENDBRANCH   1   7
BRANCH   1  10
ATOM     10  C   UNL     1       7.524   0.358  22.874  0.00  0.00    +0.039 C 
BRANCH  10  11
ATOM     11  C   UNL     1       8.423  -0.142  24.008  0.00  0.00    +0.071 C 
BRANCH  11  13
ATOM     12  C   UNL     1      10.280  -1.504  22.497  0.00  0.00    +0.084 C 
ATOM     13  S   UNL     1       8.943  -1.854  23.665  0.00  0.00    -0.164 S 
ENDBRANCH  11  13
ENDBRANCH  10  11
ENDBRANCH   1  10
TORSDOF 6
ENDMDL
MODEL 9
REMARK VINA RESULT:      -3.4      3.942      4.598
REMARK  Name = 
REMARK  7 active torsions:
REMARK  status: ('A' for Active; 'I' for Inactive)
REMARK    1  A    between atoms: C_1  and  S_2
REMARK    2  A    between atoms: S_2  and  C_3
REMARK    3  A    between atoms: C_3  and  C_4
REMARK    4  A    between atoms: C_4  and  C_5
REMARK    5  A    between atoms: C_5  and  N_7
REMARK    6  A    between atoms: C_5  and  P_8
REMARK    7  A    between atoms: P_8  and  O_9
REMARK                            x       y       z     vdW  Elec       q    Type
REMARK                         _______ _______ _______ _____ _____    ______ ____
ROOT
ATOM      1  C   UNL     1      10.295  -1.223  22.833  0.00  0.00    +0.136 C 
ENDROOT
BRANCH   1   2
ATOM      2  P   UNL     1       9.006  -2.129  23.763  0.00  0.00    +0.207 P 
ATOM      3  H   UNL     1       9.325  -1.246  24.815  0.00  0.00    +0.129 HD
ATOM      4  O   UNL     1       7.915  -2.895  24.550  0.00  0.00    -0.293 OA
BRANCH   2   5
ATOM      5  O   UNL     1      10.122  -3.330  24.043  0.00  0.00    -0.345 OA
ATOM      6  H   UNL     1      10.444  -3.615  23.161  0.00  0.00    +0.217 HD
ENDBRANCH   2   5
ENDBRANCH   1   2
BRANCH   1   7
ATOM      7  N   UNL     1       9.997  -1.463  21.409  0.00  0.00    -0.320 NA
ATOM      8  H   UNL     1       9.235  -2.137  21.335  0.00  0.00    +0.119 HD
ATOM      9  H   UNL     1       9.610  -0.579  21.047  0.00  0.00    +0.119 HD
ENDBRANCH   1   7
BRANCH   1  10
ATOM     10  C   UNL     1      10.322   0.274  23.156  0.00  0.00    +0.039 C 
BRANCH  10  11
ATOM     11  C   UNL     1       9.923   1.160  21.973  0.00  0.00    +0.071 C 
BRANCH  11  13
ATOM     12  C   UNL     1       9.399   2.924  24.022  0.00  0.00    +0.084 C 
ATOM     13  S   UNL     1       8.629   2.330  22.496  0.00  0.00    -0.164 S 
ENDBRANCH  11  13
ENDBRANCH  10  11
ENDBRANCH   1  10
TORSDOF 6
ENDMDL
