MODEL 1
REMARK VINA RESULT:      -6.3      0.000      0.000
REMARK  Name = 
REMARK  7 active torsions:
REMARK  status: ('A' for Active; 'I' for Inactive)
REMARK    1  A    between atoms: C_2  and  C_17
REMARK    2  A    between atoms: N_6  and  S_7
REMARK    3  A    between atoms: S_7  and  C_10
REMARK    4  A    between atoms: C_13  and  C_14
REMARK    5  A    between atoms: N_19  and  C_20
REMARK    6  A    between atoms: C_20  and  C_21
REMARK    7  A    between atoms: C_21  and  S_22
REMARK                            x       y       z     vdW  Elec       q    Type
REMARK                         _______ _______ _______ _____ _____    ______ ____
ROOT
ATOM      1  C   UNL     1       9.556  -1.291  23.088  0.00  0.00    +0.165 C 
ATOM      2  N   UNL     1       8.604  -0.256  23.646  0.00  0.00    -0.165 NA
ATOM      3  C   UNL     1       8.207   0.641  22.517  0.00  0.00    +0.110 C 
ATOM      4  C   UNL     1       9.169   0.327  21.384  0.00  0.00    +0.019 C 
ATOM      5  C   UNL     1       9.427  -1.148  21.568  0.00  0.00    +0.031 C 
ENDROOT
BRANCH   1   6
ATOM      6  C   UNL     1       9.283  -2.746  23.469  0.00  0.00    +0.232 C 
ATOM      7  N   UNL     1       8.080  -3.279  23.069  0.00  0.00    -0.313 N 
ATOM      8  H   UNL     1       7.361  -2.639  22.732  0.00  0.00    +0.149 HD
ATOM      9  O   UNL     1      10.081  -3.399  24.143  0.00  0.00    -0.274 OA
BRANCH   7  10
ATOM     10  C   UNL     1       7.715  -4.650  23.385  0.00  0.00    +0.114 C 
BRANCH  10  11
ATOM     11  C   UNL     1       6.304  -5.033  22.939  0.00  0.00    +0.084 C 
BRANCH  11  12
ATOM     12  S   UNL     1       6.274  -5.571  21.198  0.00  0.00    -0.177 S 
ATOM     13  H   UNL     1       6.754  -6.806  21.417  0.00  0.00    +0.102 HD
ENDBRANCH  11  12
ENDBRANCH  10  11
ENDBRANCH   7  10
ENDBRANCH   1   6
BRANCH   2  14
ATOM     14  S   UNL     1       9.194   0.532  25.041  0.00  0.00    +0.062 S 
ATOM     15  O   UNL     1      10.536   0.046  25.274  0.00  0.00    -0.153 OA
ATOM     16  O   UNL     1       8.158   0.408  26.044  0.00  0.00    -0.153 OA
BRANCH  14  17
ATOM     17  C   UNL     1       9.278   2.243  24.557  0.00  0.00    +0.106 A 
ATOM     18  C   UNL     1      10.385   2.727  23.854  0.00  0.00    +0.029 A 
ATOM     19  C   UNL     1      10.441   4.080  23.502  0.00  0.00    +0.005 A 
ATOM     20  C   UNL     1       9.398   4.951  23.847  0.00  0.00    -0.050 A 
ATOM     21  C   UNL     1       9.467   6.399  23.452  0.00  0.00    +0.044 C 
ATOM     22  C   UNL     1       8.311   4.458  24.583  0.00  0.00    +0.005 A 
ATOM     23  C   UNL     1       8.248   3.106  24.940  0.00  0.00    +0.029 A 
ENDBRANCH  14  17
ENDBRANCH   2  14
TORSDOF 6
ENDMDL
MODEL 2
REMARK VINA RESULT:      -6.2      2.606      3.648
REMARK  Name = 
REMARK  7 active torsions:
REMARK  status: ('A' for Active; 'I' for Inactive)
REMARK    1  A    between atoms: C_2  and  C_17
REMARK    2  A    between atoms: N_6  and  S_7
REMARK    3  A    between atoms: S_7  and  C_10
REMARK    4  A    between atoms: C_13  and  C_14
REMARK    5  A    between atoms: N_19  and  C_20
REMARK    6  A    between atoms: C_20  and  C_21
REMARK    7  A    between atoms: C_21  and  S_22
REMARK                            x       y       z     vdW  Elec       q    Type
REMARK                         _______ _______ _______ _____ _____    ______ ____
ROOT
ATOM      1  C   UNL     1       7.741  -3.837  23.304  0.00  0.00    +0.165 C 
ATOM      2  N   UNL     1       8.047  -2.361  23.428  0.00  0.00    -0.165 NA
ATOM      3  C   UNL     1       6.831  -1.613  22.986  0.00  0.00    +0.110 C 
ATOM      4  C   UNL     1       5.940  -2.639  22.307  0.00  0.00    +0.019 C 
ATOM      5  C   UNL     1       6.224  -3.894  23.093  0.00  0.00    +0.031 C 
ENDROOT
BRANCH   1   6
ATOM      6  C   UNL     1       8.102  -4.714  24.503  0.00  0.00    +0.232 C 
ATOM      7  N   UNL     1       7.272  -4.645  25.597  0.00  0.00    -0.313 N 
ATOM      8  H   UNL     1       6.596  -3.883  25.639  0.00  0.00    +0.149 HD
ATOM      9  O   UNL     1       9.116  -5.414  24.511  0.00  0.00    -0.274 OA
BRANCH   7  10
ATOM     10  C   UNL     1       7.528  -5.430  26.794  0.00  0.00    +0.114 C 
BRANCH  10  11
ATOM     11  C   UNL     1       6.441  -5.303  27.861  0.00  0.00    +0.084 C 
BRANCH  11  12
ATOM     12  S   UNL     1       5.001  -6.352  27.479  0.00  0.00    -0.177 S 
ATOM     13  H   UNL     1       4.902  -6.914  28.694  0.00  0.00    +0.102 HD
ENDBRANCH  11  12
ENDBRANCH  10  11
ENDBRANCH   7  10
ENDBRANCH   1   6
BRANCH   2  14
ATOM     14  S   UNL     1       9.509  -1.903  22.675  0.00  0.00    +0.062 S 
ATOM     15  O   UNL     1       9.341  -2.103  21.252  0.00  0.00    -0.153 OA
ATOM     16  O   UNL     1      10.567  -2.560  23.411  0.00  0.00    -0.153 OA
BRANCH  14  17
ATOM     17  C   UNL     1       9.625  -0.157  23.001  0.00  0.00    +0.106 A 
ATOM     18  C   UNL     1       9.650   0.318  24.315  0.00  0.00    +0.029 A 
ATOM     19  C   UNL     1       9.720   1.696  24.550  0.00  0.00    +0.005 A 
ATOM     20  C   UNL     1       9.766   2.600  23.481  0.00  0.00    -0.050 A 
ATOM     21  C   UNL     1       9.852   4.076  23.748  0.00  0.00    +0.044 C 
ATOM     22  C   UNL     1       9.704   2.110  22.168  0.00  0.00    +0.005 A 
ATOM     23  C   UNL     1       9.633   0.734  21.925  0.00  0.00    +0.029 A 
ENDBRANCH  14  17
ENDBRANCH   2  14
TORSDOF 6
ENDMDL
MODEL 3
REMARK VINA RESULT:      -6.2      2.026      7.016
REMARK  Name = 
REMARK  7 active torsions:
REMARK  status: ('A' for Active; 'I' for Inactive)
REMARK    1  A    between atoms: C_2  and  C_17
REMARK    2  A    between atoms: N_6  and  S_7
REMARK    3  A    between atoms: S_7  and  C_10
REMARK    4  A    between atoms: C_13  and  C_14
REMARK    5  A    between atoms: N_19  and  C_20
REMARK    6  A    between atoms: C_20  and  C_21
REMARK    7  A    between atoms: C_21  and  S_22
REMARK                            x       y       z     vdW  Elec       q    Type
REMARK                         _______ _______ _______ _____ _____    ______ ____
ROOT
ATOM      1  C   UNL     1       9.020   0.522  23.189  0.00  0.00    +0.165 C 
ATOM      2  N   UNL     1       9.423  -0.731  23.935  0.00  0.00    -0.165 NA
ATOM      3  C   UNL     1      10.115  -1.628  22.959  0.00  0.00    +0.110 C 
ATOM      4  C   UNL     1       9.832  -1.042  21.587  0.00  0.00    +0.019 C 
ATOM      5  C   UNL     1       9.786   0.440  21.864  0.00  0.00    +0.031 C 
ENDROOT
BRANCH   1   6
ATOM      6  C   UNL     1       9.348   1.854  23.863  0.00  0.00    +0.232 C 
ATOM      7  N   UNL     1       8.291   2.572  24.370  0.00  0.00    -0.313 N 
ATOM      8  H   UNL     1       7.348   2.295  24.097  0.00  0.00    +0.149 HD
ATOM      9  O   UNL     1      10.500   2.289  23.910  0.00  0.00    -0.274 OA
BRANCH   7  10
ATOM     10  C   UNL     1       8.489   3.856  25.023  0.00  0.00    +0.114 C 
BRANCH  10  11
ATOM     11  C   UNL     1       8.262   5.058  24.107  0.00  0.00    +0.084 C 
BRANCH  11  12
ATOM     12  S   UNL     1       9.798   6.004  23.849  0.00  0.00    -0.177 S 
ATOM     13  H   UNL     1      10.142   6.081  25.145  0.00  0.00    +0.102 HD
ENDBRANCH  11  12
ENDBRANCH  10  11
ENDBRANCH   7  10
ENDBRANCH   1   6
BRANCH   2  14
ATOM     14  S   UNL     1       8.144  -1.443  24.812  0.00  0.00    +0.062 S 
ATOM     15  O   UNL     1       7.115  -0.438  24.966  0.00  0.00    -0.153 OA
ATOM     16  O   UNL     1       8.749  -2.088  25.958  0.00  0.00    -0.153 OA
BRANCH  14  17
ATOM     17  C   UNL     1       7.544  -2.719  23.726  0.00  0.00    +0.106 A 
ATOM     18  C   UNL     1       6.608  -2.421  22.731  0.00  0.00    +0.029 A 
ATOM     19  C   UNL     1       6.134  -3.443  21.901  0.00  0.00    +0.005 A 
ATOM     20  C   UNL     1       6.589  -4.759  22.058  0.00  0.00    -0.050 A 
ATOM     21  C   UNL     1       6.079  -5.844  21.153  0.00  0.00    +0.044 C 
ATOM     22  C   UNL     1       7.500  -5.049  23.084  0.00  0.00    +0.005 A 
ATOM     23  C   UNL     1       7.979  -4.032  23.919  0.00  0.00    +0.029 A 
ENDBRANCH  14  17
ENDBRANCH   2  14
TORSDOF 6
ENDMDL
MODEL 4
REMARK VINA RESULT:      -6.1      2.681      7.081
REMARK  Name = 
REMARK  7 active torsions:
REMARK  status: ('A' for Active; 'I' for Inactive)
REMARK    1  A    between atoms: C_2  and  C_17
REMARK    2  A    between atoms: N_6  and  S_7
REMARK    3  A    between atoms: S_7  and  C_10
REMARK    4  A    between atoms: C_13  and  C_14
REMARK    5  A    between atoms: N_19  and  C_20
REMARK    6  A    between atoms: C_20  and  C_21
REMARK    7  A    between atoms: C_21  and  S_22
REMARK                            x       y       z     vdW  Elec       q    Type
REMARK                         _______ _______ _______ _____ _____    ______ ____
ROOT
ATOM      1  C   UNL     1       9.502   1.315  22.737  0.00  0.00    +0.165 C 
ATOM      2  N   UNL     1       9.302  -0.023  23.412  0.00  0.00    -0.165 NA
ATOM      3  C   UNL     1      10.222  -0.072  24.589  0.00  0.00    +0.110 C 
ATOM      4  C   UNL     1      11.178   1.094  24.414  0.00  0.00    +0.019 C 
ATOM      5  C   UNL     1      10.313   2.134  23.748  0.00  0.00    +0.031 C 
ENDROOT
BRANCH   1   6
ATOM      6  C   UNL     1       8.238   2.095  22.376  0.00  0.00    +0.232 C 
ATOM      7  N   UNL     1       8.292   3.462  22.506  0.00  0.00    -0.313 N 
ATOM      8  H   UNL     1       9.075   3.865  23.020  0.00  0.00    +0.149 HD
ATOM      9  O   UNL     1       7.202   1.524  22.030  0.00  0.00    -0.274 OA
BRANCH   7  10
ATOM     10  C   UNL     1       7.143   4.299  22.198  0.00  0.00    +0.114 C 
BRANCH  10  11
ATOM     11  C   UNL     1       7.479   5.784  22.057  0.00  0.00    +0.084 C 
BRANCH  11  12
ATOM     12  S   UNL     1       8.727   6.307  23.277  0.00  0.00    -0.177 S 
ATOM     13  H   UNL     1       9.475   5.194  23.210  0.00  0.00    +0.102 HD
ENDBRANCH  11  12
ENDBRANCH  10  11
ENDBRANCH   7  10
ENDBRANCH   1   6
BRANCH   2  14
ATOM     14  S   UNL     1       9.405  -1.349  22.340  0.00  0.00    +0.062 S 
ATOM     15  O   UNL     1      10.658  -2.020  22.605  0.00  0.00    -0.153 OA
ATOM     16  O   UNL     1       9.086  -0.832  21.027  0.00  0.00    -0.153 OA
BRANCH  14  17
ATOM     17  C   UNL     1       8.066  -2.407  22.846  0.00  0.00    +0.106 A 
ATOM     18  C   UNL     1       8.328  -3.629  23.472  0.00  0.00    +0.029 A 
ATOM     19  C   UNL     1       7.261  -4.456  23.843  0.00  0.00    +0.005 A 
ATOM     20  C   UNL     1       5.938  -4.070  23.593  0.00  0.00    -0.050 A 
ATOM     21  C   UNL     1       4.803  -4.963  24.006  0.00  0.00    +0.044 C 
ATOM     22  C   UNL     1       5.693  -2.857  22.931  0.00  0.00    +0.005 A 
ATOM     23  C   UNL     1       6.755  -2.025  22.557  0.00  0.00    +0.029 A 
ENDBRANCH  14  17
ENDBRANCH   2  14
TORSDOF 6
ENDMDL
MODEL 5
REMARK VINA RESULT:      -6.1      2.798      6.719
REMARK  Name = 
REMARK  7 active torsions:
REMARK  status: ('A' for Active; 'I' for Inactive)
REMARK    1  A    between atoms: C_2  and  C_17
REMARK    2  A    between atoms: N_6  and  S_7
REMARK    3  A    between atoms: S_7  and  C_10
REMARK    4  A    between atoms: C_13  and  C_14
REMARK    5  A    between atoms: N_19  and  C_20
REMARK    6  A    between atoms: C_20  and  C_21
REMARK    7  A    between atoms: C_21  and  S_22
REMARK                            x       y       z     vdW  Elec       q    Type
REMARK                         _______ _______ _______ _____ _____    ______ ____
ROOT
ATOM      1  C   UNL     1       8.292  -0.233  22.552  0.00  0.00    +0.165 C 
ATOM      2  N   UNL     1       8.662  -0.466  24.000  0.00  0.00    -0.165 NA
ATOM      3  C   UNL     1      10.044  -1.036  24.022  0.00  0.00    +0.110 C 
ATOM      4  C   UNL     1      10.350  -1.431  22.588  0.00  0.00    +0.019 C 
ATOM      5  C   UNL     1       9.615  -0.382  21.792  0.00  0.00    +0.031 C 
ENDROOT
BRANCH   1   6
ATOM      6  C   UNL     1       7.683   1.128  22.213  0.00  0.00    +0.232 C 
ATOM      7  N   UNL     1       6.452   1.411  22.756  0.00  0.00    -0.313 N 
ATOM      8  H   UNL     1       5.924   0.645  23.174  0.00  0.00    +0.149 HD
ATOM      9  O   UNL     1       8.244   1.916  21.451  0.00  0.00    -0.274 OA
BRANCH   7  10
ATOM     10  C   UNL     1       5.778   2.672  22.491  0.00  0.00    +0.114 C 
BRANCH  10  11
ATOM     11  C   UNL     1       6.133   3.783  23.479  0.00  0.00    +0.084 C 
BRANCH  11  12
ATOM     12  S   UNL     1       7.076   5.119  22.674  0.00  0.00    -0.177 S 
ATOM     13  H   UNL     1       8.277   4.763  23.157  0.00  0.00    +0.102 HD
ENDBRANCH  11  12
ENDBRANCH  10  11
ENDBRANCH   7  10
ENDBRANCH   1   6
BRANCH   2  14
ATOM     14  S   UNL     1       7.487  -1.347  24.870  0.00  0.00    +0.062 S 
ATOM     15  O   UNL     1       6.329  -0.492  25.017  0.00  0.00    -0.153 OA
ATOM     16  O   UNL     1       8.167  -1.904  26.019  0.00  0.00    -0.153 OA
BRANCH  14  17
ATOM     17  C   UNL     1       7.074  -2.692  23.781  0.00  0.00    +0.106 A 
ATOM     18  C   UNL     1       7.824  -3.872  23.796  0.00  0.00    +0.029 A 
ATOM     19  C   UNL     1       7.496  -4.910  22.916  0.00  0.00    +0.005 A 
ATOM     20  C   UNL     1       6.424  -4.777  22.024  0.00  0.00    -0.050 A 
ATOM     21  C   UNL     1       6.076  -5.904  21.093  0.00  0.00    +0.044 C 
ATOM     22  C   UNL     1       5.703  -3.574  21.996  0.00  0.00    +0.005 A 
ATOM     23  C   UNL     1       6.026  -2.531  22.872  0.00  0.00    +0.029 A 
ENDBRANCH  14  17
ENDBRANCH   2  14
TORSDOF 6
ENDMDL
MODEL 6
REMARK VINA RESULT:      -6.1      3.617      5.589
REMARK  Name = 
REMARK  7 active torsions:
REMARK  status: ('A' for Active; 'I' for Inactive)
REMARK    1  A    between atoms: C_2  and  C_17
REMARK    2  A    between atoms: N_6  and  S_7
REMARK    3  A    between atoms: S_7  and  C_10
REMARK    4  A    between atoms: C_13  and  C_14
REMARK    5  A    between atoms: N_19  and  C_20
REMARK    6  A    between atoms: C_20  and  C_21
REMARK    7  A    between atoms: C_21  and  S_22
REMARK                            x       y       z     vdW  Elec       q    Type
REMARK                         _______ _______ _______ _____ _____    ______ ____
ROOT
ATOM      1  C   UNL     1       6.761  -5.028  25.832  0.00  0.00    +0.165 C 
ATOM      2  N   UNL     1       7.598  -4.969  24.574  0.00  0.00    -0.165 NA
ATOM      3  C   UNL     1       9.032  -4.922  24.992  0.00  0.00    +0.110 C 
ATOM      4  C   UNL     1       9.017  -4.632  26.483  0.00  0.00    +0.019 C 
ATOM      5  C   UNL     1       7.768  -5.339  26.945  0.00  0.00    +0.031 C 
ENDROOT
BRANCH   1   6
ATOM      6  C   UNL     1       5.652  -6.079  25.868  0.00  0.00    +0.232 C 
ATOM      7  N   UNL     1       4.859  -6.185  24.750  0.00  0.00    -0.313 N 
ATOM      8  H   UNL     1       4.909  -5.441  24.054  0.00  0.00    +0.149 HD
ATOM      9  O   UNL     1       5.445  -6.769  26.868  0.00  0.00    -0.274 OA
BRANCH   7  10
ATOM     10  C   UNL     1       3.769  -7.146  24.681  0.00  0.00    +0.114 C 
BRANCH  10  11
ATOM     11  C   UNL     1       2.382  -6.517  24.798  0.00  0.00    +0.084 C 
BRANCH  11  12
ATOM     12  S   UNL     1       1.949  -5.563  23.306  0.00  0.00    -0.177 S 
ATOM     13  H   UNL     1       1.019  -6.418  22.851  0.00  0.00    +0.102 HD
ENDBRANCH  11  12
ENDBRANCH  10  11
ENDBRANCH   7  10
ENDBRANCH   1   6
BRANCH   2  14
ATOM     14  S   UNL     1       7.107  -3.748  23.485  0.00  0.00    +0.062 S 
ATOM     15  O   UNL     1       5.775  -3.337  23.873  0.00  0.00    -0.153 OA
ATOM     16  O   UNL     1       7.387  -4.253  22.159  0.00  0.00    -0.153 OA
BRANCH  14  17
ATOM     17  C   UNL     1       8.239  -2.413  23.808  0.00  0.00    +0.106 A 
ATOM     18  C   UNL     1       8.044  -1.570  24.906  0.00  0.00    +0.029 A 
ATOM     19  C   UNL     1       8.934  -0.513  25.130  0.00  0.00    +0.005 A 
ATOM     20  C   UNL     1      10.015  -0.295  24.266  0.00  0.00    -0.050 A 
ATOM     21  C   UNL     1      10.969   0.837  24.525  0.00  0.00    +0.044 C 
ATOM     22  C   UNL     1      10.176  -1.128  23.149  0.00  0.00    +0.005 A 
ATOM     23  C   UNL     1       9.290  -2.187  22.918  0.00  0.00    +0.029 A 
ENDBRANCH  14  17
ENDBRANCH   2  14
TORSDOF 6
ENDMDL
MODEL 7
REMARK VINA RESULT:      -6.0      3.009      7.543
REMARK  Name = 
REMARK  7 active torsions:
REMARK  status: ('A' for Active; 'I' for Inactive)
REMARK    1  A    between atoms: C_2  and  C_17
REMARK    2  A    between atoms: N_6  and  S_7
REMARK    3  A    between atoms: S_7  and  C_10
REMARK    4  A    between atoms: C_13  and  C_14
REMARK    5  A    between atoms: N_19  and  C_20
REMARK    6  A    between atoms: C_20  and  C_21
REMARK    7  A    between atoms: C_21  and  S_22
REMARK                            x       y       z     vdW  Elec       q    Type
REMARK                         _______ _______ _______ _____ _____    ______ ____
ROOT
ATOM      1  C   UNL     1       9.415  -1.785  25.014  0.00  0.00    +0.165 C 
ATOM      2  N   UNL     1       8.215  -2.668  25.277  0.00  0.00    -0.165 NA
ATOM      3  C   UNL     1       7.432  -2.039  26.384  0.00  0.00    +0.110 C 
ATOM      4  C   UNL     1       8.337  -0.974  26.977  0.00  0.00    +0.019 C 
ATOM      5  C   UNL     1       9.109  -0.490  25.774  0.00  0.00    +0.031 C 
ENDROOT
BRANCH   1   6
ATOM      6  C   UNL     1       9.703  -1.440  23.553  0.00  0.00    +0.232 C 
ATOM      7  N   UNL     1       9.007  -0.383  23.015  0.00  0.00    -0.313 N 
ATOM      8  H   UNL     1       8.205  -0.023  23.532  0.00  0.00    +0.149 HD
ATOM      9  O   UNL     1      10.486  -2.105  22.873  0.00  0.00    -0.274 OA
BRANCH   7  10
ATOM     10  C   UNL     1       9.197   0.025  21.632  0.00  0.00    +0.114 C 
BRANCH  10  11
ATOM     11  C   UNL     1       9.450   1.522  21.458  0.00  0.00    +0.084 C 
BRANCH  11  12
ATOM     12  S   UNL     1      10.080   2.279  22.992  0.00  0.00    -0.177 S 
ATOM     13  H   UNL     1      10.914   1.277  23.318  0.00  0.00    +0.102 HD
ENDBRANCH  11  12
ENDBRANCH  10  11
ENDBRANCH   7  10
ENDBRANCH   1   6
BRANCH   2  14
ATOM     14  S   UNL     1       8.615  -4.313  25.498  0.00  0.00    +0.062 S 
ATOM     15  O   UNL     1       8.945  -4.492  26.895  0.00  0.00    -0.153 OA
ATOM     16  O   UNL     1       9.556  -4.645  24.450  0.00  0.00    -0.153 OA
BRANCH  14  17
ATOM     17  C   UNL     1       7.094  -5.169  25.152  0.00  0.00    +0.106 A 
ATOM     18  C   UNL     1       6.608  -5.250  23.843  0.00  0.00    +0.029 A 
ATOM     19  C   UNL     1       5.398  -5.910  23.596  0.00  0.00    +0.005 A 
ATOM     20  C   UNL     1       4.673  -6.488  24.646  0.00  0.00    -0.050 A 
ATOM     21  C   UNL     1       3.382  -7.202  24.363  0.00  0.00    +0.044 C 
ATOM     22  C   UNL     1       5.155  -6.367  25.957  0.00  0.00    +0.005 A 
ATOM     23  C   UNL     1       6.364  -5.709  26.213  0.00  0.00    +0.029 A 
ENDBRANCH  14  17
ENDBRANCH   2  14
TORSDOF 6
ENDMDL
MODEL 8
REMARK VINA RESULT:      -6.0      2.513      3.441
REMARK  Name = 
REMARK  7 active torsions:
REMARK  status: ('A' for Active; 'I' for Inactive)
REMARK    1  A    between atoms: C_2  and  C_17
REMARK    2  A    between atoms: N_6  and  S_7
REMARK    3  A    between atoms: S_7  and  C_10
REMARK    4  A    between atoms: C_13  and  C_14
REMARK    5  A    between atoms: N_19  and  C_20
REMARK    6  A    between atoms: C_20  and  C_21
REMARK    7  A    between atoms: C_21  and  S_22
REMARK                            x       y       z     vdW  Elec       q    Type
REMARK                         _______ _______ _______ _____ _____    ______ ____
ROOT
ATOM      1  C   UNL     1       7.739  -2.112  24.862  0.00  0.00    +0.165 C 
ATOM      2  N   UNL     1       9.086  -1.917  24.202  0.00  0.00    -0.165 NA
ATOM      3  C   UNL     1       9.837  -0.906  25.008  0.00  0.00    +0.110 C 
ATOM      4  C   UNL     1       8.815  -0.282  25.942  0.00  0.00    +0.019 C 
ATOM      5  C   UNL     1       7.883  -1.433  26.228  0.00  0.00    +0.031 C 
ENDROOT
BRANCH   1   6
ATOM      6  C   UNL     1       7.286  -3.556  25.077  0.00  0.00    +0.232 C 
ATOM      7  N   UNL     1       6.565  -4.139  24.063  0.00  0.00    -0.313 N 
ATOM      8  H   UNL     1       6.195  -3.536  23.328  0.00  0.00    +0.149 HD
ATOM      9  O   UNL     1       7.515  -4.156  26.128  0.00  0.00    -0.274 OA
BRANCH   7  10
ATOM     10  C   UNL     1       6.077  -5.506  24.167  0.00  0.00    +0.114 C 
BRANCH  10  11
ATOM     11  C   UNL     1       5.230  -5.953  22.976  0.00  0.00    +0.084 C 
BRANCH  11  12
ATOM     12  S   UNL     1       6.146  -5.800  21.408  0.00  0.00    -0.177 S 
ATOM     13  H   UNL     1       7.052  -6.755  21.673  0.00  0.00    +0.102 HD
ENDBRANCH  11  12
ENDBRANCH  10  11
ENDBRANCH   7  10
ENDBRANCH   1   6
BRANCH   2  14
ATOM     14  S   UNL     1       8.985  -1.596  22.528  0.00  0.00    +0.062 S 
ATOM     15  O   UNL     1       7.937  -2.437  21.991  0.00  0.00    -0.153 OA
ATOM     16  O   UNL     1      10.339  -1.658  22.021  0.00  0.00    -0.153 OA
BRANCH  14  17
ATOM     17  C   UNL     1       8.455   0.101  22.453  0.00  0.00    +0.106 A 
ATOM     18  C   UNL     1       7.119   0.438  22.691  0.00  0.00    +0.029 A 
ATOM     19  C   UNL     1       6.719   1.777  22.606  0.00  0.00    +0.005 A 
ATOM     20  C   UNL     1       7.645   2.779  22.288  0.00  0.00    -0.050 A 
ATOM     21  C   UNL     1       7.203   4.213  22.211  0.00  0.00    +0.044 C 
ATOM     22  C   UNL     1       8.974   2.421  22.017  0.00  0.00    +0.005 A 
ATOM     23  C   UNL     1       9.381   1.085  22.098  0.00  0.00    +0.029 A 
ENDBRANCH  14  17
ENDBRANCH   2  14
TORSDOF 6
ENDMDL
MODEL 9
REMARK VINA RESULT:      -6.0      2.920      4.674
REMARK  Name = 
REMARK  7 active torsions:
REMARK  status: ('A' for Active; 'I' for Inactive)
REMARK    1  A    between atoms: C_2  and  C_17
REMARK    2  A    between atoms: N_6  and  S_7
REMARK    3  A    between atoms: S_7  and  C_10
REMARK    4  A    between atoms: C_13  and  C_14
REMARK    5  A    between atoms: N_19  and  C_20
REMARK    6  A    between atoms: C_20  and  C_21
REMARK    7  A    between atoms: C_21  and  S_22
REMARK                            x       y       z     vdW  Elec       q    Type
REMARK                         _______ _______ _______ _____ _____    ______ ____
ROOT
ATOM      1  C   UNL     1       6.997  -5.270  24.495  0.00  0.00    +0.165 C 
ATOM      2  N   UNL     1       7.318  -3.806  24.292  0.00  0.00    -0.165 NA
ATOM      3  C   UNL     1       7.109  -3.500  22.843  0.00  0.00    +0.110 C 
ATOM      4  C   UNL     1       6.978  -4.845  22.152  0.00  0.00    +0.019 C 
ATOM      5  C   UNL     1       6.296  -5.690  23.199  0.00  0.00    +0.031 C 
ENDROOT
BRANCH   1   6
ATOM      6  C   UNL     1       6.090  -5.613  25.677  0.00  0.00    +0.232 C 
ATOM      7  N   UNL     1       4.759  -5.294  25.552  0.00  0.00    -0.313 N 
ATOM      8  H   UNL     1       4.483  -4.673  24.791  0.00  0.00    +0.149 HD
ATOM      9  O   UNL     1       6.536  -6.109  26.713  0.00  0.00    -0.274 OA
BRANCH   7  10
ATOM     10  C   UNL     1       3.809  -5.568  26.619  0.00  0.00    +0.114 C 
BRANCH  10  11
ATOM     11  C   UNL     1       2.527  -6.252  26.146  0.00  0.00    +0.084 C 
BRANCH  11  12
ATOM     12  S   UNL     1       2.883  -7.613  24.987  0.00  0.00    -0.177 S 
ATOM     13  H   UNL     1       3.710  -8.288  25.801  0.00  0.00    +0.102 HD
ENDBRANCH  11  12
ENDBRANCH  10  11
ENDBRANCH   7  10
ENDBRANCH   1   6
BRANCH   2  14
ATOM     14  S   UNL     1       8.833  -3.346  24.931  0.00  0.00    +0.062 S 
ATOM     15  O   UNL     1       9.793  -4.350  24.529  0.00  0.00    -0.153 OA
ATOM     16  O   UNL     1       8.605  -3.032  26.325  0.00  0.00    -0.153 OA
BRANCH  14  17
ATOM     17  C   UNL     1       9.204  -1.823  24.087  0.00  0.00    +0.106 A 
ATOM     18  C   UNL     1      10.049  -1.819  22.973  0.00  0.00    +0.029 A 
ATOM     19  C   UNL     1      10.345  -0.608  22.335  0.00  0.00    +0.005 A 
ATOM     20  C   UNL     1       9.802   0.595  22.803  0.00  0.00    -0.050 A 
ATOM     21  C   UNL     1      10.120   1.886  22.103  0.00  0.00    +0.044 C 
ATOM     22  C   UNL     1       8.985   0.579  23.944  0.00  0.00    +0.005 A 
ATOM     23  C   UNL     1       8.685  -0.627  24.586  0.00  0.00    +0.029 A 
ENDBRANCH  14  17
ENDBRANCH   2  14
TORSDOF 6
ENDMDL
