MODEL 1
REMARK VINA RESULT:      -7.1      0.000      0.000
REMARK  Name = 
REMARK  13 active torsions:
REMARK  status: ('A' for Active; 'I' for Inactive)
REMARK    1  A    between atoms: C_2  and  C_3
REMARK    2  A    between atoms: C_3  and  O_4
REMARK    3  A    between atoms: O_4  and  P_5
REMARK    4  A    between atoms: P_5  and  O_6
REMARK    5  A    between atoms: P_5  and  O_7
REMARK    6  A    between atoms: C_10  and  N_12
REMARK    7  A    between atoms: N_21  and  C_22
REMARK    8  A    between atoms: C_22  and  C_23
REMARK    9  A    between atoms: C_23  and  C_24
REMARK   10  A    between atoms: C_24  and  C_25
REMARK   11  A    between atoms: C_24  and  C_26
REMARK   12  A    between atoms: C_27  and  O_29
REMARK   13  A    between atoms: C_30  and  O_32
REMARK                            x       y       z     vdW  Elec       q    Type
REMARK                         _______ _______ _______ _____ _____    ______ ____
ROOT
ATOM      1  C   UNL     1       5.828  -5.454  24.864  0.00  0.00    +0.178 C 
ATOM      2  C   UNL     1       5.761  -5.485  26.387  0.00  0.00    +0.178 C 
ATOM      3  C   UNL     1       7.049  -4.799  26.846  0.00  0.00    +0.195 C 
ATOM      4  C   UNL     1       7.681  -4.267  25.556  0.00  0.00    +0.253 C 
ATOM      5  O   UNL     1       6.663  -4.336  24.530  0.00  0.00    -0.346 OA
ENDROOT
BRANCH   4   6
ATOM      6  N   UNL     1       8.183  -2.914  25.654  0.00  0.00    -0.286 N 
ATOM      7  C   UNL     1       9.024  -2.315  24.761  0.00  0.00    +0.167 A 
ATOM      8  N   UNL     1       9.619  -2.864  23.673  0.00  0.00    -0.216 NA
ATOM      9  C   UNL     1      10.364  -1.926  23.028  0.00  0.00    +0.225 A 
ATOM     10  N   UNL     1      10.552  -0.623  23.341  0.00  0.00    -0.219 NA
ATOM     11  C   UNL     1       9.948  -0.126  24.449  0.00  0.00    +0.150 A 
ATOM     12  N   UNL     1      10.123   1.199  24.854  0.00  0.00    -0.327 N 
ATOM     13  H   UNL     1       9.416   1.448  25.546  0.00  0.00    +0.148 HD
ATOM     14  C   UNL     1       9.144  -1.010  25.201  0.00  0.00    +0.147 A 
ATOM     15  N   UNL     1       8.400  -0.808  26.342  0.00  0.00    -0.231 NA
ATOM     16  C   UNL     1       7.835  -1.965  26.588  0.00  0.00    +0.203 A 
BRANCH  12  17
ATOM     17  C   UNL     1      10.361   2.185  23.817  0.00  0.00    +0.103 C 
BRANCH  17  18
ATOM     18  C   UNL     1       9.135   3.099  23.676  0.00  0.00    +0.021 C 
BRANCH  18  19
ATOM     19  C   UNL     1       8.019   2.555  22.759  0.00  0.00    -0.016 C 
ATOM     20  C   UNL     1       8.632   1.803  21.574  0.00  0.00    +0.007 C 
ATOM     21  C   UNL     1       7.095   3.661  22.249  0.00  0.00    +0.007 C 
ENDBRANCH  18  19
ENDBRANCH  17  18
ENDBRANCH  12  17
ENDBRANCH   4   6
BRANCH   2  22
ATOM     22  O   UNL     1       5.656  -6.828  26.859  0.00  0.00    -0.386 OA
ATOM     23  H   UNL     1       4.693  -7.012  26.911  0.00  0.00    +0.210 HD
ENDBRANCH   2  22
BRANCH   3  24
ATOM     24  O   UNL     1       7.902  -5.745  27.514  0.00  0.00    -0.385 OA
ATOM     25  H   UNL     1       8.485  -5.219  28.102  0.00  0.00    +0.210 HD
ENDBRANCH   3  24
BRANCH   1  26
ATOM     26  C   UNL     1       4.460  -5.359  24.177  0.00  0.00    +0.206 C 
BRANCH  26  27
ATOM     27  O   UNL     1       3.417  -5.874  25.009  0.00  0.00    -0.284 OA
BRANCH  27  28
ATOM     28  P   UNL     1       2.548  -7.211  24.340  0.00  0.00    +0.472 P 
ATOM     29  O   UNL     1       1.769  -8.408  23.740  0.00  0.00    -0.228 OA
BRANCH  28  30
ATOM     30  O   UNL     1       3.587  -8.151  25.180  0.00  0.00    -0.303 OA
ATOM     31  H   UNL     1       3.792  -7.693  26.015  0.00  0.00    +0.222 HD
ENDBRANCH  28  30
BRANCH  28  32
ATOM     32  O   UNL     1       3.479  -6.965  23.018  0.00  0.00    -0.303 OA
ATOM     33  H   UNL     1       4.221  -7.594  23.002  0.00  0.00    +0.222 HD
ENDBRANCH  28  32
ENDBRANCH  27  28
ENDBRANCH  26  27
ENDBRANCH   1  26
TORSDOF 11
ENDMDL
MODEL 2
REMARK VINA RESULT:      -6.9      0.854      1.375
REMARK  Name = 
REMARK  13 active torsions:
REMARK  status: ('A' for Active; 'I' for Inactive)
REMARK    1  A    between atoms: C_2  and  C_3
REMARK    2  A    between atoms: C_3  and  O_4
REMARK    3  A    between atoms: O_4  and  P_5
REMARK    4  A    between atoms: P_5  and  O_6
REMARK    5  A    between atoms: P_5  and  O_7
REMARK    6  A    between atoms: C_10  and  N_12
REMARK    7  A    between atoms: N_21  and  C_22
REMARK    8  A    between atoms: C_22  and  C_23
REMARK    9  A    between atoms: C_23  and  C_24
REMARK   10  A    between atoms: C_24  and  C_25
REMARK   11  A    between atoms: C_24  and  C_26
REMARK   12  A    between atoms: C_27  and  O_29
REMARK   13  A    between atoms: C_30  and  O_32
REMARK                            x       y       z     vdW  Elec       q    Type
REMARK                         _______ _______ _______ _____ _____    ______ ____
ROOT
ATOM      1  C   UNL     1       5.919  -5.403  24.816  0.00  0.00    +0.178 C 
ATOM      2  C   UNL     1       5.848  -5.436  26.338  0.00  0.00    +0.178 C 
ATOM      3  C   UNL     1       7.130  -4.743  26.802  0.00  0.00    +0.195 C 
ATOM      4  C   UNL     1       7.763  -4.206  25.515  0.00  0.00    +0.253 C 
ATOM      5  O   UNL     1       6.749  -4.280  24.486  0.00  0.00    -0.346 OA
ENDROOT
BRANCH   4   6
ATOM      6  N   UNL     1       8.256  -2.851  25.616  0.00  0.00    -0.286 N 
ATOM      7  C   UNL     1       9.055  -2.229  24.700  0.00  0.00    +0.167 A 
ATOM      8  N   UNL     1       9.611  -2.753  23.580  0.00  0.00    -0.216 NA
ATOM      9  C   UNL     1      10.320  -1.798  22.921  0.00  0.00    +0.225 A 
ATOM     10  N   UNL     1      10.509  -0.498  23.249  0.00  0.00    -0.219 NA
ATOM     11  C   UNL     1       9.946  -0.025  24.389  0.00  0.00    +0.150 A 
ATOM     12  N   UNL     1      10.126   1.294  24.809  0.00  0.00    -0.327 N 
ATOM     13  H   UNL     1       9.445   1.524  25.533  0.00  0.00    +0.148 HD
ATOM     14  C   UNL     1       9.182  -0.930  25.157  0.00  0.00    +0.147 A 
ATOM     15  N   UNL     1       8.482  -0.754  26.331  0.00  0.00    -0.231 NA
ATOM     16  C   UNL     1       7.938  -1.920  26.580  0.00  0.00    +0.203 A 
BRANCH  12  17
ATOM     17  C   UNL     1      10.313   2.299  23.780  0.00  0.00    +0.103 C 
BRANCH  17  18
ATOM     18  C   UNL     1       9.301   3.437  23.974  0.00  0.00    +0.021 C 
BRANCH  18  19
ATOM     19  C   UNL     1       9.922   4.842  24.130  0.00  0.00    -0.016 C 
ATOM     20  C   UNL     1       9.024   5.891  23.469  0.00  0.00    +0.007 C 
ATOM     21  C   UNL     1      11.331   4.922  23.542  0.00  0.00    +0.007 C 
ENDBRANCH  18  19
ENDBRANCH  17  18
ENDBRANCH  12  17
ENDBRANCH   4   6
BRANCH   2  22
ATOM     22  O   UNL     1       5.749  -6.780  26.809  0.00  0.00    -0.386 OA
ATOM     23  H   UNL     1       5.291  -7.275  26.094  0.00  0.00    +0.210 HD
ENDBRANCH   2  22
BRANCH   3  24
ATOM     24  O   UNL     1       7.986  -5.685  27.473  0.00  0.00    -0.385 OA
ATOM     25  H   UNL     1       8.314  -5.230  28.277  0.00  0.00    +0.210 HD
ENDBRANCH   3  24
BRANCH   1  26
ATOM     26  C   UNL     1       4.553  -5.316  24.125  0.00  0.00    +0.206 C 
BRANCH  26  27
ATOM     27  O   UNL     1       3.503  -5.787  24.973  0.00  0.00    -0.284 OA
BRANCH  27  28
ATOM     28  P   UNL     1       2.609  -7.128  24.346  0.00  0.00    +0.472 P 
ATOM     29  O   UNL     1       1.808  -8.328  23.784  0.00  0.00    -0.228 OA
BRANCH  28  30
ATOM     30  O   UNL     1       3.656  -8.063  25.182  0.00  0.00    -0.303 OA
ATOM     31  H   UNL     1       3.378  -8.057  26.115  0.00  0.00    +0.222 HD
ENDBRANCH  28  30
BRANCH  28  32
ATOM     32  O   UNL     1       3.515  -6.915  23.002  0.00  0.00    -0.303 OA
ATOM     33  H   UNL     1       4.264  -7.535  22.993  0.00  0.00    +0.222 HD
ENDBRANCH  28  32
ENDBRANCH  27  28
ENDBRANCH  26  27
ENDBRANCH   1  26
TORSDOF 11
ENDMDL
MODEL 3
REMARK VINA RESULT:      -6.8      1.631      2.173
REMARK  Name = 
REMARK  13 active torsions:
REMARK  status: ('A' for Active; 'I' for Inactive)
REMARK    1  A    between atoms: C_2  and  C_3
REMARK    2  A    between atoms: C_3  and  O_4
REMARK    3  A    between atoms: O_4  and  P_5
REMARK    4  A    between atoms: P_5  and  O_6
REMARK    5  A    between atoms: P_5  and  O_7
REMARK    6  A    between atoms: C_10  and  N_12
REMARK    7  A    between atoms: N_21  and  C_22
REMARK    8  A    between atoms: C_22  and  C_23
REMARK    9  A    between atoms: C_23  and  C_24
REMARK   10  A    between atoms: C_24  and  C_25
REMARK   11  A    between atoms: C_24  and  C_26
REMARK   12  A    between atoms: C_27  and  O_29
REMARK   13  A    between atoms: C_30  and  O_32
REMARK                            x       y       z     vdW  Elec       q    Type
REMARK                         _______ _______ _______ _____ _____    ______ ____
ROOT
ATOM      1  C   UNL     1       4.887  -6.886  25.775  0.00  0.00    +0.178 C 
ATOM      2  C   UNL     1       5.244  -6.286  27.130  0.00  0.00    +0.178 C 
ATOM      3  C   UNL     1       6.393  -5.321  26.836  0.00  0.00    +0.195 C 
ATOM      4  C   UNL     1       6.498  -5.303  25.308  0.00  0.00    +0.253 C 
ATOM      5  O   UNL     1       5.292  -5.917  24.797  0.00  0.00    -0.346 OA
ENDROOT
BRANCH   4   6
ATOM      6  N   UNL     1       6.651  -3.983  24.739  0.00  0.00    -0.286 N 
ATOM      7  C   UNL     1       7.838  -3.402  24.395  0.00  0.00    +0.167 A 
ATOM      8  N   UNL     1       9.092  -3.882  24.585  0.00  0.00    -0.216 NA
ATOM      9  C   UNL     1      10.006  -3.012  24.078  0.00  0.00    +0.225 A 
ATOM     10  N   UNL     1       9.802  -1.823  23.464  0.00  0.00    -0.219 NA
ATOM     11  C   UNL     1       8.529  -1.378  23.313  0.00  0.00    +0.150 A 
ATOM     12  N   UNL     1       8.243  -0.146  22.721  0.00  0.00    -0.327 N 
ATOM     13  H   UNL     1       7.253  -0.098  22.479  0.00  0.00    +0.148 HD
ATOM     14  C   UNL     1       7.493  -2.202  23.801  0.00  0.00    +0.147 A 
ATOM     15  N   UNL     1       6.124  -2.042  23.783  0.00  0.00    -0.231 NA
ATOM     16  C   UNL     1       5.648  -3.124  24.349  0.00  0.00    +0.203 A 
BRANCH  12  17
ATOM     17  C   UNL     1       9.162   0.332  21.705  0.00  0.00    +0.103 C 
BRANCH  17  18
ATOM     18  C   UNL     1       9.417   1.834  21.898  0.00  0.00    +0.021 C 
BRANCH  18  19
ATOM     19  C   UNL     1       8.557   2.505  22.990  0.00  0.00    -0.016 C 
ATOM     20  C   UNL     1       7.555   3.470  22.350  0.00  0.00    +0.007 C 
ATOM     21  C   UNL     1       9.404   3.248  24.023  0.00  0.00    +0.007 C 
ENDBRANCH  18  19
ENDBRANCH  17  18
ENDBRANCH  12  17
ENDBRANCH   4   6
BRANCH   2  22
ATOM     22  O   UNL     1       5.611  -7.312  28.053  0.00  0.00    -0.386 OA
ATOM     23  H   UNL     1       6.588  -7.245  28.143  0.00  0.00    +0.210 HD
ENDBRANCH   2  22
BRANCH   3  24
ATOM     24  O   UNL     1       7.604  -5.790  27.455  0.00  0.00    -0.385 OA
ATOM     25  H   UNL     1       7.389  -5.933  28.401  0.00  0.00    +0.210 HD
ENDBRANCH   3  24
BRANCH   1  26
ATOM     26  C   UNL     1       3.405  -7.254  25.622  0.00  0.00    +0.206 C 
BRANCH  26  27
ATOM     27  O   UNL     1       3.130  -7.804  24.332  0.00  0.00    -0.284 OA
BRANCH  27  28
ATOM     28  P   UNL     1       2.044  -6.870  23.362  0.00  0.00    +0.472 P 
ATOM     29  O   UNL     1       1.072  -6.034  22.494  0.00  0.00    -0.228 OA
BRANCH  28  30
ATOM     30  O   UNL     1       1.828  -8.241  22.499  0.00  0.00    -0.303 OA
ATOM     31  H   UNL     1       1.580  -7.985  21.593  0.00  0.00    +0.222 HD
ENDBRANCH  28  30
BRANCH  28  32
ATOM     32  O   UNL     1       3.399  -6.342  22.614  0.00  0.00    -0.303 OA
ATOM     33  H   UNL     1       4.165  -6.412  23.209  0.00  0.00    +0.222 HD
ENDBRANCH  28  32
ENDBRANCH  27  28
ENDBRANCH  26  27
ENDBRANCH   1  26
TORSDOF 11
ENDMDL
MODEL 4
REMARK VINA RESULT:      -6.6      2.156      3.889
REMARK  Name = 
REMARK  13 active torsions:
REMARK  status: ('A' for Active; 'I' for Inactive)
REMARK    1  A    between atoms: C_2  and  C_3
REMARK    2  A    between atoms: C_3  and  O_4
REMARK    3  A    between atoms: O_4  and  P_5
REMARK    4  A    between atoms: P_5  and  O_6
REMARK    5  A    between atoms: P_5  and  O_7
REMARK    6  A    between atoms: C_10  and  N_12
REMARK    7  A    between atoms: N_21  and  C_22
REMARK    8  A    between atoms: C_22  and  C_23
REMARK    9  A    between atoms: C_23  and  C_24
REMARK   10  A    between atoms: C_24  and  C_25
REMARK   11  A    between atoms: C_24  and  C_26
REMARK   12  A    between atoms: C_27  and  O_29
REMARK   13  A    between atoms: C_30  and  O_32
REMARK                            x       y       z     vdW  Elec       q    Type
REMARK                         _______ _______ _______ _____ _____    ______ ____
ROOT
ATOM      1  C   UNL     1       3.958  -5.985  25.569  0.00  0.00    +0.178 C 
ATOM      2  C   UNL     1       4.523  -6.961  24.544  0.00  0.00    +0.178 C 
ATOM      3  C   UNL     1       5.154  -6.073  23.470  0.00  0.00    +0.195 C 
ATOM      4  C   UNL     1       5.062  -4.655  24.042  0.00  0.00    +0.253 C 
ATOM      5  O   UNL     1       4.741  -4.788  25.446  0.00  0.00    -0.346 OA
ENDROOT
BRANCH   4   6
ATOM      6  N   UNL     1       6.269  -3.873  23.890  0.00  0.00    -0.286 N 
ATOM      7  C   UNL     1       6.399  -2.551  24.203  0.00  0.00    +0.167 A 
ATOM      8  N   UNL     1       5.440  -1.691  24.626  0.00  0.00    -0.216 NA
ATOM      9  C   UNL     1       5.982  -0.465  24.854  0.00  0.00    +0.225 A 
ATOM     10  N   UNL     1       7.265  -0.058  24.708  0.00  0.00    -0.219 NA
ATOM     11  C   UNL     1       8.184  -0.952  24.266  0.00  0.00    +0.150 A 
ATOM     12  N   UNL     1       9.519  -0.597  24.058  0.00  0.00    -0.327 N 
ATOM     13  H   UNL     1      10.091  -1.436  23.965  0.00  0.00    +0.148 HD
ATOM     14  C   UNL     1       7.736  -2.263  23.997  0.00  0.00    +0.147 A 
ATOM     15  N   UNL     1       8.415  -3.381  23.562  0.00  0.00    -0.231 NA
ATOM     16  C   UNL     1       7.511  -4.328  23.509  0.00  0.00    +0.203 A 
BRANCH  12  17
ATOM     17  C   UNL     1      10.067   0.447  24.902  0.00  0.00    +0.103 C 
BRANCH  17  18
ATOM     18  C   UNL     1      10.968   1.371  24.070  0.00  0.00    +0.021 C 
BRANCH  18  19
ATOM     19  C   UNL     1      10.266   2.623  23.500  0.00  0.00    -0.016 C 
ATOM     20  C   UNL     1      11.278   3.759  23.324  0.00  0.00    +0.007 C 
ATOM     21  C   UNL     1       9.109   3.092  24.383  0.00  0.00    +0.007 C 
ENDBRANCH  18  19
ENDBRANCH  17  18
ENDBRANCH  12  17
ENDBRANCH   4   6
BRANCH   2  22
ATOM     22  O   UNL     1       3.491  -7.799  24.025  0.00  0.00    -0.386 OA
ATOM     23  H   UNL     1       3.942  -8.623  23.736  0.00  0.00    +0.210 HD
ENDBRANCH   2  22
BRANCH   3  24
ATOM     24  O   UNL     1       4.433  -6.204  22.232  0.00  0.00    -0.385 OA
ATOM     25  H   UNL     1       4.914  -5.656  21.577  0.00  0.00    +0.210 HD
ENDBRANCH   3  24
BRANCH   1  26
ATOM     26  C   UNL     1       3.963  -6.515  27.009  0.00  0.00    +0.206 C 
BRANCH  26  27
ATOM     27  O   UNL     1       4.679  -5.644  27.888  0.00  0.00    -0.284 OA
BRANCH  27  28
ATOM     28  P   UNL     1       5.646  -6.447  29.076  0.00  0.00    +0.472 P 
ATOM     29  O   UNL     1       6.512  -7.165  30.140  0.00  0.00    -0.228 OA
BRANCH  28  30
ATOM     30  O   UNL     1       6.928  -5.944  28.196  0.00  0.00    -0.303 OA
ATOM     31  H   UNL     1       6.737  -6.133  27.260  0.00  0.00    +0.222 HD
ENDBRANCH  28  30
BRANCH  28  32
ATOM     32  O   UNL     1       5.303  -7.801  28.227  0.00  0.00    -0.303 OA
ATOM     33  H   UNL     1       5.771  -7.797  27.374  0.00  0.00    +0.222 HD
ENDBRANCH  28  32
ENDBRANCH  27  28
ENDBRANCH  26  27
ENDBRANCH   1  26
TORSDOF 11
ENDMDL
MODEL 5
REMARK VINA RESULT:      -6.4      5.721      9.279
REMARK  Name = 
REMARK  13 active torsions:
REMARK  status: ('A' for Active; 'I' for Inactive)
REMARK    1  A    between atoms: C_2  and  C_3
REMARK    2  A    between atoms: C_3  and  O_4
REMARK    3  A    between atoms: O_4  and  P_5
REMARK    4  A    between atoms: P_5  and  O_6
REMARK    5  A    between atoms: P_5  and  O_7
REMARK    6  A    between atoms: C_10  and  N_12
REMARK    7  A    between atoms: N_21  and  C_22
REMARK    8  A    between atoms: C_22  and  C_23
REMARK    9  A    between atoms: C_23  and  C_24
REMARK   10  A    between atoms: C_24  and  C_25
REMARK   11  A    between atoms: C_24  and  C_26
REMARK   12  A    between atoms: C_27  and  O_29
REMARK   13  A    between atoms: C_30  and  O_32
REMARK                            x       y       z     vdW  Elec       q    Type
REMARK                         _______ _______ _______ _____ _____    ______ ____
ROOT
ATOM      1  C   UNL     1       9.249   1.689  23.803  0.00  0.00    +0.178 C 
ATOM      2  C   UNL     1       8.929   1.675  22.313  0.00  0.00    +0.178 C 
ATOM      3  C   UNL     1       8.429   0.256  22.037  0.00  0.00    +0.195 C 
ATOM      4  C   UNL     1       8.332  -0.393  23.420  0.00  0.00    +0.253 C 
ATOM      5  O   UNL     1       8.422   0.675  24.393  0.00  0.00    -0.346 OA
ENDROOT
BRANCH   4   6
ATOM      6  N   UNL     1       7.119  -1.149  23.638  0.00  0.00    -0.286 N 
ATOM      7  C   UNL     1       6.763  -2.285  22.969  0.00  0.00    +0.167 A 
ATOM      8  N   UNL     1       7.403  -2.882  21.934  0.00  0.00    -0.216 NA
ATOM      9  C   UNL     1       6.739  -4.011  21.565  0.00  0.00    +0.225 A 
ATOM     10  N   UNL     1       5.606  -4.541  22.082  0.00  0.00    -0.219 NA
ATOM     11  C   UNL     1       4.994  -3.896  23.107  0.00  0.00    +0.150 A 
ATOM     12  N   UNL     1       3.804  -4.364  23.668  0.00  0.00    -0.327 N 
ATOM     13  H   UNL     1       3.635  -3.901  24.560  0.00  0.00    +0.148 HD
ATOM     14  C   UNL     1       5.596  -2.709  23.577  0.00  0.00    +0.147 A 
ATOM     15  N   UNL     1       5.236  -1.853  24.594  0.00  0.00    -0.231 NA
ATOM     16  C   UNL     1       6.167  -0.931  24.608  0.00  0.00    +0.203 A 
BRANCH  12  17
ATOM     17  C   UNL     1       3.582  -5.798  23.653  0.00  0.00    +0.103 C 
BRANCH  17  18
ATOM     18  C   UNL     1       4.519  -6.481  24.659  0.00  0.00    +0.021 C 
BRANCH  18  19
ATOM     19  C   UNL     1       4.616  -5.786  26.034  0.00  0.00    -0.016 C 
ATOM     20  C   UNL     1       6.075  -5.445  26.349  0.00  0.00    +0.007 C 
ATOM     21  C   UNL     1       4.029  -6.639  27.159  0.00  0.00    +0.007 C 
ENDBRANCH  18  19
ENDBRANCH  17  18
ENDBRANCH  12  17
ENDBRANCH   4   6
BRANCH   2  22
ATOM     22  O   UNL     1      10.086   2.009  21.547  0.00  0.00    -0.386 OA
ATOM     23  H   UNL     1      10.840   1.584  22.013  0.00  0.00    +0.210 HD
ENDBRANCH   2  22
BRANCH   3  24
ATOM     24  O   UNL     1       9.355  -0.436  21.180  0.00  0.00    -0.385 OA
ATOM     25  H   UNL     1       8.861  -1.193  20.800  0.00  0.00    +0.210 HD
ENDBRANCH   3  24
BRANCH   1  26
ATOM     26  C   UNL     1       9.038   3.050  24.479  0.00  0.00    +0.206 C 
BRANCH  26  27
ATOM     27  O   UNL     1       9.178   4.126  23.549  0.00  0.00    -0.284 OA
BRANCH  27  28
ATOM     28  P   UNL     1      10.402   5.280  23.953  0.00  0.00    +0.472 P 
ATOM     29  O   UNL     1      11.498   6.312  24.315  0.00  0.00    -0.228 OA
BRANCH  28  30
ATOM     30  O   UNL     1       9.648   6.270  22.894  0.00  0.00    -0.303 OA
ATOM     31  H   UNL     1       9.381   7.072  23.378  0.00  0.00    +0.222 HD
ENDBRANCH  28  30
BRANCH  28  32
ATOM     32  O   UNL     1      11.323   4.458  22.881  0.00  0.00    -0.303 OA
ATOM     33  H   UNL     1      11.232   3.500  23.017  0.00  0.00    +0.222 HD
ENDBRANCH  28  32
ENDBRANCH  27  28
ENDBRANCH  26  27
ENDBRANCH   1  26
TORSDOF 11
ENDMDL
MODEL 6
REMARK VINA RESULT:      -6.4      1.663      2.684
REMARK  Name = 
REMARK  13 active torsions:
REMARK  status: ('A' for Active; 'I' for Inactive)
REMARK    1  A    between atoms: C_2  and  C_3
REMARK    2  A    between atoms: C_3  and  O_4
REMARK    3  A    between atoms: O_4  and  P_5
REMARK    4  A    between atoms: P_5  and  O_6
REMARK    5  A    between atoms: P_5  and  O_7
REMARK    6  A    between atoms: C_10  and  N_12
REMARK    7  A    between atoms: N_21  and  C_22
REMARK    8  A    between atoms: C_22  and  C_23
REMARK    9  A    between atoms: C_23  and  C_24
REMARK   10  A    between atoms: C_24  and  C_25
REMARK   11  A    between atoms: C_24  and  C_26
REMARK   12  A    between atoms: C_27  and  O_29
REMARK   13  A    between atoms: C_30  and  O_32
REMARK                            x       y       z     vdW  Elec       q    Type
REMARK                         _______ _______ _______ _____ _____    ______ ____
ROOT
ATOM      1  C   UNL     1       6.678  -5.254  25.672  0.00  0.00    +0.178 C 
ATOM      2  C   UNL     1       7.579  -4.873  26.842  0.00  0.00    +0.178 C 
ATOM      3  C   UNL     1       8.784  -4.187  26.196  0.00  0.00    +0.195 C 
ATOM      4  C   UNL     1       8.409  -4.065  24.716  0.00  0.00    +0.253 C 
ATOM      5  O   UNL     1       6.990  -4.330  24.619  0.00  0.00    -0.346 OA
ENDROOT
BRANCH   4   6
ATOM      6  N   UNL     1       8.704  -2.777  24.131  0.00  0.00    -0.286 N 
ATOM      7  C   UNL     1       8.395  -1.567  24.684  0.00  0.00    +0.167 A 
ATOM      8  N   UNL     1       7.693  -1.319  25.817  0.00  0.00    -0.216 NA
ATOM      9  C   UNL     1       7.625   0.022  26.038  0.00  0.00    +0.225 A 
ATOM     10  N   UNL     1       8.140   1.035  25.302  0.00  0.00    -0.219 NA
ATOM     11  C   UNL     1       8.820   0.735  24.168  0.00  0.00    +0.150 A 
ATOM     12  N   UNL     1       9.349   1.727  23.340  0.00  0.00    -0.327 N 
ATOM     13  H   UNL     1      10.018   1.317  22.689  0.00  0.00    +0.148 HD
ATOM     14  C   UNL     1       8.957  -0.630  23.836  0.00  0.00    +0.147 A 
ATOM     15  N   UNL     1       9.594  -1.246  22.781  0.00  0.00    -0.231 NA
ATOM     16  C   UNL     1       9.427  -2.530  22.986  0.00  0.00    +0.203 A 
BRANCH  12  17
ATOM     17  C   UNL     1       9.766   2.965  23.971  0.00  0.00    +0.103 C 
BRANCH  17  18
ATOM     18  C   UNL     1      11.057   3.475  23.315  0.00  0.00    +0.021 C 
BRANCH  18  19
ATOM     19  C   UNL     1      11.466   4.910  23.713  0.00  0.00    -0.016 C 
ATOM     20  C   UNL     1      10.280   5.862  23.541  0.00  0.00    +0.007 C 
ATOM     21  C   UNL     1      12.660   5.419  22.905  0.00  0.00    +0.007 C 
ENDBRANCH  18  19
ENDBRANCH  17  18
ENDBRANCH  12  17
ENDBRANCH   4   6
BRANCH   2  22
ATOM     22  O   UNL     1       7.944  -6.030  27.593  0.00  0.00    -0.386 OA
ATOM     23  H   UNL     1       7.958  -6.769  26.946  0.00  0.00    +0.210 HD
ENDBRANCH   2  22
BRANCH   3  24
ATOM     24  O   UNL     1       9.968  -4.981  26.390  0.00  0.00    -0.385 OA
ATOM     25  H   UNL     1       9.876  -5.756  25.797  0.00  0.00    +0.210 HD
ENDBRANCH   3  24
BRANCH   1  26
ATOM     26  C   UNL     1       5.181  -5.245  26.004  0.00  0.00    +0.206 C 
BRANCH  26  27
ATOM     27  O   UNL     1       4.383  -5.494  24.844  0.00  0.00    -0.284 OA
BRANCH  27  28
ATOM     28  P   UNL     1       3.570  -7.021  24.836  0.00  0.00    +0.472 P 
ATOM     29  O   UNL     1       2.841  -8.387  24.829  0.00  0.00    -0.228 OA
BRANCH  28  30
ATOM     30  O   UNL     1       4.393  -7.330  26.213  0.00  0.00    -0.303 OA
ATOM     31  H   UNL     1       3.891  -6.941  26.952  0.00  0.00    +0.222 HD
ENDBRANCH  28  30
BRANCH  28  32
ATOM     32  O   UNL     1       4.728  -7.467  23.772  0.00  0.00    -0.303 OA
ATOM     33  H   UNL     1       4.511  -7.150  22.879  0.00  0.00    +0.222 HD
ENDBRANCH  28  32
ENDBRANCH  27  28
ENDBRANCH  26  27
ENDBRANCH   1  26
TORSDOF 11
ENDMDL
MODEL 7
REMARK VINA RESULT:      -6.4      5.458      9.227
REMARK  Name = 
REMARK  13 active torsions:
REMARK  status: ('A' for Active; 'I' for Inactive)
REMARK    1  A    between atoms: C_2  and  C_3
REMARK    2  A    between atoms: C_3  and  O_4
REMARK    3  A    between atoms: O_4  and  P_5
REMARK    4  A    between atoms: P_5  and  O_6
REMARK    5  A    between atoms: P_5  and  O_7
REMARK    6  A    between atoms: C_10  and  N_12
REMARK    7  A    between atoms: N_21  and  C_22
REMARK    8  A    between atoms: C_22  and  C_23
REMARK    9  A    between atoms: C_23  and  C_24
REMARK   10  A    between atoms: C_24  and  C_25
REMARK   11  A    between atoms: C_24  and  C_26
REMARK   12  A    between atoms: C_27  and  O_29
REMARK   13  A    between atoms: C_30  and  O_32
REMARK                            x       y       z     vdW  Elec       q    Type
REMARK                         _______ _______ _______ _____ _____    ______ ____
ROOT
ATOM      1  C   UNL     1       9.396   1.472  23.776  0.00  0.00    +0.178 C 
ATOM      2  C   UNL     1       9.005   1.400  22.304  0.00  0.00    +0.178 C 
ATOM      3  C   UNL     1       8.813  -0.093  22.027  0.00  0.00    +0.195 C 
ATOM      4  C   UNL     1       8.935  -0.757  23.402  0.00  0.00    +0.253 C 
ATOM      5  O   UNL     1       8.844   0.298  24.388  0.00  0.00    -0.346 OA
ENDROOT
BRANCH   4   6
ATOM      6  N   UNL     1       7.931  -1.761  23.668  0.00  0.00    -0.286 N 
ATOM      7  C   UNL     1       8.157  -2.970  24.260  0.00  0.00    +0.167 A 
ATOM      8  N   UNL     1       9.343  -3.510  24.635  0.00  0.00    -0.216 NA
ATOM      9  C   UNL     1       9.140  -4.724  25.214  0.00  0.00    +0.225 A 
ATOM     10  N   UNL     1       7.977  -5.384  25.427  0.00  0.00    -0.219 NA
ATOM     11  C   UNL     1       6.819  -4.809  25.017  0.00  0.00    +0.150 A 
ATOM     12  N   UNL     1       5.585  -5.444  25.171  0.00  0.00    -0.327 N 
ATOM     13  H   UNL     1       4.829  -4.773  25.035  0.00  0.00    +0.148 HD
ATOM     14  C   UNL     1       6.906  -3.542  24.402  0.00  0.00    +0.147 A 
ATOM     15  N   UNL     1       5.929  -2.707  23.905  0.00  0.00    -0.231 NA
ATOM     16  C   UNL     1       6.572  -1.650  23.474  0.00  0.00    +0.203 A 
BRANCH  12  17
ATOM     17  C   UNL     1       5.434  -6.338  26.304  0.00  0.00    +0.103 C 
BRANCH  17  18
ATOM     18  C   UNL     1       3.966  -6.767  26.438  0.00  0.00    +0.021 C 
BRANCH  18  19
ATOM     19  C   UNL     1       3.111  -6.566  25.169  0.00  0.00    -0.016 C 
ATOM     20  C   UNL     1       1.868  -5.734  25.499  0.00  0.00    +0.007 C 
ATOM     21  C   UNL     1       2.693  -7.892  24.534  0.00  0.00    +0.007 C 
ENDBRANCH  18  19
ENDBRANCH  17  18
ENDBRANCH  12  17
ENDBRANCH   4   6
BRANCH   2  22
ATOM     22  O   UNL     1      10.017   1.984  21.485  0.00  0.00    -0.386 OA
ATOM     23  H   UNL     1      10.535   1.228  21.129  0.00  0.00    +0.210 HD
ENDBRANCH   2  22
BRANCH   3  24
ATOM     24  O   UNL     1       9.818  -0.559  21.110  0.00  0.00    -0.385 OA
ATOM     25  H   UNL     1      10.145  -1.409  21.473  0.00  0.00    +0.210 HD
ENDBRANCH   3  24
BRANCH   1  26
ATOM     26  C   UNL     1       8.931   2.749  24.487  0.00  0.00    +0.206 C 
BRANCH  26  27
ATOM     27  O   UNL     1       8.843   3.853  23.582  0.00  0.00    -0.284 OA
BRANCH  27  28
ATOM     28  P   UNL     1       9.898   5.175  23.945  0.00  0.00    +0.472 P 
ATOM     29  O   UNL     1      10.842   6.358  24.270  0.00  0.00    -0.228 OA
BRANCH  28  30
ATOM     30  O   UNL     1       9.090   5.982  22.777  0.00  0.00    -0.303 OA
ATOM     31  H   UNL     1       8.881   6.870  23.120  0.00  0.00    +0.222 HD
ENDBRANCH  28  30
BRANCH  28  32
ATOM     32  O   UNL     1      10.966   4.394  22.985  0.00  0.00    -0.303 OA
ATOM     33  H   UNL     1      11.875   4.675  23.187  0.00  0.00    +0.222 HD
ENDBRANCH  28  32
ENDBRANCH  27  28
ENDBRANCH  26  27
ENDBRANCH   1  26
TORSDOF 11
ENDMDL
MODEL 8
REMARK VINA RESULT:      -6.3      2.167      2.936
REMARK  Name = 
REMARK  13 active torsions:
REMARK  status: ('A' for Active; 'I' for Inactive)
REMARK    1  A    between atoms: C_2  and  C_3
REMARK    2  A    between atoms: C_3  and  O_4
REMARK    3  A    between atoms: O_4  and  P_5
REMARK    4  A    between atoms: P_5  and  O_6
REMARK    5  A    between atoms: P_5  and  O_7
REMARK    6  A    between atoms: C_10  and  N_12
REMARK    7  A    between atoms: N_21  and  C_22
REMARK    8  A    between atoms: C_22  and  C_23
REMARK    9  A    between atoms: C_23  and  C_24
REMARK   10  A    between atoms: C_24  and  C_25
REMARK   11  A    between atoms: C_24  and  C_26
REMARK   12  A    between atoms: C_27  and  O_29
REMARK   13  A    between atoms: C_30  and  O_32
REMARK                            x       y       z     vdW  Elec       q    Type
REMARK                         _______ _______ _______ _____ _____    ______ ____
ROOT
ATOM      1  C   UNL     1       7.197  -4.835  24.725  0.00  0.00    +0.178 C 
ATOM      2  C   UNL     1       8.302  -5.143  25.729  0.00  0.00    +0.178 C 
ATOM      3  C   UNL     1       9.405  -4.131  25.414  0.00  0.00    +0.195 C 
ATOM      4  C   UNL     1       8.785  -3.201  24.367  0.00  0.00    +0.253 C 
ATOM      5  O   UNL     1       7.361  -3.454  24.371  0.00  0.00    -0.346 OA
ENDROOT
BRANCH   4   6
ATOM      6  N   UNL     1       9.031  -1.795  24.601  0.00  0.00    -0.286 N 
ATOM      7  C   UNL     1       9.314  -0.870  23.638  0.00  0.00    +0.167 A 
ATOM      8  N   UNL     1       9.505  -1.073  22.311  0.00  0.00    -0.216 NA
ATOM      9  C   UNL     1       9.741   0.112  21.688  0.00  0.00    +0.225 A 
ATOM     10  N   UNL     1       9.802   1.357  22.217  0.00  0.00    -0.219 NA
ATOM     11  C   UNL     1       9.621   1.506  23.553  0.00  0.00    +0.150 A 
ATOM     12  N   UNL     1       9.703   2.753  24.174  0.00  0.00    -0.327 N 
ATOM     13  H   UNL     1       9.305   2.702  25.112  0.00  0.00    +0.148 HD
ATOM     14  C   UNL     1       9.365   0.340  24.306  0.00  0.00    +0.147 A 
ATOM     15  N   UNL     1       9.125   0.166  25.651  0.00  0.00    -0.231 NA
ATOM     16  C   UNL     1       8.927  -1.122  25.797  0.00  0.00    +0.203 A 
BRANCH  12  17
ATOM     17  C   UNL     1       9.318   3.912  23.392  0.00  0.00    +0.103 C 
BRANCH  17  18
ATOM     18  C   UNL     1      10.195   5.114  23.771  0.00  0.00    +0.021 C 
BRANCH  18  19
ATOM     19  C   UNL     1       9.495   6.486  23.677  0.00  0.00    -0.016 C 
ATOM     20  C   UNL     1       9.148   6.997  25.078  0.00  0.00    +0.007 C 
ATOM     21  C   UNL     1       8.232   6.436  22.817  0.00  0.00    +0.007 C 
ENDBRANCH  18  19
ENDBRANCH  17  18
ENDBRANCH  12  17
ENDBRANCH   4   6
BRANCH   2  22
ATOM     22  O   UNL     1       8.742  -6.494  25.595  0.00  0.00    -0.386 OA
ATOM     23  H   UNL     1       9.697  -6.483  25.827  0.00  0.00    +0.210 HD
ENDBRANCH   2  22
BRANCH   3  24
ATOM     24  O   UNL     1      10.570  -4.810  24.911  0.00  0.00    -0.385 OA
ATOM     25  H   UNL     1      11.334  -4.232  25.118  0.00  0.00    +0.210 HD
ENDBRANCH   3  24
BRANCH   1  26
ATOM     26  C   UNL     1       5.781  -5.119  25.242  0.00  0.00    +0.206 C 
BRANCH  26  27
ATOM     27  O   UNL     1       4.816  -5.069  24.189  0.00  0.00    -0.284 OA
BRANCH  27  28
ATOM     28  P   UNL     1       5.407  -5.558  22.639  0.00  0.00    +0.472 P 
ATOM     29  O   UNL     1       5.936  -5.997  21.251  0.00  0.00    -0.228 OA
BRANCH  28  30
ATOM     30  O   UNL     1       5.076  -4.030  22.165  0.00  0.00    -0.303 OA
ATOM     31  H   UNL     1       5.857  -3.691  21.691  0.00  0.00    +0.222 HD
ENDBRANCH  28  30
BRANCH  28  32
ATOM     32  O   UNL     1       3.913  -6.191  22.432  0.00  0.00    -0.303 OA
ATOM     33  H   UNL     1       3.501  -6.380  23.292  0.00  0.00    +0.222 HD
ENDBRANCH  28  32
ENDBRANCH  27  28
ENDBRANCH  26  27
ENDBRANCH   1  26
TORSDOF 11
ENDMDL
MODEL 9
REMARK VINA RESULT:      -6.3      2.556      3.532
REMARK  Name = 
REMARK  13 active torsions:
REMARK  status: ('A' for Active; 'I' for Inactive)
REMARK    1  A    between atoms: C_2  and  C_3
REMARK    2  A    between atoms: C_3  and  O_4
REMARK    3  A    between atoms: O_4  and  P_5
REMARK    4  A    between atoms: P_5  and  O_6
REMARK    5  A    between atoms: P_5  and  O_7
REMARK    6  A    between atoms: C_10  and  N_12
REMARK    7  A    between atoms: N_21  and  C_22
REMARK    8  A    between atoms: C_22  and  C_23
REMARK    9  A    between atoms: C_23  and  C_24
REMARK   10  A    between atoms: C_24  and  C_25
REMARK   11  A    between atoms: C_24  and  C_26
REMARK   12  A    between atoms: C_27  and  O_29
REMARK   13  A    between atoms: C_30  and  O_32
REMARK                            x       y       z     vdW  Elec       q    Type
REMARK                         _______ _______ _______ _____ _____    ______ ____
ROOT
ATOM      1  C   UNL     1       7.312  -4.324  22.356  0.00  0.00    +0.178 C 
ATOM      2  C   UNL     1       7.913  -4.473  23.749  0.00  0.00    +0.178 C 
ATOM      3  C   UNL     1       8.615  -3.140  24.013  0.00  0.00    +0.195 C 
ATOM      4  C   UNL     1       8.220  -2.256  22.826  0.00  0.00    +0.253 C 
ATOM      5  O   UNL     1       7.118  -2.915  22.160  0.00  0.00    -0.346 OA
ENDROOT
BRANCH   4   6
ATOM      6  N   UNL     1       7.835  -0.911  23.189  0.00  0.00    -0.286 N 
ATOM      7  C   UNL     1       8.627   0.196  23.080  0.00  0.00    +0.167 A 
ATOM      8  N   UNL     1       9.928   0.262  22.704  0.00  0.00    -0.216 NA
ATOM      9  C   UNL     1      10.346   1.556  22.699  0.00  0.00    +0.225 A 
ATOM     10  N   UNL     1       9.655   2.677  23.010  0.00  0.00    -0.219 NA
ATOM     11  C   UNL     1       8.360   2.557  23.397  0.00  0.00    +0.150 A 
ATOM     12  N   UNL     1       7.594   3.665  23.766  0.00  0.00    -0.327 N 
ATOM     13  H   UNL     1       6.606   3.413  23.787  0.00  0.00    +0.148 HD
ATOM     14  C   UNL     1       7.814   1.256  23.438  0.00  0.00    +0.147 A 
ATOM     15  N   UNL     1       6.551   0.814  23.766  0.00  0.00    -0.231 NA
ATOM     16  C   UNL     1       6.594  -0.486  23.606  0.00  0.00    +0.203 A 
BRANCH  12  17
ATOM     17  C   UNL     1       7.906   4.930  23.129  0.00  0.00    +0.103 C 
BRANCH  17  18
ATOM     18  C   UNL     1       7.867   6.060  24.167  0.00  0.00    +0.021 C 
BRANCH  18  19
ATOM     19  C   UNL     1       9.209   6.793  24.383  0.00  0.00    -0.016 C 
ATOM     20  C   UNL     1      10.326   6.082  23.613  0.00  0.00    +0.007 C 
ATOM     21  C   UNL     1       9.583   6.896  25.861  0.00  0.00    +0.007 C 
ENDBRANCH  18  19
ENDBRANCH  17  18
ENDBRANCH  12  17
ENDBRANCH   4   6
BRANCH   2  22
ATOM     22  O   UNL     1       8.808  -5.583  23.795  0.00  0.00    -0.386 OA
ATOM     23  H   UNL     1       9.391  -5.418  24.569  0.00  0.00    +0.210 HD
ENDBRANCH   2  22
BRANCH   3  24
ATOM     24  O   UNL     1      10.038  -3.337  24.089  0.00  0.00    -0.385 OA
ATOM     25  H   UNL     1      10.278  -3.234  25.035  0.00  0.00    +0.210 HD
ENDBRANCH   3  24
BRANCH   1  26
ATOM     26  C   UNL     1       6.009  -5.106  22.147  0.00  0.00    +0.206 C 
BRANCH  26  27
ATOM     27  O   UNL     1       5.842  -6.124  23.136  0.00  0.00    -0.284 OA
BRANCH  27  28
ATOM     28  P   UNL     1       4.415  -5.972  24.101  0.00  0.00    +0.472 P 
ATOM     29  O   UNL     1       3.138  -5.835  24.966  0.00  0.00    -0.228 OA
BRANCH  28  30
ATOM     30  O   UNL     1       4.321  -7.600  24.004  0.00  0.00    -0.303 OA
ATOM     31  H   UNL     1       4.914  -7.889  23.287  0.00  0.00    +0.222 HD
ENDBRANCH  28  30
BRANCH  28  32
ATOM     32  O   UNL     1       3.675  -5.615  22.688  0.00  0.00    -0.303 OA
ATOM     33  H   UNL     1       3.792  -6.339  22.049  0.00  0.00    +0.222 HD
ENDBRANCH  28  32
ENDBRANCH  27  28
ENDBRANCH  26  27
ENDBRANCH   1  26
TORSDOF 11
ENDMDL
