MODEL 1
REMARK VINA RESULT:      -6.6      0.000      0.000
REMARK  Name = 
REMARK  3 active torsions:
REMARK  status: ('A' for Active; 'I' for Inactive)
REMARK    1  A    between atoms: C_11  and  C_14
REMARK    2  A    between atoms: C_14  and  C_16
REMARK    3  A    between atoms: C_16  and  N_17
REMARK                            x       y       z     vdW  Elec       q    Type
REMARK                         _______ _______ _______ _____ _____    ______ ____
ROOT
ATOM      1  C   UNL     1       7.851   1.522  23.575  0.00  0.00    -0.010 C 
ATOM      2  C   UNL     1       8.047   0.007  23.757  0.00  0.00    +0.018 C 
ATOM      3  C   UNL     1       9.497  -0.399  23.400  0.00  0.00    +0.032 C 
ATOM      4  C   UNL     1      10.480   0.382  24.300  0.00  0.00    +0.018 C 
ATOM      5  C   UNL     1      10.286   1.900  24.118  0.00  0.00    -0.010 C 
ATOM      6  C   UNL     1      10.546   2.277  22.650  0.00  0.00    +0.007 C 
ATOM      7  C   UNL     1       9.568   1.526  21.734  0.00  0.00    -0.010 C 
ATOM      8  C   UNL     1       9.764   0.013  21.927  0.00  0.00    +0.018 C 
ATOM      9  C   UNL     1       8.125   1.897  22.110  0.00  0.00    +0.007 C 
ATOM     10  C   UNL     1       8.838   2.273  24.484  0.00  0.00    +0.007 C 
ENDROOT
BRANCH   3  11
ATOM     11  C   UNL     1       9.678  -1.920  23.553  0.00  0.00    +0.159 C 
ATOM     12  O   UNL     1      10.631  -2.506  23.028  0.00  0.00    -0.295 OA
BRANCH  11  13
ATOM     13  C   UNL     1       8.639  -2.708  24.327  0.00  0.00    +0.197 C 
BRANCH  13  14
ATOM     14  N   UNL     1       7.972  -3.701  23.510  0.00  0.00    -0.330 N 
ATOM     15  C   UNL     1       7.999  -5.052  23.702  0.00  0.00    +0.199 A 
ATOM     16  N   UNL     1       7.338  -5.683  22.757  0.00  0.00    -0.244 NA
ATOM     17  C   UNL     1       6.877  -4.702  21.920  0.00  0.00    +0.130 A 
ATOM     18  C   UNL     1       7.266  -3.460  22.364  0.00  0.00    +0.107 A 
ENDBRANCH  13  14
ENDBRANCH  11  13
ENDBRANCH   3  11
TORSDOF 3
ENDMDL
MODEL 2
REMARK VINA RESULT:      -6.5      0.902      1.978
REMARK  Name = 
REMARK  3 active torsions:
REMARK  status: ('A' for Active; 'I' for Inactive)
REMARK    1  A    between atoms: C_11  and  C_14
REMARK    2  A    between atoms: C_14  and  C_16
REMARK    3  A    between atoms: C_16  and  N_17
REMARK                            x       y       z     vdW  Elec       q    Type
REMARK                         _______ _______ _______ _____ _____    ______ ____
ROOT
ATOM      1  C   UNL     1       9.069   1.245  21.592  0.00  0.00    -0.010 C 
ATOM      2  C   UNL     1       9.143  -0.277  21.806  0.00  0.00    +0.018 C 
ATOM      3  C   UNL     1       9.196  -0.611  23.316  0.00  0.00    +0.032 C 
ATOM      4  C   UNL     1       7.942  -0.032  24.009  0.00  0.00    +0.018 C 
ATOM      5  C   UNL     1       7.866   1.493  23.797  0.00  0.00    -0.010 C 
ATOM      6  C   UNL     1       9.118   2.156  24.395  0.00  0.00    +0.007 C 
ATOM      7  C   UNL     1      10.379   1.609  23.710  0.00  0.00    -0.010 C 
ATOM      8  C   UNL     1      10.444   0.087  23.921  0.00  0.00    +0.018 C 
ATOM      9  C   UNL     1      10.315   1.905  22.203  0.00  0.00    +0.007 C 
ATOM     10  C   UNL     1       7.811   1.792  22.288  0.00  0.00    +0.007 C 
ENDROOT
BRANCH   3  11
ATOM     11  C   UNL     1       9.303  -2.133  23.523  0.00  0.00    +0.159 C 
ATOM     12  O   UNL     1      10.333  -2.746  23.223  0.00  0.00    -0.295 OA
BRANCH  11  13
ATOM     13  C   UNL     1       8.104  -2.886  24.064  0.00  0.00    +0.197 C 
BRANCH  13  14
ATOM     14  N   UNL     1       7.287  -3.458  23.014  0.00  0.00    -0.330 N 
ATOM     15  C   UNL     1       6.271  -2.831  22.351  0.00  0.00    +0.199 A 
ATOM     16  N   UNL     1       5.690  -3.639  21.493  0.00  0.00    -0.244 NA
ATOM     17  C   UNL     1       6.349  -4.833  21.614  0.00  0.00    +0.130 A 
ATOM     18  C   UNL     1       7.342  -4.748  22.562  0.00  0.00    +0.107 A 
ENDBRANCH  13  14
ENDBRANCH  11  13
ENDBRANCH   3  11
TORSDOF 3
ENDMDL
MODEL 3
REMARK VINA RESULT:      -6.5      1.170      1.845
REMARK  Name = 
REMARK  3 active torsions:
REMARK  status: ('A' for Active; 'I' for Inactive)
REMARK    1  A    between atoms: C_11  and  C_14
REMARK    2  A    between atoms: C_14  and  C_16
REMARK    3  A    between atoms: C_16  and  N_17
REMARK                            x       y       z     vdW  Elec       q    Type
REMARK                         _______ _______ _______ _____ _____    ______ ____
ROOT
ATOM      1  C   UNL     1       7.672   1.405  23.397  0.00  0.00    -0.010 C 
ATOM      2  C   UNL     1       7.847  -0.123  23.441  0.00  0.00    +0.018 C 
ATOM      3  C   UNL     1       9.335  -0.504  23.249  0.00  0.00    +0.032 C 
ATOM      4  C   UNL     1      10.178   0.165  24.357  0.00  0.00    +0.018 C 
ATOM      5  C   UNL     1      10.005   1.696  24.314  0.00  0.00    -0.010 C 
ATOM      6  C   UNL     1      10.468   2.226  22.947  0.00  0.00    +0.007 C 
ATOM      7  C   UNL     1       9.631   1.587  21.827  0.00  0.00    -0.010 C 
ATOM      8  C   UNL     1       9.804   0.061  21.881  0.00  0.00    +0.018 C 
ATOM      9  C   UNL     1       8.148   1.932  22.034  0.00  0.00    +0.007 C 
ATOM     10  C   UNL     1       8.519   2.043  24.512  0.00  0.00    +0.007 C 
ENDROOT
BRANCH   3  11
ATOM     11  C   UNL     1       9.498  -2.035  23.261  0.00  0.00    +0.159 C 
ATOM     12  O   UNL     1      10.605  -2.559  23.098  0.00  0.00    -0.295 OA
BRANCH  11  13
ATOM     13  C   UNL     1       8.267  -2.903  23.433  0.00  0.00    +0.197 C 
BRANCH  13  14
ATOM     14  N   UNL     1       8.299  -3.675  24.659  0.00  0.00    -0.330 N 
ATOM     15  C   UNL     1       8.519  -3.185  25.914  0.00  0.00    +0.199 A 
ATOM     16  N   UNL     1       8.540  -4.150  26.806  0.00  0.00    -0.244 NA
ATOM     17  C   UNL     1       8.337  -5.304  26.098  0.00  0.00    +0.130 A 
ATOM     18  C   UNL     1       8.193  -5.035  24.757  0.00  0.00    +0.107 A 
ENDBRANCH  13  14
ENDBRANCH  11  13
ENDBRANCH   3  11
TORSDOF 3
ENDMDL
MODEL 4
REMARK VINA RESULT:      -6.3      1.248      2.552
REMARK  Name = 
REMARK  3 active torsions:
REMARK  status: ('A' for Active; 'I' for Inactive)
REMARK    1  A    between atoms: C_11  and  C_14
REMARK    2  A    between atoms: C_14  and  C_16
REMARK    3  A    between atoms: C_16  and  N_17
REMARK                            x       y       z     vdW  Elec       q    Type
REMARK                         _______ _______ _______ _____ _____    ______ ____
ROOT
ATOM      1  C   UNL     1       9.737   1.433  21.851  0.00  0.00    -0.010 C 
ATOM      2  C   UNL     1       9.847  -0.100  21.916  0.00  0.00    +0.018 C 
ATOM      3  C   UNL     1       9.274  -0.629  23.253  0.00  0.00    +0.032 C 
ATOM      4  C   UNL     1       7.799  -0.189  23.383  0.00  0.00    +0.018 C 
ATOM      5  C   UNL     1       7.687   1.347  23.319  0.00  0.00    -0.010 C 
ATOM      6  C   UNL     1       8.496   1.967  24.470  0.00  0.00    +0.007 C 
ATOM      7  C   UNL     1       9.972   1.559  24.354  0.00  0.00    -0.010 C 
ATOM      8  C   UNL     1      10.074   0.026  24.411  0.00  0.00    +0.018 C 
ATOM      9  C   UNL     1      10.536   2.049  23.011  0.00  0.00    +0.007 C 
ATOM     10  C   UNL     1       8.260   1.841  21.979  0.00  0.00    +0.007 C 
ENDROOT
BRANCH   3  11
ATOM     11  C   UNL     1       9.417  -2.159  23.326  0.00  0.00    +0.159 C 
ATOM     12  O   UNL     1      10.522  -2.703  23.231  0.00  0.00    -0.295 OA
BRANCH  11  13
ATOM     13  C   UNL     1       8.168  -3.006  23.475  0.00  0.00    +0.197 C 
BRANCH  13  14
ATOM     14  N   UNL     1       8.177  -3.800  24.687  0.00  0.00    -0.330 N 
ATOM     15  C   UNL     1       8.271  -5.160  24.758  0.00  0.00    +0.199 A 
ATOM     16  N   UNL     1       8.196  -5.580  26.001  0.00  0.00    -0.244 NA
ATOM     17  C   UNL     1       8.039  -4.450  26.758  0.00  0.00    +0.130 A 
ATOM     18  C   UNL     1       8.015  -3.329  25.961  0.00  0.00    +0.107 A 
ENDBRANCH  13  14
ENDBRANCH  11  13
ENDBRANCH   3  11
TORSDOF 3
ENDMDL
MODEL 5
REMARK VINA RESULT:      -6.1      0.969      2.083
REMARK  Name = 
REMARK  3 active torsions:
REMARK  status: ('A' for Active; 'I' for Inactive)
REMARK    1  A    between atoms: C_11  and  C_14
REMARK    2  A    between atoms: C_14  and  C_16
REMARK    3  A    between atoms: C_16  and  N_17
REMARK                            x       y       z     vdW  Elec       q    Type
REMARK                         _______ _______ _______ _____ _____    ______ ____
ROOT
ATOM      1  C   UNL     1      10.251   1.723  24.118  0.00  0.00    -0.010 C 
ATOM      2  C   UNL     1      10.284   0.185  24.121  0.00  0.00    +0.018 C 
ATOM      3  C   UNL     1       9.262  -0.382  23.106  0.00  0.00    +0.032 C 
ATOM      4  C   UNL     1       9.590   0.160  21.697  0.00  0.00    +0.018 C 
ATOM      5  C   UNL     1       9.556   1.701  21.692  0.00  0.00    -0.010 C 
ATOM      6  C   UNL     1       8.154   2.184  22.098  0.00  0.00    +0.007 C 
ATOM      7  C   UNL     1       7.810   1.671  23.505  0.00  0.00    -0.010 C 
ATOM      8  C   UNL     1       7.853   0.135  23.503  0.00  0.00    +0.018 C 
ATOM      9  C   UNL     1       8.844   2.201  24.511  0.00  0.00    +0.007 C 
ATOM     10  C   UNL     1      10.584   2.234  22.706  0.00  0.00    +0.007 C 
ENDROOT
BRANCH   3  11
ATOM     11  C   UNL     1       9.277  -1.921  23.138  0.00  0.00    +0.159 C 
ATOM     12  O   UNL     1      10.196  -2.539  23.686  0.00  0.00    -0.295 OA
BRANCH  11  13
ATOM     13  C   UNL     1       8.162  -2.679  22.445  0.00  0.00    +0.197 C 
BRANCH  13  14
ATOM     14  N   UNL     1       7.408  -3.514  23.357  0.00  0.00    -0.330 N 
ATOM     15  C   UNL     1       7.634  -4.836  23.613  0.00  0.00    +0.199 A 
ATOM     16  N   UNL     1       6.742  -5.321  24.448  0.00  0.00    -0.244 NA
ATOM     17  C   UNL     1       5.905  -4.275  24.732  0.00  0.00    +0.130 A 
ATOM     18  C   UNL     1       6.294  -3.141  24.058  0.00  0.00    +0.107 A 
ENDBRANCH  13  14
ENDBRANCH  11  13
ENDBRANCH   3  11
TORSDOF 3
ENDMDL
MODEL 6
REMARK VINA RESULT:      -5.7      2.179      5.731
REMARK  Name = 
REMARK  3 active torsions:
REMARK  status: ('A' for Active; 'I' for Inactive)
REMARK    1  A    between atoms: C_11  and  C_14
REMARK    2  A    between atoms: C_14  and  C_16
REMARK    3  A    between atoms: C_16  and  N_17
REMARK                            x       y       z     vdW  Elec       q    Type
REMARK                         _______ _______ _______ _____ _____    ______ ____
ROOT
ATOM      1  C   UNL     1       5.652  -3.358  24.288  0.00  0.00    -0.010 C 
ATOM      2  C   UNL     1       6.930  -2.535  24.523  0.00  0.00    +0.018 C 
ATOM      3  C   UNL     1       8.093  -3.078  23.658  0.00  0.00    +0.032 C 
ATOM      4  C   UNL     1       7.686  -3.027  22.169  0.00  0.00    +0.018 C 
ATOM      5  C   UNL     1       6.407  -3.853  21.931  0.00  0.00    -0.010 C 
ATOM      6  C   UNL     1       6.660  -5.316  22.328  0.00  0.00    +0.007 C 
ATOM      7  C   UNL     1       7.050  -5.397  23.812  0.00  0.00    -0.010 C 
ATOM      8  C   UNL     1       8.323  -4.565  24.042  0.00  0.00    +0.018 C 
ATOM      9  C   UNL     1       5.914  -4.822  24.673  0.00  0.00    +0.007 C 
ATOM     10  C   UNL     1       5.270  -3.286  22.800  0.00  0.00    +0.007 C 
ENDROOT
BRANCH   3  11
ATOM     11  C   UNL     1       9.376  -2.271  23.922  0.00  0.00    +0.159 C 
ATOM     12  O   UNL     1      10.484  -2.709  23.594  0.00  0.00    -0.295 OA
BRANCH  11  13
ATOM     13  C   UNL     1       9.270  -0.937  24.635  0.00  0.00    +0.197 C 
BRANCH  13  14
ATOM     14  N   UNL     1       9.641   0.177  23.786  0.00  0.00    -0.330 N 
ATOM     15  C   UNL     1      10.406   1.248  24.151  0.00  0.00    +0.199 A 
ATOM     16  N   UNL     1      10.515   2.114  23.168  0.00  0.00    -0.244 NA
ATOM     17  C   UNL     1       9.786   1.586  22.136  0.00  0.00    +0.130 A 
ATOM     18  C   UNL     1       9.225   0.384  22.500  0.00  0.00    +0.107 A 
ENDBRANCH  13  14
ENDBRANCH  11  13
ENDBRANCH   3  11
TORSDOF 3
ENDMDL
MODEL 7
REMARK VINA RESULT:      -5.7      1.715      2.962
REMARK  Name = 
REMARK  3 active torsions:
REMARK  status: ('A' for Active; 'I' for Inactive)
REMARK    1  A    between atoms: C_11  and  C_14
REMARK    2  A    between atoms: C_14  and  C_16
REMARK    3  A    between atoms: C_16  and  N_17
REMARK                            x       y       z     vdW  Elec       q    Type
REMARK                         _______ _______ _______ _____ _____    ______ ____
ROOT
ATOM      1  C   UNL     1      10.286  -1.026  22.796  0.00  0.00    -0.010 C 
ATOM      2  C   UNL     1       9.658  -2.277  23.432  0.00  0.00    +0.018 C 
ATOM      3  C   UNL     1       8.346  -1.912  24.168  0.00  0.00    +0.032 C 
ATOM      4  C   UNL     1       7.363  -1.267  23.165  0.00  0.00    +0.018 C 
ATOM      5  C   UNL     1       7.991  -0.012  22.528  0.00  0.00    -0.010 C 
ATOM      6  C   UNL     1       8.323   1.009  23.627  0.00  0.00    +0.007 C 
ATOM      7  C   UNL     1       9.313   0.398  24.630  0.00  0.00    -0.010 C 
ATOM      8  C   UNL     1       8.683  -0.856  25.256  0.00  0.00    +0.018 C 
ATOM      9  C   UNL     1      10.604  -0.002  23.897  0.00  0.00    +0.007 C 
ATOM     10  C   UNL     1       9.289  -0.408  21.801  0.00  0.00    +0.007 C 
ENDROOT
BRANCH   3  11
ATOM     11  C   UNL     1       7.740  -3.162  24.830  0.00  0.00    +0.159 C 
ATOM     12  O   UNL     1       7.079  -3.077  25.870  0.00  0.00    -0.295 OA
BRANCH  11  13
ATOM     13  C   UNL     1       7.999  -4.520  24.207  0.00  0.00    +0.197 C 
BRANCH  13  14
ATOM     14  N   UNL     1       7.033  -4.855  23.181  0.00  0.00    -0.330 N 
ATOM     15  C   UNL     1       5.681  -4.948  23.348  0.00  0.00    +0.199 A 
ATOM     16  N   UNL     1       5.087  -5.324  22.238  0.00  0.00    -0.244 NA
ATOM     17  C   UNL     1       6.094  -5.489  21.325  0.00  0.00    +0.130 A 
ATOM     18  C   UNL     1       7.316  -5.211  21.892  0.00  0.00    +0.107 A 
ENDBRANCH  13  14
ENDBRANCH  11  13
ENDBRANCH   3  11
TORSDOF 3
ENDMDL
MODEL 8
REMARK VINA RESULT:      -5.7      3.843      6.224
REMARK  Name = 
REMARK  3 active torsions:
REMARK  status: ('A' for Active; 'I' for Inactive)
REMARK    1  A    between atoms: C_11  and  C_14
REMARK    2  A    between atoms: C_14  and  C_16
REMARK    3  A    between atoms: C_16  and  N_17
REMARK                            x       y       z     vdW  Elec       q    Type
REMARK                         _______ _______ _______ _____ _____    ______ ____
ROOT
ATOM      1  C   UNL     1       7.805  -0.467  23.712  0.00  0.00    -0.010 C 
ATOM      2  C   UNL     1       8.160   1.016  23.912  0.00  0.00    +0.018 C 
ATOM      3  C   UNL     1       9.619   1.288  23.475  0.00  0.00    +0.032 C 
ATOM      4  C   UNL     1       9.788   0.890  21.992  0.00  0.00    +0.018 C 
ATOM      5  C   UNL     1       9.434  -0.595  21.789  0.00  0.00    -0.010 C 
ATOM      6  C   UNL     1      10.366  -1.466  22.648  0.00  0.00    +0.007 C 
ATOM      7  C   UNL     1      10.204  -1.102  24.132  0.00  0.00    -0.010 C 
ATOM      8  C   UNL     1      10.552   0.383  24.324  0.00  0.00    +0.018 C 
ATOM      9  C   UNL     1       8.747  -1.334  24.561  0.00  0.00    +0.007 C 
ATOM     10  C   UNL     1       7.978  -0.833  22.228  0.00  0.00    +0.007 C 
ENDROOT
BRANCH   3  11
ATOM     11  C   UNL     1       9.979   2.767  23.709  0.00  0.00    +0.159 C 
ATOM     12  O   UNL     1      11.065   3.225  23.339  0.00  0.00    -0.295 OA
BRANCH  11  13
ATOM     13  C   UNL     1       8.992   3.654  24.443  0.00  0.00    +0.197 C 
BRANCH  13  14
ATOM     14  N   UNL     1       8.404   4.661  23.582  0.00  0.00    -0.330 N 
ATOM     15  C   UNL     1       7.511   4.437  22.575  0.00  0.00    +0.199 A 
ATOM     16  N   UNL     1       7.210   5.551  21.946  0.00  0.00    -0.244 NA
ATOM     17  C   UNL     1       7.945   6.527  22.566  0.00  0.00    +0.130 A 
ATOM     18  C   UNL     1       8.703   5.995  23.582  0.00  0.00    +0.107 A 
ENDBRANCH  13  14
ENDBRANCH  11  13
ENDBRANCH   3  11
TORSDOF 3
ENDMDL
MODEL 9
REMARK VINA RESULT:      -5.7      1.725      2.375
REMARK  Name = 
REMARK  3 active torsions:
REMARK  status: ('A' for Active; 'I' for Inactive)
REMARK    1  A    between atoms: C_11  and  C_14
REMARK    2  A    between atoms: C_14  and  C_16
REMARK    3  A    between atoms: C_16  and  N_17
REMARK                            x       y       z     vdW  Elec       q    Type
REMARK                         _______ _______ _______ _____ _____    ______ ____
ROOT
ATOM      1  C   UNL     1       8.201   0.576  22.902  0.00  0.00    -0.010 C 
ATOM      2  C   UNL     1       7.739  -0.885  22.769  0.00  0.00    +0.018 C 
ATOM      3  C   UNL     1       8.644  -1.819  23.608  0.00  0.00    +0.032 C 
ATOM      4  C   UNL     1       8.601  -1.374  25.087  0.00  0.00    +0.018 C 
ATOM      5  C   UNL     1       9.064   0.089  25.222  0.00  0.00    -0.010 C 
ATOM      6  C   UNL     1      10.506   0.220  24.705  0.00  0.00    +0.007 C 
ATOM      7  C   UNL     1      10.573  -0.200  23.229  0.00  0.00    -0.010 C 
ATOM      8  C   UNL     1      10.103  -1.658  23.101  0.00  0.00    +0.018 C 
ATOM      9  C   UNL     1       9.646   0.700  22.396  0.00  0.00    +0.007 C 
ATOM     10  C   UNL     1       8.144   0.992  24.381  0.00  0.00    +0.007 C 
ENDROOT
BRANCH   3  11
ATOM     11  C   UNL     1       8.197  -3.283  23.444  0.00  0.00    +0.159 C 
ATOM     12  O   UNL     1       8.532  -4.147  24.261  0.00  0.00    -0.295 OA
BRANCH  11  13
ATOM     13  C   UNL     1       7.367  -3.665  22.234  0.00  0.00    +0.197 C 
BRANCH  13  14
ATOM     14  N   UNL     1       6.079  -4.220  22.597  0.00  0.00    -0.330 N 
ATOM     15  C   UNL     1       5.570  -5.416  22.178  0.00  0.00    +0.199 A 
ATOM     16  N   UNL     1       4.355  -5.607  22.641  0.00  0.00    -0.244 NA
ATOM     17  C   UNL     1       4.067  -4.490  23.378  0.00  0.00    +0.130 A 
ATOM     18  C   UNL     1       5.123  -3.608  23.359  0.00  0.00    +0.107 A 
ENDBRANCH  13  14
ENDBRANCH  11  13
ENDBRANCH   3  11
TORSDOF 3
ENDMDL
