MODEL 1
REMARK VINA RESULT:      -6.1      0.000      0.000
REMARK  Name = 
REMARK  11 active torsions:
REMARK  status: ('A' for Active; 'I' for Inactive)
REMARK    1  A    between atoms: C_1  and  C_2
REMARK    2  A    between atoms: C_2  and  C_3
REMARK    3  A    between atoms: C_3  and  C_4
REMARK    4  A    between atoms: C_4  and  N_5
REMARK    5  A    between atoms: C_6  and  C_7
REMARK    6  A    between atoms: C_7  and  C_8
REMARK    7  A    between atoms: C_9  and  O_10
REMARK    8  A    between atoms: O_10  and  C_11
REMARK    9  A    between atoms: C_14  and  O_15
REMARK   10  A    between atoms: O_15  and  C_16
REMARK   11  A    between atoms: C_20  and  N_21
REMARK                            x       y       z     vdW  Elec       q    Type
REMARK                         _______ _______ _______ _____ _____    ______ ____
ROOT
ATOM      1  N   UNL     1       8.389  -2.460  24.998  0.00  0.00    -0.312 N 
ATOM      2  C   UNL     1       9.035  -1.398  24.421  0.00  0.00    +0.168 A 
ATOM      3  C   UNL     1       8.995  -1.637  23.060  0.00  0.00    +0.148 A 
ATOM      4  C   UNL     1       9.563  -0.653  22.233  0.00  0.00    +0.150 A 
ATOM      5  N   UNL     1      10.135   0.427  22.806  0.00  0.00    -0.185 NA
ATOM      6  C   UNL     1      10.148   0.509  24.152  0.00  0.00    +0.313 A 
ATOM      7  F   UNL     1      10.779   1.573  24.675  0.00  0.00    -0.161 F 
ATOM      8  N   UNL     1       8.401  -2.857  22.807  0.00  0.00    -0.227 NA
ATOM      9  N   UNL     1       9.605  -0.350  25.036  0.00  0.00    -0.182 NA
ATOM     10  C   UNL     1       8.160  -3.389  23.998  0.00  0.00    +0.116 A 
ENDROOT
BRANCH   4  11
ATOM     11  N   UNL     1       9.572  -0.722  20.844  0.00  0.00    -0.341 N 
ATOM     12  H   UNL     1       8.915  -1.408  20.494  0.00  0.00    +0.144 HD
ATOM     13  H   UNL     1      10.500  -0.705  20.437  0.00  0.00    +0.144 HD
ENDBRANCH   4  11
BRANCH   1  14
ATOM     14  C   UNL     1       8.139  -2.612  26.418  0.00  0.00    +0.125 C 
BRANCH  14  15
ATOM     15  C   UNL     1       6.712  -2.288  26.890  0.00  0.00    +0.021 C 
BRANCH  15  17
ATOM     16  C   UNL     1       4.458  -2.234  25.754  0.00  0.00    +0.004 C 
ATOM     17  C   UNL     1       5.855  -1.628  25.811  0.00  0.00    -0.002 C 
ENDBRANCH  15  17
ENDBRANCH  14  15
ENDBRANCH   1  14
BRANCH  10  18
ATOM     18  C   UNL     1       7.837  -4.841  24.237  0.00  0.00    +0.113 C 
BRANCH  18  19
ATOM     19  C   UNL     1       6.378  -5.178  24.488  0.00  0.00    +0.005 A 
ATOM     20  C   UNL     1       5.416  -5.037  23.467  0.00  0.00    +0.053 A 
ATOM     21  C   UNL     1       4.082  -5.375  23.695  0.00  0.00    +0.121 A 
ATOM     22  C   UNL     1       3.695  -5.850  24.944  0.00  0.00    +0.049 A 
ATOM     23  C   UNL     1       4.641  -6.054  25.948  0.00  0.00    +0.049 A 
ATOM     24  C   UNL     1       5.982  -5.725  25.728  0.00  0.00    +0.124 A 
BRANCH  21  25
ATOM     25  O   UNL     1       3.071  -5.263  22.782  0.00  0.00    -0.495 OA
ATOM     26  C   UNL     1       1.856  -5.917  23.128  0.00  0.00    +0.277 C 
ENDBRANCH  21  25
BRANCH  24  27
ATOM     27  O   UNL     1       6.977  -5.920  26.652  0.00  0.00    -0.495 OA
ATOM     28  C   UNL     1       6.610  -5.847  28.025  0.00  0.00    +0.277 C 
ENDBRANCH  24  27
ENDBRANCH  18  19
ENDBRANCH  10  18
TORSDOF 8
ENDMDL
MODEL 2
REMARK VINA RESULT:      -6.1      2.085      3.429
REMARK  Name = 
REMARK  11 active torsions:
REMARK  status: ('A' for Active; 'I' for Inactive)
REMARK    1  A    between atoms: C_1  and  C_2
REMARK    2  A    between atoms: C_2  and  C_3
REMARK    3  A    between atoms: C_3  and  C_4
REMARK    4  A    between atoms: C_4  and  N_5
REMARK    5  A    between atoms: C_6  and  C_7
REMARK    6  A    between atoms: C_7  and  C_8
REMARK    7  A    between atoms: C_9  and  O_10
REMARK    8  A    between atoms: O_10  and  C_11
REMARK    9  A    between atoms: C_14  and  O_15
REMARK   10  A    between atoms: O_15  and  C_16
REMARK   11  A    between atoms: C_20  and  N_21
REMARK                            x       y       z     vdW  Elec       q    Type
REMARK                         _______ _______ _______ _____ _____    ______ ____
ROOT
ATOM      1  N   UNL     1       8.711  -0.628  25.159  0.00  0.00    -0.312 N 
ATOM      2  C   UNL     1       8.805   0.674  24.741  0.00  0.00    +0.168 A 
ATOM      3  C   UNL     1       9.200   0.609  23.418  0.00  0.00    +0.148 A 
ATOM      4  C   UNL     1       9.326   1.834  22.739  0.00  0.00    +0.150 A 
ATOM      5  N   UNL     1       9.096   2.978  23.417  0.00  0.00    -0.185 NA
ATOM      6  C   UNL     1       8.766   2.898  24.722  0.00  0.00    +0.313 A 
ATOM      7  F   UNL     1       8.603   4.066  25.365  0.00  0.00    -0.161 F 
ATOM      8  N   UNL     1       9.416  -0.703  23.049  0.00  0.00    -0.227 NA
ATOM      9  N   UNL     1       8.581   1.786  25.459  0.00  0.00    -0.182 NA
ATOM     10  C   UNL     1       9.237  -1.418  24.152  0.00  0.00    +0.116 A 
ENDROOT
BRANCH   4  11
ATOM     11  N   UNL     1       9.677   1.942  21.399  0.00  0.00    -0.341 N 
ATOM     12  H   UNL     1      10.432   1.314  21.152  0.00  0.00    +0.144 HD
ATOM     13  H   UNL     1       9.726   2.896  21.062  0.00  0.00    +0.144 HD
ENDBRANCH   4  11
BRANCH   1  14
ATOM     14  C   UNL     1       8.274  -1.051  26.475  0.00  0.00    +0.125 C 
BRANCH  14  15
ATOM     15  C   UNL     1       6.752  -1.100  26.696  0.00  0.00    +0.021 C 
BRANCH  15  17
ATOM     16  C   UNL     1       4.769  -2.249  25.640  0.00  0.00    +0.004 C 
ATOM     17  C   UNL     1       5.964  -1.333  25.409  0.00  0.00    -0.002 C 
ENDBRANCH  15  17
ENDBRANCH  14  15
ENDBRANCH   1  14
BRANCH  10  18
ATOM     18  C   UNL     1       9.689  -2.844  24.330  0.00  0.00    +0.113 C 
BRANCH  18  19
ATOM     19  C   UNL     1       8.630  -3.840  24.765  0.00  0.00    +0.005 A 
ATOM     20  C   UNL     1       8.595  -4.329  26.087  0.00  0.00    +0.053 A 
ATOM     21  C   UNL     1       7.603  -5.223  26.489  0.00  0.00    +0.121 A 
ATOM     22  C   UNL     1       6.641  -5.642  25.576  0.00  0.00    +0.049 A 
ATOM     23  C   UNL     1       6.621  -5.124  24.282  0.00  0.00    +0.049 A 
ATOM     24  C   UNL     1       7.607  -4.222  23.870  0.00  0.00    +0.124 A 
BRANCH  21  25
ATOM     25  O   UNL     1       7.488  -5.767  27.738  0.00  0.00    -0.495 OA
ATOM     26  C   UNL     1       6.163  -5.851  28.251  0.00  0.00    +0.277 C 
ENDBRANCH  21  25
BRANCH  24  27
ATOM     27  O   UNL     1       7.644  -3.647  22.625  0.00  0.00    -0.495 OA
ATOM     28  C   UNL     1       6.418  -3.141  22.108  0.00  0.00    +0.277 C 
ENDBRANCH  24  27
ENDBRANCH  18  19
ENDBRANCH  10  18
TORSDOF 8
ENDMDL
MODEL 3
REMARK VINA RESULT:      -6.0      1.957      3.182
REMARK  Name = 
REMARK  11 active torsions:
REMARK  status: ('A' for Active; 'I' for Inactive)
REMARK    1  A    between atoms: C_1  and  C_2
REMARK    2  A    between atoms: C_2  and  C_3
REMARK    3  A    between atoms: C_3  and  C_4
REMARK    4  A    between atoms: C_4  and  N_5
REMARK    5  A    between atoms: C_6  and  C_7
REMARK    6  A    between atoms: C_7  and  C_8
REMARK    7  A    between atoms: C_9  and  O_10
REMARK    8  A    between atoms: O_10  and  C_11
REMARK    9  A    between atoms: C_14  and  O_15
REMARK   10  A    between atoms: O_15  and  C_16
REMARK   11  A    between atoms: C_20  and  N_21
REMARK                            x       y       z     vdW  Elec       q    Type
REMARK                         _______ _______ _______ _____ _____    ______ ____
ROOT
ATOM      1  N   UNL     1       8.173  -2.019  23.732  0.00  0.00    -0.312 N 
ATOM      2  C   UNL     1       8.885  -0.872  23.973  0.00  0.00    +0.168 A 
ATOM      3  C   UNL     1       7.988   0.163  23.789  0.00  0.00    +0.148 A 
ATOM      4  C   UNL     1       8.472   1.462  24.023  0.00  0.00    +0.150 A 
ATOM      5  N   UNL     1       9.767   1.620  24.370  0.00  0.00    -0.185 NA
ATOM      6  C   UNL     1      10.546   0.523  24.465  0.00  0.00    +0.313 A 
ATOM      7  F   UNL     1      11.838   0.737  24.758  0.00  0.00    -0.161 F 
ATOM      8  N   UNL     1       6.769  -0.330  23.372  0.00  0.00    -0.227 NA
ATOM      9  N   UNL     1      10.182  -0.763  24.301  0.00  0.00    -0.182 NA
ATOM     10  C   UNL     1       6.945  -1.637  23.224  0.00  0.00    +0.116 A 
ENDROOT
BRANCH   4  11
ATOM     11  N   UNL     1       7.692   2.608  23.920  0.00  0.00    -0.341 N 
ATOM     12  H   UNL     1       7.628   3.105  24.800  0.00  0.00    +0.144 HD
ATOM     13  H   UNL     1       6.839   2.478  23.389  0.00  0.00    +0.144 HD
ENDBRANCH   4  11
BRANCH   1  14
ATOM     14  C   UNL     1       8.696  -3.366  23.859  0.00  0.00    +0.125 C 
BRANCH  14  15
ATOM     15  C   UNL     1       8.691  -3.959  25.278  0.00  0.00    +0.021 C 
BRANCH  15  17
ATOM     16  C   UNL     1       7.231  -5.273  26.864  0.00  0.00    +0.004 C 
ATOM     17  C   UNL     1       7.737  -5.142  25.433  0.00  0.00    -0.002 C 
ENDBRANCH  15  17
ENDBRANCH  14  15
ENDBRANCH   1  14
BRANCH  10  18
ATOM     18  C   UNL     1       6.009  -2.546  22.469  0.00  0.00    +0.113 C 
BRANCH  18  19
ATOM     19  C   UNL     1       5.248  -3.568  23.293  0.00  0.00    +0.005 A 
ATOM     20  C   UNL     1       4.642  -3.209  24.514  0.00  0.00    +0.053 A 
ATOM     21  C   UNL     1       3.919  -4.146  25.252  0.00  0.00    +0.121 A 
ATOM     22  C   UNL     1       3.800  -5.450  24.784  0.00  0.00    +0.049 A 
ATOM     23  C   UNL     1       4.339  -5.810  23.549  0.00  0.00    +0.049 A 
ATOM     24  C   UNL     1       5.060  -4.877  22.797  0.00  0.00    +0.124 A 
BRANCH  21  25
ATOM     25  O   UNL     1       3.308  -3.906  26.451  0.00  0.00    -0.495 OA
ATOM     26  C   UNL     1       3.491  -4.907  27.446  0.00  0.00    +0.277 C 
ENDBRANCH  21  25
BRANCH  24  27
ATOM     27  O   UNL     1       5.599  -5.143  21.564  0.00  0.00    -0.495 OA
ATOM     28  C   UNL     1       6.751  -5.978  21.526  0.00  0.00    +0.277 C 
ENDBRANCH  24  27
ENDBRANCH  18  19
ENDBRANCH  10  18
TORSDOF 8
ENDMDL
MODEL 4
REMARK VINA RESULT:      -5.9      1.558      3.982
REMARK  Name = 
REMARK  11 active torsions:
REMARK  status: ('A' for Active; 'I' for Inactive)
REMARK    1  A    between atoms: C_1  and  C_2
REMARK    2  A    between atoms: C_2  and  C_3
REMARK    3  A    between atoms: C_3  and  C_4
REMARK    4  A    between atoms: C_4  and  N_5
REMARK    5  A    between atoms: C_6  and  C_7
REMARK    6  A    between atoms: C_7  and  C_8
REMARK    7  A    between atoms: C_9  and  O_10
REMARK    8  A    between atoms: O_10  and  C_11
REMARK    9  A    between atoms: C_14  and  O_15
REMARK   10  A    between atoms: O_15  and  C_16
REMARK   11  A    between atoms: C_20  and  N_21
REMARK                            x       y       z     vdW  Elec       q    Type
REMARK                         _______ _______ _______ _____ _____    ______ ____
ROOT
ATOM      1  N   UNL     1       7.265  -2.793  23.691  0.00  0.00    -0.312 N 
ATOM      2  C   UNL     1       8.129  -1.774  23.998  0.00  0.00    +0.168 A 
ATOM      3  C   UNL     1       7.596  -1.162  25.116  0.00  0.00    +0.148 A 
ATOM      4  C   UNL     1       8.334  -0.096  25.661  0.00  0.00    +0.150 A 
ATOM      5  N   UNL     1       9.475   0.283  25.049  0.00  0.00    -0.185 NA
ATOM      6  C   UNL     1       9.854  -0.370  23.932  0.00  0.00    +0.313 A 
ATOM      7  F   UNL     1      10.966   0.081  23.330  0.00  0.00    -0.161 F 
ATOM      8  N   UNL     1       6.391  -1.745  25.450  0.00  0.00    -0.227 NA
ATOM      9  N   UNL     1       9.250  -1.422  23.348  0.00  0.00    -0.182 NA
ATOM     10  C   UNL     1       6.153  -2.641  24.500  0.00  0.00    +0.116 A 
ENDROOT
BRANCH   4  11
ATOM     11  N   UNL     1       7.957   0.600  26.803  0.00  0.00    -0.341 N 
ATOM     12  H   UNL     1       7.065   0.283  27.165  0.00  0.00    +0.144 HD
ATOM     13  H   UNL     1       8.115   1.599  26.748  0.00  0.00    +0.144 HD
ENDBRANCH   4  11
BRANCH   1  14
ATOM     14  C   UNL     1       7.450  -3.746  22.614  0.00  0.00    +0.125 C 
BRANCH  14  15
ATOM     15  C   UNL     1       7.703  -5.202  23.039  0.00  0.00    +0.021 C 
BRANCH  15  17
ATOM     16  C   UNL     1       6.178  -5.542  21.056  0.00  0.00    +0.004 C 
ATOM     17  C   UNL     1       6.977  -6.221  22.161  0.00  0.00    -0.002 C 
ENDBRANCH  15  17
ENDBRANCH  14  15
ENDBRANCH   1  14
BRANCH  10  18
ATOM     18  C   UNL     1       4.814  -3.282  24.245  0.00  0.00    +0.113 C 
BRANCH  18  19
ATOM     19  C   UNL     1       4.630  -4.695  24.767  0.00  0.00    +0.005 A 
ATOM     20  C   UNL     1       5.281  -5.123  25.942  0.00  0.00    +0.053 A 
ATOM     21  C   UNL     1       5.085  -6.414  26.434  0.00  0.00    +0.121 A 
ATOM     22  C   UNL     1       4.244  -7.290  25.755  0.00  0.00    +0.049 A 
ATOM     23  C   UNL     1       3.543  -6.867  24.627  0.00  0.00    +0.049 A 
ATOM     24  C   UNL     1       3.726  -5.573  24.129  0.00  0.00    +0.124 A 
BRANCH  21  25
ATOM     25  O   UNL     1       5.677  -6.932  27.551  0.00  0.00    -0.495 OA
ATOM     26  C   UNL     1       6.254  -5.980  28.438  0.00  0.00    +0.277 C 
ENDBRANCH  21  25
BRANCH  24  27
ATOM     27  O   UNL     1       3.057  -5.071  23.042  0.00  0.00    -0.495 OA
ATOM     28  C   UNL     1       1.655  -5.312  22.975  0.00  0.00    +0.277 C 
ENDBRANCH  24  27
ENDBRANCH  18  19
ENDBRANCH  10  18
TORSDOF 8
ENDMDL
MODEL 5
REMARK VINA RESULT:      -5.9      2.192      3.022
REMARK  Name = 
REMARK  11 active torsions:
REMARK  status: ('A' for Active; 'I' for Inactive)
REMARK    1  A    between atoms: C_1  and  C_2
REMARK    2  A    between atoms: C_2  and  C_3
REMARK    3  A    between atoms: C_3  and  C_4
REMARK    4  A    between atoms: C_4  and  N_5
REMARK    5  A    between atoms: C_6  and  C_7
REMARK    6  A    between atoms: C_7  and  C_8
REMARK    7  A    between atoms: C_9  and  O_10
REMARK    8  A    between atoms: O_10  and  C_11
REMARK    9  A    between atoms: C_14  and  O_15
REMARK   10  A    between atoms: O_15  and  C_16
REMARK   11  A    between atoms: C_20  and  N_21
REMARK                            x       y       z     vdW  Elec       q    Type
REMARK                         _______ _______ _______ _____ _____    ______ ____
ROOT
ATOM      1  N   UNL     1       7.678  -1.231  24.811  0.00  0.00    -0.312 N 
ATOM      2  C   UNL     1       7.878  -0.300  23.824  0.00  0.00    +0.168 A 
ATOM      3  C   UNL     1       6.689   0.398  23.729  0.00  0.00    +0.148 A 
ATOM      4  C   UNL     1       6.653   1.454  22.802  0.00  0.00    +0.150 A 
ATOM      5  N   UNL     1       7.747   1.693  22.048  0.00  0.00    -0.185 NA
ATOM      6  C   UNL     1       8.826   0.900  22.209  0.00  0.00    +0.313 A 
ATOM      7  F   UNL     1       9.866   1.143  21.396  0.00  0.00    -0.161 F 
ATOM      8  N   UNL     1       5.752  -0.138  24.588  0.00  0.00    -0.227 NA
ATOM      9  N   UNL     1       8.983  -0.109  23.087  0.00  0.00    -0.182 NA
ATOM     10  C   UNL     1       6.334  -1.198  25.136  0.00  0.00    +0.116 A 
ENDROOT
BRANCH   4  11
ATOM     11  N   UNL     1       5.550   2.277  22.611  0.00  0.00    -0.341 N 
ATOM     12  H   UNL     1       4.884   1.875  21.961  0.00  0.00    +0.144 HD
ATOM     13  H   UNL     1       5.781   3.257  22.504  0.00  0.00    +0.144 HD
ENDBRANCH   4  11
BRANCH   1  14
ATOM     14  C   UNL     1       8.681  -2.160  25.295  0.00  0.00    +0.125 C 
BRANCH  14  15
ATOM     15  C   UNL     1       9.073  -3.292  24.330  0.00  0.00    +0.021 C 
BRANCH  15  17
ATOM     16  C   UNL     1       9.037  -4.573  26.505  0.00  0.00    +0.004 C 
ATOM     17  C   UNL     1       9.064  -4.672  24.985  0.00  0.00    -0.002 C 
ENDBRANCH  15  17
ENDBRANCH  14  15
ENDBRANCH   1  14
BRANCH  10  18
ATOM     18  C   UNL     1       5.603  -2.290  25.871  0.00  0.00    +0.113 C 
BRANCH  18  19
ATOM     19  C   UNL     1       5.446  -3.611  25.141  0.00  0.00    +0.005 A 
ATOM     20  C   UNL     1       5.408  -3.659  23.732  0.00  0.00    +0.053 A 
ATOM     21  C   UNL     1       5.292  -4.878  23.064  0.00  0.00    +0.121 A 
ATOM     22  C   UNL     1       5.207  -6.059  23.795  0.00  0.00    +0.049 A 
ATOM     23  C   UNL     1       5.305  -6.039  25.185  0.00  0.00    +0.049 A 
ATOM     24  C   UNL     1       5.428  -4.823  25.865  0.00  0.00    +0.124 A 
BRANCH  21  25
ATOM     25  O   UNL     1       5.231  -5.033  21.707  0.00  0.00    -0.495 OA
ATOM     26  C   UNL     1       6.341  -5.699  21.115  0.00  0.00    +0.277 C 
ENDBRANCH  21  25
BRANCH  24  27
ATOM     27  O   UNL     1       5.556  -4.719  27.226  0.00  0.00    -0.495 OA
ATOM     28  C   UNL     1       5.813  -5.919  27.948  0.00  0.00    +0.277 C 
ENDBRANCH  24  27
ENDBRANCH  18  19
ENDBRANCH  10  18
TORSDOF 8
ENDMDL
MODEL 6
REMARK VINA RESULT:      -5.8      3.957      7.114
REMARK  Name = 
REMARK  11 active torsions:
REMARK  status: ('A' for Active; 'I' for Inactive)
REMARK    1  A    between atoms: C_1  and  C_2
REMARK    2  A    between atoms: C_2  and  C_3
REMARK    3  A    between atoms: C_3  and  C_4
REMARK    4  A    between atoms: C_4  and  N_5
REMARK    5  A    between atoms: C_6  and  C_7
REMARK    6  A    between atoms: C_7  and  C_8
REMARK    7  A    between atoms: C_9  and  O_10
REMARK    8  A    between atoms: O_10  and  C_11
REMARK    9  A    between atoms: C_14  and  O_15
REMARK   10  A    between atoms: O_15  and  C_16
REMARK   11  A    between atoms: C_20  and  N_21
REMARK                            x       y       z     vdW  Elec       q    Type
REMARK                         _______ _______ _______ _____ _____    ______ ____
ROOT
ATOM      1  N   UNL     1       8.339  -1.704  23.707  0.00  0.00    -0.312 N 
ATOM      2  C   UNL     1       8.126  -3.054  23.817  0.00  0.00    +0.168 A 
ATOM      3  C   UNL     1       8.534  -3.388  25.095  0.00  0.00    +0.148 A 
ATOM      4  C   UNL     1       8.372  -4.732  25.474  0.00  0.00    +0.150 A 
ATOM      5  N   UNL     1       7.873  -5.606  24.574  0.00  0.00    -0.185 NA
ATOM      6  C   UNL     1       7.562  -5.153  23.342  0.00  0.00    +0.313 A 
ATOM      7  F   UNL     1       7.124  -6.071  22.466  0.00  0.00    -0.161 F 
ATOM      8  N   UNL     1       9.056  -2.282  25.734  0.00  0.00    -0.227 NA
ATOM      9  N   UNL     1       7.640  -3.888  22.885  0.00  0.00    -0.182 NA
ATOM     10  C   UNL     1       9.043  -1.310  24.830  0.00  0.00    +0.116 A 
ENDROOT
BRANCH   4  11
ATOM     11  N   UNL     1       8.696  -5.224  26.733  0.00  0.00    -0.341 N 
ATOM     12  H   UNL     1       9.407  -4.664  27.188  0.00  0.00    +0.144 HD
ATOM     13  H   UNL     1       8.795  -6.232  26.768  0.00  0.00    +0.144 HD
ENDBRANCH   4  11
BRANCH   1  14
ATOM     14  C   UNL     1       8.005  -0.900  22.547  0.00  0.00    +0.125 C 
BRANCH  14  15
ATOM     15  C   UNL     1       9.175  -0.543  21.615  0.00  0.00    +0.021 C 
BRANCH  15  17
ATOM     16  C   UNL     1       7.892   1.627  21.484  0.00  0.00    +0.004 C 
ATOM     17  C   UNL     1       9.236   0.944  21.268  0.00  0.00    -0.002 C 
ENDBRANCH  15  17
ENDBRANCH  14  15
ENDBRANCH   1  14
BRANCH  10  18
ATOM     18  C   UNL     1       9.818  -0.023  24.948  0.00  0.00    +0.113 C 
BRANCH  18  19
ATOM     19  C   UNL     1       9.002   1.255  25.005  0.00  0.00    +0.005 A 
ATOM     20  C   UNL     1       7.751   1.288  25.653  0.00  0.00    +0.053 A 
ATOM     21  C   UNL     1       7.018   2.472  25.727  0.00  0.00    +0.121 A 
ATOM     22  C   UNL     1       7.524   3.633  25.150  0.00  0.00    +0.049 A 
ATOM     23  C   UNL     1       8.786   3.637  24.559  0.00  0.00    +0.049 A 
ATOM     24  C   UNL     1       9.532   2.456  24.485  0.00  0.00    +0.124 A 
BRANCH  21  25
ATOM     25  O   UNL     1       5.792   2.608  26.317  0.00  0.00    -0.495 OA
ATOM     26  C   UNL     1       4.697   2.065  25.589  0.00  0.00    +0.277 C 
ENDBRANCH  21  25
BRANCH  24  27
ATOM     27  O   UNL     1      10.791   2.381  23.944  0.00  0.00    -0.495 OA
ATOM     28  C   UNL     1      11.318   3.568  23.360  0.00  0.00    +0.277 C 
ENDBRANCH  24  27
ENDBRANCH  18  19
ENDBRANCH  10  18
TORSDOF 8
ENDMDL
MODEL 7
REMARK VINA RESULT:      -5.8      3.797      7.353
REMARK  Name = 
REMARK  11 active torsions:
REMARK  status: ('A' for Active; 'I' for Inactive)
REMARK    1  A    between atoms: C_1  and  C_2
REMARK    2  A    between atoms: C_2  and  C_3
REMARK    3  A    between atoms: C_3  and  C_4
REMARK    4  A    between atoms: C_4  and  N_5
REMARK    5  A    between atoms: C_6  and  C_7
REMARK    6  A    between atoms: C_7  and  C_8
REMARK    7  A    between atoms: C_9  and  O_10
REMARK    8  A    between atoms: O_10  and  C_11
REMARK    9  A    between atoms: C_14  and  O_15
REMARK   10  A    between atoms: O_15  and  C_16
REMARK   11  A    between atoms: C_20  and  N_21
REMARK                            x       y       z     vdW  Elec       q    Type
REMARK                         _______ _______ _______ _____ _____    ______ ____
ROOT
ATOM      1  N   UNL     1       8.803  -2.306  23.957  0.00  0.00    -0.312 N 
ATOM      2  C   UNL     1       7.910  -3.301  23.655  0.00  0.00    +0.168 A 
ATOM      3  C   UNL     1       6.712  -2.905  24.219  0.00  0.00    +0.148 A 
ATOM      4  C   UNL     1       5.609  -3.750  24.008  0.00  0.00    +0.150 A 
ATOM      5  N   UNL     1       5.789  -4.893  23.314  0.00  0.00    -0.185 NA
ATOM      6  C   UNL     1       7.027  -5.183  22.862  0.00  0.00    +0.313 A 
ATOM      7  F   UNL     1       7.166  -6.357  22.227  0.00  0.00    -0.161 F 
ATOM      8  N   UNL     1       6.880  -1.726  24.917  0.00  0.00    -0.227 NA
ATOM      9  N   UNL     1       8.140  -4.433  22.972  0.00  0.00    -0.182 NA
ATOM     10  C   UNL     1       8.177  -1.454  24.849  0.00  0.00    +0.116 A 
ENDROOT
BRANCH   4  11
ATOM     11  N   UNL     1       4.328  -3.479  24.475  0.00  0.00    -0.341 N 
ATOM     12  H   UNL     1       4.323  -3.250  25.462  0.00  0.00    +0.144 HD
ATOM     13  H   UNL     1       3.622  -4.122  24.136  0.00  0.00    +0.144 HD
ENDBRANCH   4  11
BRANCH   1  14
ATOM     14  C   UNL     1      10.185  -2.267  23.520  0.00  0.00    +0.125 C 
BRANCH  14  15
ATOM     15  C   UNL     1      10.512  -1.257  22.407  0.00  0.00    +0.021 C 
BRANCH  15  17
ATOM     16  C   UNL     1       9.073   0.459  21.243  0.00  0.00    +0.004 C 
ATOM     17  C   UNL     1       9.349  -1.026  21.443  0.00  0.00    -0.002 C 
ENDBRANCH  15  17
ENDBRANCH  14  15
ENDBRANCH   1  14
BRANCH  10  18
ATOM     18  C   UNL     1       8.891  -0.464  25.733  0.00  0.00    +0.113 C 
BRANCH  18  19
ATOM     19  C   UNL     1       9.011   0.953  25.203  0.00  0.00    +0.005 A 
ATOM     20  C   UNL     1      10.133   1.351  24.448  0.00  0.00    +0.053 A 
ATOM     21  C   UNL     1      10.225   2.647  23.939  0.00  0.00    +0.121 A 
ATOM     22  C   UNL     1       9.203   3.558  24.185  0.00  0.00    +0.049 A 
ATOM     23  C   UNL     1       8.057   3.167  24.877  0.00  0.00    +0.049 A 
ATOM     24  C   UNL     1       7.952   1.868  25.385  0.00  0.00    +0.124 A 
BRANCH  21  25
ATOM     25  O   UNL     1      11.272   3.137  23.210  0.00  0.00    -0.495 OA
ATOM     26  C   UNL     1      11.600   4.502  23.447  0.00  0.00    +0.277 C 
ENDBRANCH  21  25
BRANCH  24  27
ATOM     27  O   UNL     1       6.850   1.397  26.053  0.00  0.00    -0.495 OA
ATOM     28  C   UNL     1       6.134   2.326  26.860  0.00  0.00    +0.277 C 
ENDBRANCH  24  27
ENDBRANCH  18  19
ENDBRANCH  10  18
TORSDOF 8
ENDMDL
MODEL 8
REMARK VINA RESULT:      -5.8      3.963      6.913
REMARK  Name = 
REMARK  11 active torsions:
REMARK  status: ('A' for Active; 'I' for Inactive)
REMARK    1  A    between atoms: C_1  and  C_2
REMARK    2  A    between atoms: C_2  and  C_3
REMARK    3  A    between atoms: C_3  and  C_4
REMARK    4  A    between atoms: C_4  and  N_5
REMARK    5  A    between atoms: C_6  and  C_7
REMARK    6  A    between atoms: C_7  and  C_8
REMARK    7  A    between atoms: C_9  and  O_10
REMARK    8  A    between atoms: O_10  and  C_11
REMARK    9  A    between atoms: C_14  and  O_15
REMARK   10  A    between atoms: O_15  and  C_16
REMARK   11  A    between atoms: C_20  and  N_21
REMARK                            x       y       z     vdW  Elec       q    Type
REMARK                         _______ _______ _______ _____ _____    ______ ____
ROOT
ATOM      1  N   UNL     1       7.614  -2.405  23.290  0.00  0.00    -0.312 N 
ATOM      2  C   UNL     1       6.866  -3.462  22.840  0.00  0.00    +0.168 A 
ATOM      3  C   UNL     1       5.640  -3.340  23.467  0.00  0.00    +0.148 A 
ATOM      4  C   UNL     1       4.666  -4.296  23.132  0.00  0.00    +0.150 A 
ATOM      5  N   UNL     1       4.991  -5.279  22.265  0.00  0.00    -0.185 NA
ATOM      6  C   UNL     1       6.243  -5.307  21.765  0.00  0.00    +0.313 A 
ATOM      7  F   UNL     1       6.533  -6.335  20.952  0.00  0.00    -0.161 F 
ATOM      8  N   UNL     1       5.656  -2.272  24.341  0.00  0.00    -0.227 NA
ATOM      9  N   UNL     1       7.239  -4.428  21.985  0.00  0.00    -0.182 NA
ATOM     10  C   UNL     1       6.897  -1.803  24.309  0.00  0.00    +0.116 A 
ENDROOT
BRANCH   4  11
ATOM     11  N   UNL     1       3.374  -4.294  23.643  0.00  0.00    -0.341 N 
ATOM     12  H   UNL     1       3.097  -5.208  23.982  0.00  0.00    +0.144 HD
ATOM     13  H   UNL     1       2.709  -3.779  23.079  0.00  0.00    +0.144 HD
ENDBRANCH   4  11
BRANCH   1  14
ATOM     14  C   UNL     1       8.962  -2.094  22.857  0.00  0.00    +0.125 C 
BRANCH  14  15
ATOM     15  C   UNL     1       9.084  -1.337  21.522  0.00  0.00    +0.021 C 
BRANCH  15  17
ATOM     16  C   UNL     1       8.633   1.131  21.249  0.00  0.00    +0.004 C 
ATOM     17  C   UNL     1       9.644   0.075  21.680  0.00  0.00    -0.002 C 
ENDBRANCH  15  17
ENDBRANCH  14  15
ENDBRANCH   1  14
BRANCH  10  18
ATOM     18  C   UNL     1       7.485  -0.868  25.333  0.00  0.00    +0.113 C 
BRANCH  18  19
ATOM     19  C   UNL     1       7.610   0.589  24.927  0.00  0.00    +0.005 A 
ATOM     20  C   UNL     1       6.468   1.352  24.608  0.00  0.00    +0.053 A 
ATOM     21  C   UNL     1       6.587   2.699  24.263  0.00  0.00    +0.121 A 
ATOM     22  C   UNL     1       7.844   3.293  24.227  0.00  0.00    +0.049 A 
ATOM     23  C   UNL     1       8.978   2.573  24.600  0.00  0.00    +0.049 A 
ATOM     24  C   UNL     1       8.870   1.225  24.953  0.00  0.00    +0.124 A 
BRANCH  21  25
ATOM     25  O   UNL     1       5.550   3.521  23.923  0.00  0.00    -0.495 OA
ATOM     26  C   UNL     1       5.117   3.437  22.569  0.00  0.00    +0.277 C 
ENDBRANCH  21  25
BRANCH  24  27
ATOM     27  O   UNL     1       9.931   0.454  25.356  0.00  0.00    -0.495 OA
ATOM     28  C   UNL     1      11.180   0.681  24.711  0.00  0.00    +0.277 C 
ENDBRANCH  24  27
ENDBRANCH  18  19
ENDBRANCH  10  18
TORSDOF 8
ENDMDL
MODEL 9
REMARK VINA RESULT:      -5.7      3.722      6.818
REMARK  Name = 
REMARK  11 active torsions:
REMARK  status: ('A' for Active; 'I' for Inactive)
REMARK    1  A    between atoms: C_1  and  C_2
REMARK    2  A    between atoms: C_2  and  C_3
REMARK    3  A    between atoms: C_3  and  C_4
REMARK    4  A    between atoms: C_4  and  N_5
REMARK    5  A    between atoms: C_6  and  C_7
REMARK    6  A    between atoms: C_7  and  C_8
REMARK    7  A    between atoms: C_9  and  O_10
REMARK    8  A    between atoms: O_10  and  C_11
REMARK    9  A    between atoms: C_14  and  O_15
REMARK   10  A    between atoms: O_15  and  C_16
REMARK   11  A    between atoms: C_20  and  N_21
REMARK                            x       y       z     vdW  Elec       q    Type
REMARK                         _______ _______ _______ _____ _____    ______ ____
ROOT
ATOM      1  N   UNL     1       8.716  -1.539  23.273  0.00  0.00    -0.312 N 
ATOM      2  C   UNL     1       8.740  -2.752  23.910  0.00  0.00    +0.168 A 
ATOM      3  C   UNL     1       7.419  -3.152  23.992  0.00  0.00    +0.148 A 
ATOM      4  C   UNL     1       7.178  -4.408  24.575  0.00  0.00    +0.150 A 
ATOM      5  N   UNL     1       8.225  -5.117  25.046  0.00  0.00    -0.185 NA
ATOM      6  C   UNL     1       9.460  -4.584  24.947  0.00  0.00    +0.313 A 
ATOM      7  F   UNL     1      10.461  -5.303  25.480  0.00  0.00    -0.161 F 
ATOM      8  N   UNL     1       6.592  -2.173  23.481  0.00  0.00    -0.227 NA
ATOM      9  N   UNL     1       9.810  -3.415  24.377  0.00  0.00    -0.182 NA
ATOM     10  C   UNL     1       7.389  -1.159  23.171  0.00  0.00    +0.116 A 
ENDROOT
BRANCH   4  11
ATOM     11  N   UNL     1       5.914  -4.973  24.699  0.00  0.00    -0.341 N 
ATOM     12  H   UNL     1       5.717  -5.258  25.651  0.00  0.00    +0.144 HD
ATOM     13  H   UNL     1       5.676  -5.617  23.954  0.00  0.00    +0.144 HD
ENDBRANCH   4  11
BRANCH   1  14
ATOM     14  C   UNL     1       9.887  -0.761  22.918  0.00  0.00    +0.125 C 
BRANCH  14  15
ATOM     15  C   UNL     1      10.476   0.117  24.035  0.00  0.00    +0.021 C 
BRANCH  15  17
ATOM     16  C   UNL     1      10.199   1.825  22.197  0.00  0.00    +0.004 C 
ATOM     17  C   UNL     1      10.556   1.596  23.660  0.00  0.00    -0.002 C 
ENDBRANCH  15  17
ENDBRANCH  14  15
ENDBRANCH   1  14
BRANCH  10  18
ATOM     18  C   UNL     1       6.920   0.247  22.901  0.00  0.00    +0.113 C 
BRANCH  18  19
ATOM     19  C   UNL     1       6.950   1.208  24.075  0.00  0.00    +0.005 A 
ATOM     20  C   UNL     1       7.047   0.731  25.399  0.00  0.00    +0.053 A 
ATOM     21  C   UNL     1       7.103   1.620  26.473  0.00  0.00    +0.121 A 
ATOM     22  C   UNL     1       7.055   2.990  26.237  0.00  0.00    +0.049 A 
ATOM     23  C   UNL     1       7.021   3.483  24.934  0.00  0.00    +0.049 A 
ATOM     24  C   UNL     1       6.972   2.601  23.849  0.00  0.00    +0.124 A 
BRANCH  21  25
ATOM     25  O   UNL     1       7.183   1.263  27.790  0.00  0.00    -0.495 OA
ATOM     26  C   UNL     1       6.024   0.634  28.327  0.00  0.00    +0.277 C 
ENDBRANCH  21  25
BRANCH  24  27
ATOM     27  O   UNL     1       6.963   3.004  22.538  0.00  0.00    -0.495 OA
ATOM     28  C   UNL     1       7.198   4.385  22.281  0.00  0.00    +0.277 C 
ENDBRANCH  24  27
ENDBRANCH  18  19
ENDBRANCH  10  18
TORSDOF 8
ENDMDL
