MODEL 1
REMARK VINA RESULT:      -7.1      0.000      0.000
REMARK  Name = 
REMARK  10 active torsions:
REMARK  status: ('A' for Active; 'I' for Inactive)
REMARK    1  A    between atoms: C_1  and  C_2
REMARK    2  A    between atoms: C_2  and  O_3
REMARK    3  A    between atoms: C_2  and  C_4
REMARK    4  A    between atoms: C_2  and  C_29
REMARK    5  A    between atoms: C_7  and  C_10
REMARK    6  A    between atoms: N_12  and  C_13
REMARK    7  A    between atoms: N_12  and  C_16
REMARK    8  A    between atoms: N_19  and  C_20
REMARK    9  A    between atoms: C_20  and  C_21
REMARK   10  A    between atoms: C_21  and  C_24
REMARK                            x       y       z     vdW  Elec       q    Type
REMARK                         _______ _______ _______ _____ _____    ______ ____
ROOT
ATOM      1  C   UNL     1       9.856   0.301  24.453  0.00  0.00    +0.247 C 
ATOM      2  N   UNL     1       9.244  -0.628  23.592  0.00  0.00    -0.291 N 
ATOM      3  O   UNL     1      10.753  -0.017  25.235  0.00  0.00    -0.270 OA
ENDROOT
BRANCH   1   7
ATOM      4  C   UNL     1       8.531   4.378  24.159  0.00  0.00    -0.008 A 
ATOM      5  C   UNL     1       7.768   3.438  24.873  0.00  0.00    +0.007 A 
ATOM      6  C   UNL     1       8.239   2.145  25.086  0.00  0.00    +0.013 A 
ATOM      7  C   UNL     1       9.417   1.720  24.481  0.00  0.00    +0.037 A 
ATOM      8  C   UNL     1      10.246   2.676  23.885  0.00  0.00    +0.013 A 
ATOM      9  C   UNL     1       9.812   3.993  23.735  0.00  0.00    +0.007 A 
BRANCH   4  11
ATOM     10  C   UNL     1       8.974   6.874  23.759  0.00  0.00    +0.056 C 
ATOM     11  C   UNL     1       7.932   5.750  23.838  0.00  0.00    +0.183 C 
BRANCH  11  12
ATOM     12  C   UNL     1       7.108   5.715  22.500  0.00  0.00    +0.422 C 
ATOM     13  F   UNL     1       7.568   6.665  21.642  0.00  0.00    -0.167 F 
ATOM     14  F   UNL     1       5.790   5.971  22.677  0.00  0.00    -0.167 F 
ATOM     15  F   UNL     1       7.193   4.525  21.859  0.00  0.00    -0.167 F 
ENDBRANCH  11  12
BRANCH  11  16
ATOM     16  O   UNL     1       7.113   6.105  24.981  0.00  0.00    -0.376 OA
ATOM     17  H   UNL     1       6.210   5.784  24.808  0.00  0.00    +0.211 HD
ENDBRANCH  11  16
ENDBRANCH   4  11
ENDBRANCH   1   7
BRANCH   2  18
ATOM     18  C   UNL     1       9.454  -2.084  23.880  0.00  0.00    +0.079 C 
ATOM     19  C   UNL     1       8.743  -3.005  22.867  0.00  0.00    +0.038 C 
ATOM     20  C   UNL     1       7.217  -2.870  23.010  0.00  0.00    +0.086 C 
ATOM     21  N   UNL     1       6.707  -3.263  24.324  0.00  0.00    -0.301 NA
ATOM     22  C   UNL     1       7.424  -2.497  25.367  0.00  0.00    +0.086 C 
ATOM     23  C   UNL     1       8.951  -2.576  25.263  0.00  0.00    +0.038 C 
BRANCH  21  24
ATOM     24  C   UNL     1       6.756  -4.716  24.564  0.00  0.00    +0.100 C 
BRANCH  24  25
ATOM     25  C   UNL     1       5.395  -5.399  24.393  0.00  0.00    +0.059 C 
ATOM     26  C   UNL     1       4.332  -5.032  25.434  0.00  0.00    +0.018 C 
ATOM     27  C   UNL     1       4.927  -6.395  25.470  0.00  0.00    +0.018 C 
BRANCH  25  28
ATOM     28  C   UNL     1       4.897  -5.637  22.986  0.00  0.00    +0.218 C 
ATOM     29  O   UNL     1       3.799  -5.251  22.610  0.00  0.00    -0.275 OA
ATOM     30  N   UNL     1       5.698  -6.392  22.182  0.00  0.00    -0.329 N 
ATOM     31  H   UNL     1       5.381  -6.612  21.258  0.00  0.00    +0.145 HD
ATOM     32  H   UNL     1       6.568  -6.784  22.528  0.00  0.00    +0.145 HD
ENDBRANCH  25  28
ENDBRANCH  24  25
ENDBRANCH  21  24
ENDBRANCH   2  18
BRANCH   2  33
ATOM     33  C   UNL     1       8.574  -0.311  22.332  0.00  0.00    +0.077 C 
ATOM     34  C   UNL     1       9.443  -0.017  21.123  0.00  0.00    +0.024 C 
ATOM     35  C   UNL     1       8.411   0.961  21.553  0.00  0.00    +0.024 C 
ENDBRANCH   2  33
TORSDOF 9
ENDMDL
MODEL 2
REMARK VINA RESULT:      -7.1      3.245      4.841
REMARK  Name = 
REMARK  10 active torsions:
REMARK  status: ('A' for Active; 'I' for Inactive)
REMARK    1  A    between atoms: C_1  and  C_2
REMARK    2  A    between atoms: C_2  and  O_3
REMARK    3  A    between atoms: C_2  and  C_4
REMARK    4  A    between atoms: C_2  and  C_29
REMARK    5  A    between atoms: C_7  and  C_10
REMARK    6  A    between atoms: N_12  and  C_13
REMARK    7  A    between atoms: N_12  and  C_16
REMARK    8  A    between atoms: N_19  and  C_20
REMARK    9  A    between atoms: C_20  and  C_21
REMARK   10  A    between atoms: C_21  and  C_24
REMARK                            x       y       z     vdW  Elec       q    Type
REMARK                         _______ _______ _______ _____ _____    ______ ____
ROOT
ATOM      1  C   UNL     1       8.554  -3.449  23.940  0.00  0.00    +0.247 C 
ATOM      2  N   UNL     1       7.341  -4.159  23.931  0.00  0.00    -0.291 N 
ATOM      3  O   UNL     1       9.600  -3.936  24.372  0.00  0.00    -0.270 OA
ENDROOT
BRANCH   1   7
ATOM      4  C   UNL     1       8.955   0.687  22.843  0.00  0.00    -0.008 A 
ATOM      5  C   UNL     1       9.553  -0.313  22.057  0.00  0.00    +0.007 A 
ATOM      6  C   UNL     1       9.333  -1.662  22.322  0.00  0.00    +0.013 A 
ATOM      7  C   UNL     1       8.622  -2.046  23.453  0.00  0.00    +0.037 A 
ATOM      8  C   UNL     1       7.913  -1.070  24.163  0.00  0.00    +0.013 A 
ATOM      9  C   UNL     1       8.070   0.281  23.854  0.00  0.00    +0.007 A 
BRANCH   4  11
ATOM     10  C   UNL     1       8.101   3.046  22.307  0.00  0.00    +0.056 C 
ATOM     11  C   UNL     1       9.315   2.155  22.601  0.00  0.00    +0.183 C 
BRANCH  11  12
ATOM     12  C   UNL     1      10.115   2.755  23.814  0.00  0.00    +0.422 C 
ATOM     13  F   UNL     1      10.914   3.771  23.391  0.00  0.00    -0.167 F 
ATOM     14  F   UNL     1      10.931   1.855  24.413  0.00  0.00    -0.167 F 
ATOM     15  F   UNL     1       9.310   3.257  24.780  0.00  0.00    -0.167 F 
ENDBRANCH  11  12
BRANCH  11  16
ATOM     16  O   UNL     1      10.081   2.180  21.369  0.00  0.00    -0.376 OA
ATOM     17  H   UNL     1      10.967   2.521  21.580  0.00  0.00    +0.211 HD
ENDBRANCH  11  16
ENDBRANCH   4  11
ENDBRANCH   1   7
BRANCH   2  18
ATOM     18  C   UNL     1       7.254  -5.397  24.772  0.00  0.00    +0.079 C 
ATOM     19  C   UNL     1       5.821  -5.960  24.867  0.00  0.00    +0.038 C 
ATOM     20  C   UNL     1       4.919  -4.985  25.643  0.00  0.00    +0.086 C 
ATOM     21  N   UNL     1       5.344  -4.755  27.025  0.00  0.00    -0.301 NA
ATOM     22  C   UNL     1       6.756  -4.315  27.028  0.00  0.00    +0.086 C 
ATOM     23  C   UNL     1       7.701  -5.239  26.250  0.00  0.00    +0.038 C 
BRANCH  21  24
ATOM     24  C   UNL     1       5.117  -5.912  27.910  0.00  0.00    +0.100 C 
BRANCH  24  25
ATOM     25  C   UNL     1       4.606  -5.515  29.299  0.00  0.00    +0.059 C 
ATOM     26  C   UNL     1       5.434  -6.028  30.482  0.00  0.00    +0.018 C 
ATOM     27  C   UNL     1       4.091  -6.619  30.240  0.00  0.00    +0.018 C 
BRANCH  25  28
ATOM     28  C   UNL     1       3.992  -4.144  29.459  0.00  0.00    +0.218 C 
ATOM     29  O   UNL     1       4.389  -3.345  30.296  0.00  0.00    -0.275 OA
ATOM     30  N   UNL     1       2.902  -3.877  28.684  0.00  0.00    -0.329 N 
ATOM     31  H   UNL     1       2.437  -2.997  28.795  0.00  0.00    +0.145 HD
ATOM     32  H   UNL     1       2.523  -4.576  28.054  0.00  0.00    +0.145 HD
ENDBRANCH  25  28
ENDBRANCH  24  25
ENDBRANCH  21  24
ENDBRANCH   2  18
BRANCH   2  33
ATOM     33  C   UNL     1       6.213  -3.911  23.034  0.00  0.00    +0.077 C 
ATOM     34  C   UNL     1       6.253  -4.544  21.655  0.00  0.00    +0.024 C 
ATOM     35  C   UNL     1       6.056  -3.078  21.797  0.00  0.00    +0.024 C 
ENDBRANCH   2  33
TORSDOF 9
ENDMDL
MODEL 3
REMARK VINA RESULT:      -7.0      3.762      8.931
REMARK  Name = 
REMARK  10 active torsions:
REMARK  status: ('A' for Active; 'I' for Inactive)
REMARK    1  A    between atoms: C_1  and  C_2
REMARK    2  A    between atoms: C_2  and  O_3
REMARK    3  A    between atoms: C_2  and  C_4
REMARK    4  A    between atoms: C_2  and  C_29
REMARK    5  A    between atoms: C_7  and  C_10
REMARK    6  A    between atoms: N_12  and  C_13
REMARK    7  A    between atoms: N_12  and  C_16
REMARK    8  A    between atoms: N_19  and  C_20
REMARK    9  A    between atoms: C_20  and  C_21
REMARK   10  A    between atoms: C_21  and  C_24
REMARK                            x       y       z     vdW  Elec       q    Type
REMARK                         _______ _______ _______ _____ _____    ______ ____
ROOT
ATOM      1  C   UNL     1       8.865  -2.001  23.032  0.00  0.00    +0.247 C 
ATOM      2  N   UNL     1       8.954  -0.889  23.889  0.00  0.00    -0.291 N 
ATOM      3  O   UNL     1       9.734  -2.263  22.199  0.00  0.00    -0.270 OA
ENDROOT
BRANCH   1   7
ATOM      4  C   UNL     1       5.453  -4.568  23.524  0.00  0.00    -0.008 A 
ATOM      5  C   UNL     1       5.317  -3.329  22.873  0.00  0.00    +0.007 A 
ATOM      6  C   UNL     1       6.429  -2.539  22.593  0.00  0.00    +0.013 A 
ATOM      7  C   UNL     1       7.683  -2.901  23.071  0.00  0.00    +0.037 A 
ATOM      8  C   UNL     1       7.854  -4.186  23.599  0.00  0.00    +0.013 A 
ATOM      9  C   UNL     1       6.752  -5.014  23.812  0.00  0.00    +0.007 A 
BRANCH   4  11
ATOM     10  C   UNL     1       4.476  -6.827  24.248  0.00  0.00    +0.056 C 
ATOM     11  C   UNL     1       4.202  -5.352  23.924  0.00  0.00    +0.183 C 
BRANCH  11  12
ATOM     12  C   UNL     1       3.474  -4.683  25.147  0.00  0.00    +0.422 C 
ATOM     13  F   UNL     1       4.386  -4.110  25.978  0.00  0.00    -0.167 F 
ATOM     14  F   UNL     1       2.775  -5.564  25.901  0.00  0.00    -0.167 F 
ATOM     15  F   UNL     1       2.607  -3.711  24.776  0.00  0.00    -0.167 F 
ENDBRANCH  11  12
BRANCH  11  16
ATOM     16  O   UNL     1       3.364  -5.398  22.741  0.00  0.00    -0.376 OA
ATOM     17  H   UNL     1       3.918  -5.695  21.998  0.00  0.00    +0.211 HD
ENDBRANCH  11  16
ENDBRANCH   4  11
ENDBRANCH   1   7
BRANCH   2  18
ATOM     18  C   UNL     1       9.953   0.174  23.544  0.00  0.00    +0.079 C 
ATOM     19  C   UNL     1      10.094   1.245  24.645  0.00  0.00    +0.038 C 
ATOM     20  C   UNL     1       8.793   2.057  24.764  0.00  0.00    +0.086 C 
ATOM     21  N   UNL     1       8.437   2.789  23.547  0.00  0.00    -0.301 NA
ATOM     22  C   UNL     1       8.389   1.842  22.413  0.00  0.00    +0.086 C 
ATOM     23  C   UNL     1       9.653   0.987  22.257  0.00  0.00    +0.038 C 
BRANCH  21  24
ATOM     24  C   UNL     1       9.315   3.943  23.276  0.00  0.00    +0.100 C 
BRANCH  24  25
ATOM     25  C   UNL     1       8.607   5.290  23.454  0.00  0.00    +0.059 C 
ATOM     26  C   UNL     1       9.524   6.498  23.672  0.00  0.00    +0.018 C 
ATOM     27  C   UNL     1       8.709   6.004  24.814  0.00  0.00    +0.018 C 
BRANCH  25  28
ATOM     28  C   UNL     1       7.354   5.540  22.647  0.00  0.00    +0.218 C 
ATOM     29  O   UNL     1       6.258   5.129  23.002  0.00  0.00    -0.275 OA
ATOM     30  N   UNL     1       7.524   6.167  21.449  0.00  0.00    -0.329 N 
ATOM     31  H   UNL     1       6.724   6.309  20.862  0.00  0.00    +0.145 HD
ATOM     32  H   UNL     1       8.447   6.428  21.119  0.00  0.00    +0.145 HD
ENDBRANCH  25  28
ENDBRANCH  24  25
ENDBRANCH  21  24
ENDBRANCH   2  18
BRANCH   2  33
ATOM     33  C   UNL     1       8.298  -0.758  25.189  0.00  0.00    +0.077 C 
ATOM     34  C   UNL     1       8.724  -1.704  26.296  0.00  0.00    +0.024 C 
ATOM     35  C   UNL     1       7.292  -1.602  25.915  0.00  0.00    +0.024 C 
ENDBRANCH   2  33
TORSDOF 9
ENDMDL
MODEL 4
REMARK VINA RESULT:      -7.0      3.894      9.273
REMARK  Name = 
REMARK  10 active torsions:
REMARK  status: ('A' for Active; 'I' for Inactive)
REMARK    1  A    between atoms: C_1  and  C_2
REMARK    2  A    between atoms: C_2  and  O_3
REMARK    3  A    between atoms: C_2  and  C_4
REMARK    4  A    between atoms: C_2  and  C_29
REMARK    5  A    between atoms: C_7  and  C_10
REMARK    6  A    between atoms: N_12  and  C_13
REMARK    7  A    between atoms: N_12  and  C_16
REMARK    8  A    between atoms: N_19  and  C_20
REMARK    9  A    between atoms: C_20  and  C_21
REMARK   10  A    between atoms: C_21  and  C_24
REMARK                            x       y       z     vdW  Elec       q    Type
REMARK                         _______ _______ _______ _____ _____    ______ ____
ROOT
ATOM      1  C   UNL     1       9.043  -2.952  23.842  0.00  0.00    +0.247 C 
ATOM      2  N   UNL     1       8.745  -1.654  23.389  0.00  0.00    -0.291 N 
ATOM      3  O   UNL     1      10.192  -3.311  24.104  0.00  0.00    -0.270 OA
ENDROOT
BRANCH   1   7
ATOM      4  C   UNL     1       5.726  -5.623  24.417  0.00  0.00    -0.008 A 
ATOM      5  C   UNL     1       6.182  -5.334  23.120  0.00  0.00    +0.007 A 
ATOM      6  C   UNL     1       7.329  -4.572  22.915  0.00  0.00    +0.013 A 
ATOM      7  C   UNL     1       7.972  -3.971  23.993  0.00  0.00    +0.037 A 
ATOM      8  C   UNL     1       7.612  -4.358  25.288  0.00  0.00    +0.013 A 
ATOM      9  C   UNL     1       6.508  -5.184  25.497  0.00  0.00    +0.007 A 
BRANCH   4  11
ATOM     10  C   UNL     1       4.214  -6.954  26.007  0.00  0.00    +0.056 C 
ATOM     11  C   UNL     1       4.397  -6.358  24.605  0.00  0.00    +0.183 C 
BRANCH  11  12
ATOM     12  C   UNL     1       3.176  -5.424  24.277  0.00  0.00    +0.422 C 
ATOM     13  F   UNL     1       2.105  -5.767  25.043  0.00  0.00    -0.167 F 
ATOM     14  F   UNL     1       2.765  -5.512  22.990  0.00  0.00    -0.167 F 
ATOM     15  F   UNL     1       3.434  -4.116  24.517  0.00  0.00    -0.167 F 
ENDBRANCH  11  12
BRANCH  11  16
ATOM     16  O   UNL     1       4.455  -7.516  23.732  0.00  0.00    -0.376 OA
ATOM     17  H   UNL     1       4.435  -7.195  22.814  0.00  0.00    +0.211 HD
ENDBRANCH  11  16
ENDBRANCH   4  11
ENDBRANCH   1   7
BRANCH   2  18
ATOM     18  C   UNL     1       9.885  -0.813  22.896  0.00  0.00    +0.079 C 
ATOM     19  C   UNL     1      10.614  -0.066  24.031  0.00  0.00    +0.038 C 
ATOM     20  C   UNL     1       9.684   0.991  24.653  0.00  0.00    +0.086 C 
ATOM     21  N   UNL     1       9.252   2.027  23.714  0.00  0.00    -0.301 NA
ATOM     22  C   UNL     1       8.635   1.381  22.535  0.00  0.00    +0.086 C 
ATOM     23  C   UNL     1       9.508   0.302  21.884  0.00  0.00    +0.038 C 
BRANCH  21  24
ATOM     24  C   UNL     1      10.324   2.968  23.341  0.00  0.00    +0.100 C 
BRANCH  24  25
ATOM     25  C   UNL     1      10.012   4.417  23.725  0.00  0.00    +0.059 C 
ATOM     26  C   UNL     1       8.952   4.601  24.816  0.00  0.00    +0.018 C 
ATOM     27  C   UNL     1       8.611   4.977  23.419  0.00  0.00    +0.018 C 
BRANCH  25  28
ATOM     28  C   UNL     1      11.153   5.407  23.729  0.00  0.00    +0.218 C 
ATOM     29  O   UNL     1      11.202   6.341  24.518  0.00  0.00    -0.275 OA
ATOM     30  N   UNL     1      12.081   5.263  22.741  0.00  0.00    -0.329 N 
ATOM     31  H   UNL     1      12.827   5.929  22.681  0.00  0.00    +0.145 HD
ATOM     32  H   UNL     1      11.988   4.539  22.036  0.00  0.00    +0.145 HD
ENDBRANCH  25  28
ENDBRANCH  24  25
ENDBRANCH  21  24
ENDBRANCH   2  18
BRANCH   2  33
ATOM     33  C   UNL     1       7.457  -0.976  23.526  0.00  0.00    +0.077 C 
ATOM     34  C   UNL     1       6.893  -0.805  24.924  0.00  0.00    +0.024 C 
ATOM     35  C   UNL     1       6.080  -1.460  23.867  0.00  0.00    +0.024 C 
ENDBRANCH   2  33
TORSDOF 9
ENDMDL
MODEL 5
REMARK VINA RESULT:      -6.9      2.676      3.341
REMARK  Name = 
REMARK  10 active torsions:
REMARK  status: ('A' for Active; 'I' for Inactive)
REMARK    1  A    between atoms: C_1  and  C_2
REMARK    2  A    between atoms: C_2  and  O_3
REMARK    3  A    between atoms: C_2  and  C_4
REMARK    4  A    between atoms: C_2  and  C_29
REMARK    5  A    between atoms: C_7  and  C_10
REMARK    6  A    between atoms: N_12  and  C_13
REMARK    7  A    between atoms: N_12  and  C_16
REMARK    8  A    between atoms: N_19  and  C_20
REMARK    9  A    between atoms: C_20  and  C_21
REMARK   10  A    between atoms: C_21  and  C_24
REMARK                            x       y       z     vdW  Elec       q    Type
REMARK                         _______ _______ _______ _____ _____    ______ ____
ROOT
ATOM      1  C   UNL     1       6.820   0.627  23.791  0.00  0.00    +0.247 C 
ATOM      2  N   UNL     1       7.498  -0.474  23.238  0.00  0.00    -0.291 N 
ATOM      3  O   UNL     1       5.686   0.532  24.265  0.00  0.00    -0.270 OA
ENDROOT
BRANCH   1   7
ATOM      4  C   UNL     1       8.933   4.368  23.870  0.00  0.00    -0.008 A 
ATOM      5  C   UNL     1       8.336   3.919  22.679  0.00  0.00    +0.007 A 
ATOM      6  C   UNL     1       7.543   2.775  22.660  0.00  0.00    +0.013 A 
ATOM      7  C   UNL     1       7.435   1.979  23.796  0.00  0.00    +0.037 A 
ATOM      8  C   UNL     1       7.909   2.481  25.013  0.00  0.00    +0.013 A 
ATOM      9  C   UNL     1       8.641   3.667  25.051  0.00  0.00    +0.007 A 
BRANCH   4  11
ATOM     10  C   UNL     1       9.860   6.420  25.100  0.00  0.00    +0.056 C 
ATOM     11  C   UNL     1       9.896   5.557  23.832  0.00  0.00    +0.183 C 
BRANCH  11  12
ATOM     12  C   UNL     1      11.373   5.088  23.568  0.00  0.00    +0.422 C 
ATOM     13  F   UNL     1      12.185   5.507  24.575  0.00  0.00    -0.167 F 
ATOM     14  F   UNL     1      11.897   5.591  22.424  0.00  0.00    -0.167 F 
ATOM     15  F   UNL     1      11.493   3.741  23.494  0.00  0.00    -0.167 F 
ENDBRANCH  11  12
BRANCH  11  16
ATOM     16  O   UNL     1       9.402   6.437  22.790  0.00  0.00    -0.376 OA
ATOM     17  H   UNL     1       9.192   7.293  23.202  0.00  0.00    +0.211 HD
ENDBRANCH  11  16
ENDBRANCH   4  11
ENDBRANCH   1   7
BRANCH   2  18
ATOM     18  C   UNL     1       6.693  -1.697  22.917  0.00  0.00    +0.079 C 
ATOM     19  C   UNL     1       5.797  -2.150  24.087  0.00  0.00    +0.038 C 
ATOM     20  C   UNL     1       6.664  -2.640  25.260  0.00  0.00    +0.086 C 
ATOM     21  N   UNL     1       7.502  -3.795  24.936  0.00  0.00    -0.301 NA
ATOM     22  C   UNL     1       8.320  -3.478  23.746  0.00  0.00    +0.086 C 
ATOM     23  C   UNL     1       7.511  -2.963  22.549  0.00  0.00    +0.038 C 
BRANCH  21  24
ATOM     24  C   UNL     1       6.741  -5.048  24.775  0.00  0.00    +0.100 C 
BRANCH  24  25
ATOM     25  C   UNL     1       6.126  -5.550  26.085  0.00  0.00    +0.059 C 
ATOM     26  C   UNL     1       5.047  -6.628  25.941  0.00  0.00    +0.018 C 
ATOM     27  C   UNL     1       4.639  -5.261  26.361  0.00  0.00    +0.018 C 
BRANCH  25  28
ATOM     28  C   UNL     1       7.030  -5.667  27.289  0.00  0.00    +0.218 C 
ATOM     29  O   UNL     1       6.594  -5.676  28.432  0.00  0.00    -0.275 OA
ATOM     30  N   UNL     1       8.370  -5.663  27.041  0.00  0.00    -0.329 N 
ATOM     31  H   UNL     1       9.004  -5.691  27.816  0.00  0.00    +0.145 HD
ATOM     32  H   UNL     1       8.728  -5.567  26.096  0.00  0.00    +0.145 HD
ENDBRANCH  25  28
ENDBRANCH  24  25
ENDBRANCH  21  24
ENDBRANCH   2  18
BRANCH   2  33
ATOM     33  C   UNL     1       8.949  -0.610  23.119  0.00  0.00    +0.077 C 
ATOM     34  C   UNL     1       9.775  -0.527  24.390  0.00  0.00    +0.024 C 
ATOM     35  C   UNL     1      10.080   0.367  23.244  0.00  0.00    +0.024 C 
ENDBRANCH   2  33
TORSDOF 9
ENDMDL
MODEL 6
REMARK VINA RESULT:      -6.8      2.650      3.254
REMARK  Name = 
REMARK  10 active torsions:
REMARK  status: ('A' for Active; 'I' for Inactive)
REMARK    1  A    between atoms: C_1  and  C_2
REMARK    2  A    between atoms: C_2  and  O_3
REMARK    3  A    between atoms: C_2  and  C_4
REMARK    4  A    between atoms: C_2  and  C_29
REMARK    5  A    between atoms: C_7  and  C_10
REMARK    6  A    between atoms: N_12  and  C_13
REMARK    7  A    between atoms: N_12  and  C_16
REMARK    8  A    between atoms: N_19  and  C_20
REMARK    9  A    between atoms: C_20  and  C_21
REMARK   10  A    between atoms: C_21  and  C_24
REMARK                            x       y       z     vdW  Elec       q    Type
REMARK                         _______ _______ _______ _____ _____    ______ ____
ROOT
ATOM      1  C   UNL     1       9.636  -1.227  22.868  0.00  0.00    +0.247 C 
ATOM      2  N   UNL     1       8.457  -1.880  23.267  0.00  0.00    -0.291 N 
ATOM      3  O   UNL     1      10.568  -1.822  22.323  0.00  0.00    -0.270 OA
ENDROOT
BRANCH   1   7
ATOM      4  C   UNL     1       9.833   3.022  23.484  0.00  0.00    -0.008 A 
ATOM      5  C   UNL     1       9.905   2.146  24.581  0.00  0.00    +0.007 A 
ATOM      6  C   UNL     1       9.969   0.767  24.395  0.00  0.00    +0.013 A 
ATOM      7  C   UNL     1       9.828   0.225  23.122  0.00  0.00    +0.037 A 
ATOM      8  C   UNL     1       9.891   1.082  22.018  0.00  0.00    +0.013 A 
ATOM      9  C   UNL     1       9.904   2.465  22.198  0.00  0.00    +0.007 A 
BRANCH   4  11
ATOM     10  C   UNL     1       8.873   4.844  25.014  0.00  0.00    +0.056 C 
ATOM     11  C   UNL     1       9.641   4.521  23.726  0.00  0.00    +0.183 C 
BRANCH  11  12
ATOM     12  C   UNL     1      11.019   5.278  23.742  0.00  0.00    +0.422 C 
ATOM     13  F   UNL     1      11.110   6.061  24.851  0.00  0.00    -0.167 F 
ATOM     14  F   UNL     1      11.189   6.102  22.681  0.00  0.00    -0.167 F 
ATOM     15  F   UNL     1      12.081   4.439  23.759  0.00  0.00    -0.167 F 
ENDBRANCH  11  12
BRANCH  11  16
ATOM     16  O   UNL     1       8.768   4.988  22.665  0.00  0.00    -0.376 OA
ATOM     17  H   UNL     1       7.895   4.580  22.802  0.00  0.00    +0.211 HD
ENDBRANCH  11  16
ENDBRANCH   4  11
ENDBRANCH   1   7
BRANCH   2  18
ATOM     18  C   UNL     1       8.482  -3.378  23.336  0.00  0.00    +0.079 C 
ATOM     19  C   UNL     1       7.088  -4.011  23.151  0.00  0.00    +0.038 C 
ATOM     20  C   UNL     1       6.182  -3.653  24.342  0.00  0.00    +0.086 C 
ATOM     21  N   UNL     1       6.671  -4.148  25.630  0.00  0.00    -0.301 NA
ATOM     22  C   UNL     1       8.056  -3.671  25.833  0.00  0.00    +0.086 C 
ATOM     23  C   UNL     1       9.002  -3.981  24.667  0.00  0.00    +0.038 C 
BRANCH  21  24
ATOM     24  C   UNL     1       6.553  -5.610  25.781  0.00  0.00    +0.100 C 
BRANCH  24  25
ATOM     25  C   UNL     1       5.437  -6.026  26.744  0.00  0.00    +0.059 C 
ATOM     26  C   UNL     1       4.373  -6.963  26.161  0.00  0.00    +0.018 C 
ATOM     27  C   UNL     1       3.999  -5.554  26.455  0.00  0.00    +0.018 C 
BRANCH  25  28
ATOM     28  C   UNL     1       5.801  -6.248  28.193  0.00  0.00    +0.218 C 
ATOM     29  O   UNL     1       6.349  -5.387  28.867  0.00  0.00    -0.275 OA
ATOM     30  N   UNL     1       5.574  -7.498  28.687  0.00  0.00    -0.329 N 
ATOM     31  H   UNL     1       5.846  -7.700  29.630  0.00  0.00    +0.145 HD
ATOM     32  H   UNL     1       5.200  -8.235  28.098  0.00  0.00    +0.145 HD
ENDBRANCH  25  28
ENDBRANCH  24  25
ENDBRANCH  21  24
ENDBRANCH   2  18
BRANCH   2  33
ATOM     33  C   UNL     1       7.149  -1.250  23.441  0.00  0.00    +0.077 C 
ATOM     34  C   UNL     1       6.828  -0.037  22.588  0.00  0.00    +0.024 C 
ATOM     35  C   UNL     1       6.713   0.041  24.067  0.00  0.00    +0.024 C 
ENDBRANCH   2  33
TORSDOF 9
ENDMDL
MODEL 7
REMARK VINA RESULT:      -6.5      1.850      2.341
REMARK  Name = 
REMARK  10 active torsions:
REMARK  status: ('A' for Active; 'I' for Inactive)
REMARK    1  A    between atoms: C_1  and  C_2
REMARK    2  A    between atoms: C_2  and  O_3
REMARK    3  A    between atoms: C_2  and  C_4
REMARK    4  A    between atoms: C_2  and  C_29
REMARK    5  A    between atoms: C_7  and  C_10
REMARK    6  A    between atoms: N_12  and  C_13
REMARK    7  A    between atoms: N_12  and  C_16
REMARK    8  A    between atoms: N_19  and  C_20
REMARK    9  A    between atoms: C_20  and  C_21
REMARK   10  A    between atoms: C_21  and  C_24
REMARK                            x       y       z     vdW  Elec       q    Type
REMARK                         _______ _______ _______ _____ _____    ______ ____
ROOT
ATOM      1  C   UNL     1       9.165  -0.409  25.137  0.00  0.00    +0.247 C 
ATOM      2  N   UNL     1       8.974  -1.584  24.389  0.00  0.00    -0.291 N 
ATOM      3  O   UNL     1       9.466  -0.429  26.331  0.00  0.00    -0.270 OA
ENDROOT
BRANCH   1   7
ATOM      4  C   UNL     1       8.480   3.577  23.683  0.00  0.00    -0.008 A 
ATOM      5  C   UNL     1       9.791   3.082  23.793  0.00  0.00    +0.007 A 
ATOM      6  C   UNL     1      10.030   1.755  24.142  0.00  0.00    +0.013 A 
ATOM      7  C   UNL     1       8.976   0.929  24.518  0.00  0.00    +0.037 A 
ATOM      8  C   UNL     1       7.667   1.365  24.284  0.00  0.00    +0.013 A 
ATOM      9  C   UNL     1       7.423   2.671  23.861  0.00  0.00    +0.007 A 
BRANCH   4  11
ATOM     10  C   UNL     1       7.271   5.348  22.274  0.00  0.00    +0.056 C 
ATOM     11  C   UNL     1       8.255   5.067  23.417  0.00  0.00    +0.183 C 
BRANCH  11  12
ATOM     12  C   UNL     1       7.768   5.812  24.713  0.00  0.00    +0.422 C 
ATOM     13  F   UNL     1       8.197   7.102  24.701  0.00  0.00    -0.167 F 
ATOM     14  F   UNL     1       8.247   5.264  25.856  0.00  0.00    -0.167 F 
ATOM     15  F   UNL     1       6.420   5.841  24.829  0.00  0.00    -0.167 F 
ENDBRANCH  11  12
BRANCH  11  16
ATOM     16  O   UNL     1       9.521   5.581  22.929  0.00  0.00    -0.376 OA
ATOM     17  H   UNL     1       9.515   6.546  23.053  0.00  0.00    +0.211 HD
ENDBRANCH  11  16
ENDBRANCH   4  11
ENDBRANCH   1   7
BRANCH   2  18
ATOM     18  C   UNL     1       8.801  -2.868  25.145  0.00  0.00    +0.079 C 
ATOM     19  C   UNL     1       8.662  -4.094  24.220  0.00  0.00    +0.038 C 
ATOM     20  C   UNL     1       7.346  -4.013  23.427  0.00  0.00    +0.086 C 
ATOM     21  N   UNL     1       6.146  -4.014  24.265  0.00  0.00    -0.301 NA
ATOM     22  C   UNL     1       6.254  -2.924  25.260  0.00  0.00    +0.086 C 
ATOM     23  C   UNL     1       7.557  -2.941  26.068  0.00  0.00    +0.038 C 
BRANCH  21  24
ATOM     24  C   UNL     1       5.867  -5.319  24.892  0.00  0.00    +0.100 C 
BRANCH  24  25
ATOM     25  C   UNL     1       4.494  -5.884  24.516  0.00  0.00    +0.059 C 
ATOM     26  C   UNL     1       4.087  -5.715  23.048  0.00  0.00    +0.018 C 
ATOM     27  C   UNL     1       3.387  -4.906  24.080  0.00  0.00    +0.018 C 
BRANCH  25  28
ATOM     28  C   UNL     1       4.047  -7.159  25.190  0.00  0.00    +0.218 C 
ATOM     29  O   UNL     1       3.489  -8.059  24.578  0.00  0.00    -0.275 OA
ATOM     30  N   UNL     1       4.210  -7.216  26.542  0.00  0.00    -0.329 N 
ATOM     31  H   UNL     1       3.882  -8.025  27.033  0.00  0.00    +0.145 HD
ATOM     32  H   UNL     1       4.593  -6.430  27.058  0.00  0.00    +0.145 HD
ENDBRANCH  25  28
ENDBRANCH  24  25
ENDBRANCH  21  24
ENDBRANCH   2  18
BRANCH   2  33
ATOM     33  C   UNL     1       9.115  -1.706  22.939  0.00  0.00    +0.077 C 
ATOM     34  C   UNL     1      10.501  -1.532  22.345  0.00  0.00    +0.024 C 
ATOM     35  C   UNL     1       9.369  -0.706  21.850  0.00  0.00    +0.024 C 
ENDBRANCH   2  33
TORSDOF 9
ENDMDL
MODEL 8
REMARK VINA RESULT:      -6.4      4.230      9.216
REMARK  Name = 
REMARK  10 active torsions:
REMARK  status: ('A' for Active; 'I' for Inactive)
REMARK    1  A    between atoms: C_1  and  C_2
REMARK    2  A    between atoms: C_2  and  O_3
REMARK    3  A    between atoms: C_2  and  C_4
REMARK    4  A    between atoms: C_2  and  C_29
REMARK    5  A    between atoms: C_7  and  C_10
REMARK    6  A    between atoms: N_12  and  C_13
REMARK    7  A    between atoms: N_12  and  C_16
REMARK    8  A    between atoms: N_19  and  C_20
REMARK    9  A    between atoms: C_20  and  C_21
REMARK   10  A    between atoms: C_21  and  C_24
REMARK                            x       y       z     vdW  Elec       q    Type
REMARK                         _______ _______ _______ _____ _____    ______ ____
ROOT
ATOM      1  C   UNL     1       9.200  -1.372  23.152  0.00  0.00    +0.247 C 
ATOM      2  N   UNL     1       9.083  -0.145  23.829  0.00  0.00    -0.291 N 
ATOM      3  O   UNL     1      10.094  -1.590  22.333  0.00  0.00    -0.270 OA
ENDROOT
BRANCH   1   7
ATOM      4  C   UNL     1       6.348  -4.425  24.159  0.00  0.00    -0.008 A 
ATOM      5  C   UNL     1       5.979  -3.367  23.311  0.00  0.00    +0.007 A 
ATOM      6  C   UNL     1       6.919  -2.437  22.873  0.00  0.00    +0.013 A 
ATOM      7  C   UNL     1       8.216  -2.463  23.374  0.00  0.00    +0.037 A 
ATOM      8  C   UNL     1       8.629  -3.581  24.107  0.00  0.00    +0.013 A 
ATOM      9  C   UNL     1       7.707  -4.557  24.485  0.00  0.00    +0.007 A 
BRANCH   4  11
ATOM     10  C   UNL     1       4.067  -4.615  25.317  0.00  0.00    +0.056 C 
ATOM     11  C   UNL     1       5.270  -5.356  24.718  0.00  0.00    +0.183 C 
BRANCH  11  12
ATOM     12  C   UNL     1       4.763  -6.366  23.626  0.00  0.00    +0.422 C 
ATOM     13  F   UNL     1       4.318  -7.508  24.215  0.00  0.00    -0.167 F 
ATOM     14  F   UNL     1       5.730  -6.741  22.755  0.00  0.00    -0.167 F 
ATOM     15  F   UNL     1       3.741  -5.874  22.887  0.00  0.00    -0.167 F 
ENDBRANCH  11  12
BRANCH  11  16
ATOM     16  O   UNL     1       5.873  -6.028  25.854  0.00  0.00    -0.376 OA
ATOM     17  H   UNL     1       6.606  -5.471  26.171  0.00  0.00    +0.211 HD
ENDBRANCH  11  16
ENDBRANCH   4  11
ENDBRANCH   1   7
BRANCH   2  18
ATOM     18  C   UNL     1       9.853   1.023  23.290  0.00  0.00    +0.079 C 
ATOM     19  C   UNL     1       9.820   2.248  24.225  0.00  0.00    +0.038 C 
ATOM     20  C   UNL     1       8.393   2.817  24.303  0.00  0.00    +0.086 C 
ATOM     21  N   UNL     1       7.872   3.289  23.019  0.00  0.00    -0.301 NA
ATOM     22  C   UNL     1       7.972   2.195  22.028  0.00  0.00    +0.086 C 
ATOM     23  C   UNL     1       9.369   1.573  21.922  0.00  0.00    +0.038 C 
BRANCH  21  24
ATOM     24  C   UNL     1       8.508   4.532  22.547  0.00  0.00    +0.100 C 
BRANCH  24  25
ATOM     25  C   UNL     1       7.735   5.792  22.949  0.00  0.00    +0.059 C 
ATOM     26  C   UNL     1       6.222   5.749  22.706  0.00  0.00    +0.018 C 
ATOM     27  C   UNL     1       7.059   6.628  21.846  0.00  0.00    +0.018 C 
BRANCH  25  28
ATOM     28  C   UNL     1       8.192   6.537  24.182  0.00  0.00    +0.218 C 
ATOM     29  O   UNL     1       9.279   7.095  24.240  0.00  0.00    -0.275 OA
ATOM     30  N   UNL     1       7.368   6.472  25.265  0.00  0.00    -0.329 N 
ATOM     31  H   UNL     1       7.657   6.913  26.118  0.00  0.00    +0.145 HD
ATOM     32  H   UNL     1       6.508   5.934  25.239  0.00  0.00    +0.145 HD
ENDBRANCH  25  28
ENDBRANCH  24  25
ENDBRANCH  21  24
ENDBRANCH   2  18
BRANCH   2  33
ATOM     33  C   UNL     1       8.429   0.058  25.121  0.00  0.00    +0.077 C 
ATOM     34  C   UNL     1       9.035  -0.619  26.336  0.00  0.00    +0.024 C 
ATOM     35  C   UNL     1       7.604  -0.835  26.000  0.00  0.00    +0.024 C 
ENDBRANCH   2  33
TORSDOF 9
ENDMDL
MODEL 9
REMARK VINA RESULT:      -6.4      1.928      2.479
REMARK  Name = 
REMARK  10 active torsions:
REMARK  status: ('A' for Active; 'I' for Inactive)
REMARK    1  A    between atoms: C_1  and  C_2
REMARK    2  A    between atoms: C_2  and  O_3
REMARK    3  A    between atoms: C_2  and  C_4
REMARK    4  A    between atoms: C_2  and  C_29
REMARK    5  A    between atoms: C_7  and  C_10
REMARK    6  A    between atoms: N_12  and  C_13
REMARK    7  A    between atoms: N_12  and  C_16
REMARK    8  A    between atoms: N_19  and  C_20
REMARK    9  A    between atoms: C_20  and  C_21
REMARK   10  A    between atoms: C_21  and  C_24
REMARK                            x       y       z     vdW  Elec       q    Type
REMARK                         _______ _______ _______ _____ _____    ______ ____
ROOT
ATOM      1  C   UNL     1       8.877  -0.234  22.695  0.00  0.00    +0.247 C 
ATOM      2  N   UNL     1       8.690  -0.999  23.859  0.00  0.00    -0.291 N 
ATOM      3  O   UNL     1       8.931  -0.742  21.573  0.00  0.00    -0.270 OA
ENDROOT
BRANCH   1   7
ATOM      4  C   UNL     1       9.132   4.027  23.193  0.00  0.00    -0.008 A 
ATOM      5  C   UNL     1      10.238   3.214  23.493  0.00  0.00    +0.007 A 
ATOM      6  C   UNL     1      10.220   1.849  23.222  0.00  0.00    +0.013 A 
ATOM      7  C   UNL     1       9.054   1.240  22.770  0.00  0.00    +0.037 A 
ATOM      8  C   UNL     1       7.997   2.051  22.344  0.00  0.00    +0.013 A 
ATOM      9  C   UNL     1       8.040   3.430  22.543  0.00  0.00    +0.007 A 
BRANCH   4  11
ATOM     10  C   UNL     1       8.155   6.371  22.825  0.00  0.00    +0.056 C 
ATOM     11  C   UNL     1       9.138   5.498  23.616  0.00  0.00    +0.183 C 
BRANCH  11  12
ATOM     12  C   UNL     1       8.845   5.653  25.152  0.00  0.00    +0.422 C 
ATOM     13  F   UNL     1       9.988   5.974  25.817  0.00  0.00    -0.167 F 
ATOM     14  F   UNL     1       8.381   4.517  25.725  0.00  0.00    -0.167 F 
ATOM     15  F   UNL     1       7.941   6.624  25.421  0.00  0.00    -0.167 F 
ENDBRANCH  11  12
BRANCH  11  16
ATOM     16  O   UNL     1      10.444   6.013  23.249  0.00  0.00    -0.376 OA
ATOM     17  H   UNL     1      10.512   6.920  23.595  0.00  0.00    +0.211 HD
ENDBRANCH  11  16
ENDBRANCH   4  11
ENDBRANCH   1   7
BRANCH   2  18
ATOM     18  C   UNL     1       8.904  -2.480  23.758  0.00  0.00    +0.079 C 
ATOM     19  C   UNL     1       7.874  -3.174  22.844  0.00  0.00    +0.038 C 
ATOM     20  C   UNL     1       6.471  -3.097  23.472  0.00  0.00    +0.086 C 
ATOM     21  N   UNL     1       6.363  -3.770  24.768  0.00  0.00    -0.301 NA
ATOM     22  C   UNL     1       7.399  -3.233  25.676  0.00  0.00    +0.086 C 
ATOM     23  C   UNL     1       8.818  -3.264  25.095  0.00  0.00    +0.038 C 
BRANCH  21  24
ATOM     24  C   UNL     1       6.408  -5.240  24.673  0.00  0.00    +0.100 C 
BRANCH  24  25
ATOM     25  C   UNL     1       5.031  -5.870  24.443  0.00  0.00    +0.059 C 
ATOM     26  C   UNL     1       3.981  -5.583  25.522  0.00  0.00    +0.018 C 
ATOM     27  C   UNL     1       4.543  -6.956  25.419  0.00  0.00    +0.018 C 
BRANCH  25  28
ATOM     28  C   UNL     1       4.522  -5.955  23.023  0.00  0.00    +0.218 C 
ATOM     29  O   UNL     1       3.345  -5.779  22.741  0.00  0.00    -0.275 OA
ATOM     30  N   UNL     1       5.429  -6.334  22.079  0.00  0.00    -0.329 N 
ATOM     31  H   UNL     1       5.119  -6.449  21.133  0.00  0.00    +0.145 HD
ATOM     32  H   UNL     1       6.384  -6.564  22.332  0.00  0.00    +0.145 HD
ENDBRANCH  25  28
ENDBRANCH  24  25
ENDBRANCH  21  24
ENDBRANCH   2  18
BRANCH   2  33
ATOM     33  C   UNL     1       8.125  -0.516  25.118  0.00  0.00    +0.077 C 
ATOM     34  C   UNL     1       6.754   0.133  25.075  0.00  0.00    +0.024 C 
ATOM     35  C   UNL     1       7.902   0.859  25.676  0.00  0.00    +0.024 C 
ENDBRANCH   2  33
TORSDOF 9
ENDMDL
