MODEL 1
REMARK VINA RESULT:      -3.8      0.000      0.000
REMARK  Name = 
REMARK  10 active torsions:
REMARK  status: ('A' for Active; 'I' for Inactive)
REMARK    1  A    between atoms: C_1  and  C_2
REMARK    2  A    between atoms: C_2  and  C_3
REMARK    3  A    between atoms: C_3  and  C_4
REMARK    4  A    between atoms: C_4  and  C_5
REMARK    5  A    between atoms: C_5  and  C_6
REMARK    6  A    between atoms: C_6  and  C_7
REMARK    7  A    between atoms: C_7  and  C_8
REMARK    8  A    between atoms: C_8  and  C_9
REMARK    9  A    between atoms: C_9  and  C_10
REMARK   10  A    between atoms: C_10  and  C_11
REMARK                            x       y       z     vdW  Elec       q    Type
REMARK                         _______ _______ _______ _____ _____    ______ ____
ROOT
ATOM      1  C   UNL     1       9.590  -1.118  24.416  0.00  0.00    +0.000 C 
ENDROOT
BRANCH   1   2
ATOM      2  C   UNL     1      10.319   0.136  24.899  0.00  0.00    -0.000 C 
BRANCH   2   3
ATOM      3  C   UNL     1       9.582   1.405  24.470  0.00  0.00    -0.000 C 
BRANCH   3   4
ATOM      4  C   UNL     1      10.403   2.205  23.459  0.00  0.00    -0.000 C 
BRANCH   4   6
ATOM      5  C   UNL     1       8.522   1.824  21.831  0.00  0.00    +0.004 C 
ATOM      6  C   UNL     1      10.030   1.835  22.024  0.00  0.00    -0.003 C 
ENDBRANCH   4   6
ENDBRANCH   3   4
ENDBRANCH   2   3
ENDBRANCH   1   2
BRANCH   1   7
ATOM      7  C   UNL     1      10.223  -1.665  23.138  0.00  0.00    +0.000 C 
BRANCH   7   8
ATOM      8  C   UNL     1       9.193  -1.792  22.016  0.00  0.00    +0.000 C 
BRANCH   8   9
ATOM      9  C   UNL     1       7.808  -2.110  22.575  0.00  0.00    +0.007 C 
BRANCH   9  10
ATOM     10  C   UNL     1       7.473  -3.591  22.426  0.00  0.00    +0.071 C 
BRANCH  10  11
ATOM     11  C   UNL     1       7.713  -4.367  23.699  0.00  0.00    +0.223 C 
ATOM     12  O   UNL     1       8.802  -4.803  24.057  0.00  0.00    -0.301 OA
ENDBRANCH  10  11
ENDBRANCH   9  10
ENDBRANCH   8   9
ENDBRANCH   7   8
ENDBRANCH   1   7
TORSDOF 9
ENDMDL
MODEL 2
REMARK VINA RESULT:      -3.7      1.580      1.946
REMARK  Name = 
REMARK  10 active torsions:
REMARK  status: ('A' for Active; 'I' for Inactive)
REMARK    1  A    between atoms: C_1  and  C_2
REMARK    2  A    between atoms: C_2  and  C_3
REMARK    3  A    between atoms: C_3  and  C_4
REMARK    4  A    between atoms: C_4  and  C_5
REMARK    5  A    between atoms: C_5  and  C_6
REMARK    6  A    between atoms: C_6  and  C_7
REMARK    7  A    between atoms: C_7  and  C_8
REMARK    8  A    between atoms: C_8  and  C_9
REMARK    9  A    between atoms: C_9  and  C_10
REMARK   10  A    between atoms: C_10  and  C_11
REMARK                            x       y       z     vdW  Elec       q    Type
REMARK                         _______ _______ _______ _____ _____    ______ ____
ROOT
ATOM      1  C   UNL     1       9.687  -0.060  25.082  0.00  0.00    +0.000 C 
ENDROOT
BRANCH   1   2
ATOM      2  C   UNL     1      10.727   0.379  24.052  0.00  0.00    -0.000 C 
BRANCH   2   3
ATOM      3  C   UNL     1      10.323   1.693  23.383  0.00  0.00    -0.000 C 
BRANCH   3   4
ATOM      4  C   UNL     1       9.774   1.450  21.977  0.00  0.00    -0.000 C 
BRANCH   4   6
ATOM      5  C   UNL     1       7.307   1.314  22.457  0.00  0.00    +0.004 C 
ATOM      6  C   UNL     1       8.412   2.117  21.791  0.00  0.00    -0.003 C 
ENDBRANCH   4   6
ENDBRANCH   3   4
ENDBRANCH   2   3
ENDBRANCH   1   2
BRANCH   1   7
ATOM      7  C   UNL     1       8.930  -1.299  24.607  0.00  0.00    +0.000 C 
BRANCH   7   8
ATOM      8  C   UNL     1       9.644  -1.975  23.437  0.00  0.00    +0.000 C 
BRANCH   8   9
ATOM      9  C   UNL     1       8.694  -2.179  22.257  0.00  0.00    +0.007 C 
BRANCH   9  10
ATOM     10  C   UNL     1       7.251  -2.339  22.725  0.00  0.00    +0.071 C 
BRANCH  10  11
ATOM     11  C   UNL     1       6.562  -3.515  22.075  0.00  0.00    +0.223 C 
ATOM     12  O   UNL     1       5.542  -3.441  21.398  0.00  0.00    -0.301 OA
ENDBRANCH  10  11
ENDBRANCH   9  10
ENDBRANCH   8   9
ENDBRANCH   7   8
ENDBRANCH   1   7
TORSDOF 9
ENDMDL
MODEL 3
REMARK VINA RESULT:      -3.7      1.376      2.503
REMARK  Name = 
REMARK  10 active torsions:
REMARK  status: ('A' for Active; 'I' for Inactive)
REMARK    1  A    between atoms: C_1  and  C_2
REMARK    2  A    between atoms: C_2  and  C_3
REMARK    3  A    between atoms: C_3  and  C_4
REMARK    4  A    between atoms: C_4  and  C_5
REMARK    5  A    between atoms: C_5  and  C_6
REMARK    6  A    between atoms: C_6  and  C_7
REMARK    7  A    between atoms: C_7  and  C_8
REMARK    8  A    between atoms: C_8  and  C_9
REMARK    9  A    between atoms: C_9  and  C_10
REMARK   10  A    between atoms: C_10  and  C_11
REMARK                            x       y       z     vdW  Elec       q    Type
REMARK                         _______ _______ _______ _____ _____    ______ ____
ROOT
ATOM      1  C   UNL     1       9.080   0.692  21.570  0.00  0.00    +0.000 C 
ENDROOT
BRANCH   1   2
ATOM      2  C   UNL     1       9.967   1.831  22.070  0.00  0.00    -0.000 C 
BRANCH   2   3
ATOM      3  C   UNL     1      10.330   1.646  23.544  0.00  0.00    -0.000 C 
BRANCH   3   4
ATOM      4  C   UNL     1       9.190   2.104  24.454  0.00  0.00    -0.000 C 
BRANCH   4   6
ATOM      5  C   UNL     1       7.106   0.753  24.864  0.00  0.00    +0.004 C 
ATOM      6  C   UNL     1       8.576   0.927  25.210  0.00  0.00    -0.003 C 
ENDBRANCH   4   6
ENDBRANCH   3   4
ENDBRANCH   2   3
ENDBRANCH   1   2
BRANCH   1   7
ATOM      7  C   UNL     1       9.829  -0.640  21.592  0.00  0.00    +0.000 C 
BRANCH   7   8
ATOM      8  C   UNL     1       9.071  -1.693  22.398  0.00  0.00    +0.000 C 
BRANCH   8   9
ATOM      9  C   UNL     1       9.893  -2.165  23.597  0.00  0.00    +0.007 C 
BRANCH   9  10
ATOM     10  C   UNL     1       9.002  -2.735  24.695  0.00  0.00    +0.071 C 
BRANCH  10  11
ATOM     11  C   UNL     1       9.116  -4.236  24.809  0.00  0.00    +0.223 C 
ATOM     12  O   UNL     1      10.174  -4.854  24.867  0.00  0.00    -0.301 OA
ENDBRANCH  10  11
ENDBRANCH   9  10
ENDBRANCH   8   9
ENDBRANCH   7   8
ENDBRANCH   1   7
TORSDOF 9
ENDMDL
MODEL 4
REMARK VINA RESULT:      -3.7      1.295      2.454
REMARK  Name = 
REMARK  10 active torsions:
REMARK  status: ('A' for Active; 'I' for Inactive)
REMARK    1  A    between atoms: C_1  and  C_2
REMARK    2  A    between atoms: C_2  and  C_3
REMARK    3  A    between atoms: C_3  and  C_4
REMARK    4  A    between atoms: C_4  and  C_5
REMARK    5  A    between atoms: C_5  and  C_6
REMARK    6  A    between atoms: C_6  and  C_7
REMARK    7  A    between atoms: C_7  and  C_8
REMARK    8  A    between atoms: C_8  and  C_9
REMARK    9  A    between atoms: C_9  and  C_10
REMARK   10  A    between atoms: C_10  and  C_11
REMARK                            x       y       z     vdW  Elec       q    Type
REMARK                         _______ _______ _______ _____ _____    ______ ____
ROOT
ATOM      1  C   UNL     1      10.841   0.708  24.308  0.00  0.00    +0.000 C 
ENDROOT
BRANCH   1   2
ATOM      2  C   UNL     1      10.220   1.980  23.733  0.00  0.00    -0.000 C 
BRANCH   2   3
ATOM      3  C   UNL     1      10.244   1.968  22.205  0.00  0.00    -0.000 C 
BRANCH   3   4
ATOM      4  C   UNL     1       8.905   1.500  21.636  0.00  0.00    -0.000 C 
BRANCH   4   6
ATOM      5  C   UNL     1       6.776   0.957  22.865  0.00  0.00    +0.004 C 
ATOM      6  C   UNL     1       7.733   2.059  22.442  0.00  0.00    -0.003 C 
ENDBRANCH   4   6
ENDBRANCH   3   4
ENDBRANCH   2   3
ENDBRANCH   1   2
BRANCH   1   7
ATOM      7  C   UNL     1       9.878   0.009  25.267  0.00  0.00    +0.000 C 
BRANCH   7   8
ATOM      8  C   UNL     1       9.196  -1.185  24.600  0.00  0.00    +0.000 C 
BRANCH   8   9
ATOM      9  C   UNL     1       9.990  -1.664  23.386  0.00  0.00    +0.007 C 
BRANCH   9  10
ATOM     10  C   UNL     1       9.069  -2.043  22.230  0.00  0.00    +0.071 C 
BRANCH  10  11
ATOM     11  C   UNL     1       7.811  -2.735  22.699  0.00  0.00    +0.223 C 
ATOM     12  O   UNL     1       6.834  -2.961  21.995  0.00  0.00    -0.301 OA
ENDBRANCH  10  11
ENDBRANCH   9  10
ENDBRANCH   8   9
ENDBRANCH   7   8
ENDBRANCH   1   7
TORSDOF 9
ENDMDL
MODEL 5
REMARK VINA RESULT:      -3.7      2.935      4.836
REMARK  Name = 
REMARK  10 active torsions:
REMARK  status: ('A' for Active; 'I' for Inactive)
REMARK    1  A    between atoms: C_1  and  C_2
REMARK    2  A    between atoms: C_2  and  C_3
REMARK    3  A    between atoms: C_3  and  C_4
REMARK    4  A    between atoms: C_4  and  C_5
REMARK    5  A    between atoms: C_5  and  C_6
REMARK    6  A    between atoms: C_6  and  C_7
REMARK    7  A    between atoms: C_7  and  C_8
REMARK    8  A    between atoms: C_8  and  C_9
REMARK    9  A    between atoms: C_9  and  C_10
REMARK   10  A    between atoms: C_10  and  C_11
REMARK                            x       y       z     vdW  Elec       q    Type
REMARK                         _______ _______ _______ _____ _____    ______ ____
ROOT
ATOM      1  C   UNL     1      10.818   0.717  24.272  0.00  0.00    +0.000 C 
ENDROOT
BRANCH   1   2
ATOM      2  C   UNL     1       9.883   0.087  25.303  0.00  0.00    -0.000 C 
BRANCH   2   3
ATOM      3  C   UNL     1       9.145  -1.117  24.720  0.00  0.00    -0.000 C 
BRANCH   3   4
ATOM      4  C   UNL     1       9.922  -1.729  23.554  0.00  0.00    -0.000 C 
BRANCH   4   6
ATOM      5  C   UNL     1       7.543  -1.790  22.733  0.00  0.00    +0.004 C 
ATOM      6  C   UNL     1       8.999  -2.052  22.380  0.00  0.00    -0.003 C 
ENDBRANCH   4   6
ENDBRANCH   3   4
ENDBRANCH   2   3
ENDBRANCH   1   2
BRANCH   1   7
ATOM      7  C   UNL     1      10.151   1.902  23.574  0.00  0.00    +0.000 C 
BRANCH   7   8
ATOM      8  C   UNL     1      10.111   1.706  22.059  0.00  0.00    +0.000 C 
BRANCH   8   9
ATOM      9  C   UNL     1       8.675   1.549  21.563  0.00  0.00    +0.007 C 
BRANCH   9  10
ATOM     10  C   UNL     1       7.668   1.982  22.623  0.00  0.00    +0.071 C 
BRANCH  10  11
ATOM     11  C   UNL     1       6.891   3.209  22.213  0.00  0.00    +0.223 C 
ATOM     12  O   UNL     1       7.379   4.321  22.040  0.00  0.00    -0.301 OA
ENDBRANCH  10  11
ENDBRANCH   9  10
ENDBRANCH   8   9
ENDBRANCH   7   8
ENDBRANCH   1   7
TORSDOF 9
ENDMDL
MODEL 6
REMARK VINA RESULT:      -3.6      1.701      3.696
REMARK  Name = 
REMARK  10 active torsions:
REMARK  status: ('A' for Active; 'I' for Inactive)
REMARK    1  A    between atoms: C_1  and  C_2
REMARK    2  A    between atoms: C_2  and  C_3
REMARK    3  A    between atoms: C_3  and  C_4
REMARK    4  A    between atoms: C_4  and  C_5
REMARK    5  A    between atoms: C_5  and  C_6
REMARK    6  A    between atoms: C_6  and  C_7
REMARK    7  A    between atoms: C_7  and  C_8
REMARK    8  A    between atoms: C_8  and  C_9
REMARK    9  A    between atoms: C_9  and  C_10
REMARK   10  A    between atoms: C_10  and  C_11
REMARK                            x       y       z     vdW  Elec       q    Type
REMARK                         _______ _______ _______ _____ _____    ______ ____
ROOT
ATOM      1  C   UNL     1      10.150   2.110  23.601  0.00  0.00    +0.000 C 
ENDROOT
BRANCH   1   2
ATOM      2  C   UNL     1      10.185   1.901  22.088  0.00  0.00    -0.000 C 
BRANCH   2   3
ATOM      3  C   UNL     1       9.013   1.037  21.621  0.00  0.00    -0.000 C 
BRANCH   3   4
ATOM      4  C   UNL     1       9.471  -0.386  21.301  0.00  0.00    -0.000 C 
BRANCH   4   6
ATOM      5  C   UNL     1       9.697  -2.215  23.016  0.00  0.00    +0.004 C 
ATOM      6  C   UNL     1       8.731  -1.412  22.159  0.00  0.00    -0.003 C 
ENDBRANCH   4   6
ENDBRANCH   3   4
ENDBRANCH   2   3
ENDBRANCH   1   2
BRANCH   1   7
ATOM      7  C   UNL     1      10.928   1.014  24.328  0.00  0.00    +0.000 C 
BRANCH   7   8
ATOM      8  C   UNL     1      10.081   0.356  25.416  0.00  0.00    +0.000 C 
BRANCH   8   9
ATOM      9  C   UNL     1       8.600   0.688  25.235  0.00  0.00    +0.007 C 
BRANCH   9  10
ATOM     10  C   UNL     1       7.711  -0.472  25.671  0.00  0.00    +0.071 C 
BRANCH  10  11
ATOM     11  C   UNL     1       8.454  -1.484  26.509  0.00  0.00    +0.223 C 
ATOM     12  O   UNL     1       8.254  -2.694  26.485  0.00  0.00    -0.301 OA
ENDBRANCH  10  11
ENDBRANCH   9  10
ENDBRANCH   8   9
ENDBRANCH   7   8
ENDBRANCH   1   7
TORSDOF 9
ENDMDL
MODEL 7
REMARK VINA RESULT:      -3.5      2.619      4.942
REMARK  Name = 
REMARK  10 active torsions:
REMARK  status: ('A' for Active; 'I' for Inactive)
REMARK    1  A    between atoms: C_1  and  C_2
REMARK    2  A    between atoms: C_2  and  C_3
REMARK    3  A    between atoms: C_3  and  C_4
REMARK    4  A    between atoms: C_4  and  C_5
REMARK    5  A    between atoms: C_5  and  C_6
REMARK    6  A    between atoms: C_6  and  C_7
REMARK    7  A    between atoms: C_7  and  C_8
REMARK    8  A    between atoms: C_8  and  C_9
REMARK    9  A    between atoms: C_9  and  C_10
REMARK   10  A    between atoms: C_10  and  C_11
REMARK                            x       y       z     vdW  Elec       q    Type
REMARK                         _______ _______ _______ _____ _____    ______ ____
ROOT
ATOM      1  C   UNL     1       9.795  -0.151  25.097  0.00  0.00    +0.000 C 
ENDROOT
BRANCH   1   2
ATOM      2  C   UNL     1       9.419  -1.517  24.525  0.00  0.00    -0.000 C 
BRANCH   2   3
ATOM      3  C   UNL     1      10.118  -1.770  23.190  0.00  0.00    -0.000 C 
BRANCH   3   4
ATOM      4  C   UNL     1       9.104  -1.896  22.052  0.00  0.00    -0.000 C 
BRANCH   4   6
ATOM      5  C   UNL     1       7.283  -3.615  22.299  0.00  0.00    +0.004 C 
ATOM      6  C   UNL     1       7.702  -2.183  22.587  0.00  0.00    -0.003 C 
ENDBRANCH   4   6
ENDBRANCH   3   4
ENDBRANCH   2   3
ENDBRANCH   1   2
BRANCH   1   7
ATOM      7  C   UNL     1      10.764   0.586  24.172  0.00  0.00    +0.000 C 
BRANCH   7   8
ATOM      8  C   UNL     1      10.205   1.944  23.748  0.00  0.00    +0.000 C 
BRANCH   8   9
ATOM      9  C   UNL     1      10.118   2.051  22.226  0.00  0.00    +0.007 C 
BRANCH   9  10
ATOM     10  C   UNL     1       8.774   1.547  21.708  0.00  0.00    +0.071 C 
BRANCH  10  11
ATOM     11  C   UNL     1       7.632   2.458  22.089  0.00  0.00    +0.223 C 
ATOM     12  O   UNL     1       7.678   3.683  22.070  0.00  0.00    -0.301 OA
ENDBRANCH  10  11
ENDBRANCH   9  10
ENDBRANCH   8   9
ENDBRANCH   7   8
ENDBRANCH   1   7
TORSDOF 9
ENDMDL
MODEL 8
REMARK VINA RESULT:      -3.5      1.976      5.242
REMARK  Name = 
REMARK  10 active torsions:
REMARK  status: ('A' for Active; 'I' for Inactive)
REMARK    1  A    between atoms: C_1  and  C_2
REMARK    2  A    between atoms: C_2  and  C_3
REMARK    3  A    between atoms: C_3  and  C_4
REMARK    4  A    between atoms: C_4  and  C_5
REMARK    5  A    between atoms: C_5  and  C_6
REMARK    6  A    between atoms: C_6  and  C_7
REMARK    7  A    between atoms: C_7  and  C_8
REMARK    8  A    between atoms: C_8  and  C_9
REMARK    9  A    between atoms: C_9  and  C_10
REMARK   10  A    between atoms: C_10  and  C_11
REMARK                            x       y       z     vdW  Elec       q    Type
REMARK                         _______ _______ _______ _____ _____    ______ ____
ROOT
ATOM      1  C   UNL     1       8.969  -1.304  22.040  0.00  0.00    +0.000 C 
ENDROOT
BRANCH   1   2
ATOM      2  C   UNL     1      10.224  -1.783  22.769  0.00  0.00    -0.000 C 
BRANCH   2   3
ATOM      3  C   UNL     1       9.867  -2.684  23.952  0.00  0.00    -0.000 C 
BRANCH   3   4
ATOM      4  C   UNL     1       8.449  -3.238  23.816  0.00  0.00    -0.000 C 
BRANCH   4   6
ATOM      5  C   UNL     1       9.423  -5.034  25.286  0.00  0.00    +0.004 C 
ATOM      6  C   UNL     1       8.387  -4.709  24.222  0.00  0.00    -0.003 C 
ENDBRANCH   4   6
ENDBRANCH   3   4
ENDBRANCH   2   3
ENDBRANCH   1   2
BRANCH   1   7
ATOM      7  C   UNL     1       9.273  -0.093  21.159  0.00  0.00    +0.000 C 
BRANCH   7   8
ATOM      8  C   UNL     1       8.968   1.216  21.886  0.00  0.00    +0.000 C 
BRANCH   8   9
ATOM      9  C   UNL     1      10.249   1.999  22.171  0.00  0.00    +0.007 C 
BRANCH   9  10
ATOM     10  C   UNL     1      10.365   2.362  23.648  0.00  0.00    +0.071 C 
BRANCH  10  11
ATOM     11  C   UNL     1       9.472   1.513  24.521  0.00  0.00    +0.223 C 
ATOM     12  O   UNL     1       9.860   0.595  25.235  0.00  0.00    -0.301 OA
ENDBRANCH  10  11
ENDBRANCH   9  10
ENDBRANCH   8   9
ENDBRANCH   7   8
ENDBRANCH   1   7
TORSDOF 9
ENDMDL
MODEL 9
REMARK VINA RESULT:      -3.5      1.711      2.154
REMARK  Name = 
REMARK  10 active torsions:
REMARK  status: ('A' for Active; 'I' for Inactive)
REMARK    1  A    between atoms: C_1  and  C_2
REMARK    2  A    between atoms: C_2  and  C_3
REMARK    3  A    between atoms: C_3  and  C_4
REMARK    4  A    between atoms: C_4  and  C_5
REMARK    5  A    between atoms: C_5  and  C_6
REMARK    6  A    between atoms: C_6  and  C_7
REMARK    7  A    between atoms: C_7  and  C_8
REMARK    8  A    between atoms: C_8  and  C_9
REMARK    9  A    between atoms: C_9  and  C_10
REMARK   10  A    between atoms: C_10  and  C_11
REMARK                            x       y       z     vdW  Elec       q    Type
REMARK                         _______ _______ _______ _____ _____    ______ ____
ROOT
ATOM      1  C   UNL     1       8.925  -1.107  24.967  0.00  0.00    +0.000 C 
ENDROOT
BRANCH   1   2
ATOM      2  C   UNL     1       9.954  -0.009  25.234  0.00  0.00    -0.000 C 
BRANCH   2   3
ATOM      3  C   UNL     1      10.726   0.348  23.964  0.00  0.00    -0.000 C 
BRANCH   3   4
ATOM      4  C   UNL     1      10.389   1.763  23.493  0.00  0.00    -0.000 C 
BRANCH   4   6
ATOM      5  C   UNL     1       9.515   0.383  21.578  0.00  0.00    +0.004 C 
ATOM      6  C   UNL     1       9.944   1.769  22.031  0.00  0.00    -0.003 C 
ENDBRANCH   4   6
ENDBRANCH   3   4
ENDBRANCH   2   3
ENDBRANCH   1   2
BRANCH   1   7
ATOM      7  C   UNL     1       9.540  -2.258  24.173  0.00  0.00    +0.000 C 
BRANCH   7   8
ATOM      8  C   UNL     1       8.463  -3.126  23.524  0.00  0.00    +0.000 C 
BRANCH   8   9
ATOM      9  C   UNL     1       8.333  -4.469  24.243  0.00  0.00    +0.007 C 
BRANCH   9  10
ATOM     10  C   UNL     1       9.498  -4.704  25.199  0.00  0.00    +0.071 C 
BRANCH  10  11
ATOM     11  C   UNL     1       9.082  -4.611  26.647  0.00  0.00    +0.223 C 
ATOM     12  O   UNL     1       8.022  -5.030  27.099  0.00  0.00    -0.301 OA
ENDBRANCH  10  11
ENDBRANCH   9  10
ENDBRANCH   8   9
ENDBRANCH   7   8
ENDBRANCH   1   7
TORSDOF 9
ENDMDL
