MODEL 1
REMARK VINA RESULT:      -5.5      0.000      0.000
REMARK  Name = 
REMARK  1 active torsions:
REMARK  status: ('A' for Active; 'I' for Inactive)
REMARK    1  A    between atoms: N_1  and  C_2
REMARK                            x       y       z     vdW  Elec       q    Type
REMARK                         _______ _______ _______ _____ _____    ______ ____
ROOT
ATOM      1  C   UNL     1       6.282  -4.136  22.680  0.00  0.00    +0.025 A 
ATOM      2  C   UNL     1       7.546  -4.145  23.276  0.00  0.00    +0.036 A 
ATOM      3  C   UNL     1       7.730  -4.703  24.549  0.00  0.00    +0.055 A 
ATOM      4  C   UNL     1       6.644  -5.228  25.245  0.00  0.00    +0.053 A 
ATOM      5  C   UNL     1       6.830  -5.807  26.591  0.00  0.00    +0.271 A 
ATOM      6  N   UNL     1       8.102  -5.768  27.110  0.00  0.00    -0.263 N 
ATOM      7  H   UNL     1       8.245  -6.157  28.037  0.00  0.00    +0.190 HD
ATOM      8  N   UNL     1       9.178  -5.227  26.426  0.00  0.00    -0.263 N 
ATOM      9  H   UNL     1      10.097  -5.235  26.859  0.00  0.00    +0.190 HD
ATOM     10  O   UNL     1       5.895  -6.297  27.213  0.00  0.00    -0.266 OA
ATOM     11  C   UNL     1       5.368  -5.180  24.677  0.00  0.00    +0.016 A 
ATOM     12  C   UNL     1       9.075  -4.710  25.157  0.00  0.00    +0.271 A 
ATOM     13  O   UNL     1      10.053  -4.272  24.562  0.00  0.00    -0.266 OA
ATOM     14  C   UNL     1       5.190  -4.614  23.411  0.00  0.00    +0.023 A 
ENDROOT
BRANCH   1  15
ATOM     15  N   UNL     1       6.076  -3.447  21.481  0.00  0.00    -0.358 N 
ATOM     16  H   UNL     1       6.883  -2.924  21.154  0.00  0.00    +0.142 HD
ATOM     17  H   UNL     1       5.654  -4.003  20.744  0.00  0.00    +0.142 HD
ENDBRANCH   1  15
TORSDOF 1
ENDMDL
MODEL 2
REMARK VINA RESULT:      -5.5      1.196      3.027
REMARK  Name = 
REMARK  1 active torsions:
REMARK  status: ('A' for Active; 'I' for Inactive)
REMARK    1  A    between atoms: N_1  and  C_2
REMARK                            x       y       z     vdW  Elec       q    Type
REMARK                         _______ _______ _______ _____ _____    ______ ____
ROOT
ATOM      1  C   UNL     1       5.148  -5.790  23.257  0.00  0.00    +0.025 A 
ATOM      2  C   UNL     1       5.324  -6.003  24.627  0.00  0.00    +0.036 A 
ATOM      3  C   UNL     1       6.538  -5.678  25.249  0.00  0.00    +0.055 A 
ATOM      4  C   UNL     1       7.593  -5.167  24.498  0.00  0.00    +0.053 A 
ATOM      5  C   UNL     1       8.877  -4.832  25.146  0.00  0.00    +0.271 A 
ATOM      6  N   UNL     1       8.972  -5.081  26.494  0.00  0.00    -0.263 N 
ATOM      7  H   UNL     1       9.851  -4.862  26.953  0.00  0.00    +0.190 HD
ATOM      8  N   UNL     1       7.930  -5.610  27.238  0.00  0.00    -0.263 N 
ATOM      9  H   UNL     1       8.058  -5.763  28.233  0.00  0.00    +0.190 HD
ATOM     10  O   UNL     1       9.811  -4.358  24.511  0.00  0.00    -0.266 OA
ATOM     11  C   UNL     1       7.442  -4.994  23.119  0.00  0.00    +0.016 A 
ATOM     12  C   UNL     1       6.700  -5.904  26.699  0.00  0.00    +0.271 A 
ATOM     13  O   UNL     1       5.785  -6.336  27.389  0.00  0.00    -0.266 OA
ATOM     14  C   UNL     1       6.232  -5.329  22.503  0.00  0.00    +0.023 A 
ENDROOT
BRANCH   1  15
ATOM     15  N   UNL     1       3.995  -6.254  22.617  0.00  0.00    -0.358 N 
ATOM     16  H   UNL     1       3.167  -5.691  22.786  0.00  0.00    +0.142 HD
ATOM     17  H   UNL     1       4.118  -6.469  21.632  0.00  0.00    +0.142 HD
ENDBRANCH   1  15
TORSDOF 1
ENDMDL
MODEL 3
REMARK VINA RESULT:      -5.3      2.783      3.785
REMARK  Name = 
REMARK  1 active torsions:
REMARK  status: ('A' for Active; 'I' for Inactive)
REMARK    1  A    between atoms: N_1  and  C_2
REMARK                            x       y       z     vdW  Elec       q    Type
REMARK                         _______ _______ _______ _____ _____    ______ ____
ROOT
ATOM      1  C   UNL     1       9.259  -1.835  22.469  0.00  0.00    +0.025 A 
ATOM      2  C   UNL     1       8.001  -2.364  22.164  0.00  0.00    +0.036 A 
ATOM      3  C   UNL     1       7.428  -3.354  22.975  0.00  0.00    +0.055 A 
ATOM      4  C   UNL     1       8.124  -3.842  24.079  0.00  0.00    +0.053 A 
ATOM      5  C   UNL     1       7.530  -4.892  24.930  0.00  0.00    +0.271 A 
ATOM      6  N   UNL     1       6.296  -5.366  24.556  0.00  0.00    -0.263 N 
ATOM      7  H   UNL     1       5.876  -6.094  25.128  0.00  0.00    +0.190 HD
ATOM      8  N   UNL     1       5.613  -4.896  23.446  0.00  0.00    -0.263 N 
ATOM      9  H   UNL     1       4.699  -5.280  23.226  0.00  0.00    +0.190 HD
ATOM     10  O   UNL     1       8.111  -5.320  25.920  0.00  0.00    -0.266 OA
ATOM     11  C   UNL     1       9.401  -3.353  24.364  0.00  0.00    +0.016 A 
ATOM     12  C   UNL     1       6.096  -3.894  22.640  0.00  0.00    +0.271 A 
ATOM     13  O   UNL     1       5.452  -3.472  21.686  0.00  0.00    -0.266 OA
ATOM     14  C   UNL     1       9.971  -2.373  23.546  0.00  0.00    +0.023 A 
ENDROOT
BRANCH   1  15
ATOM     15  N   UNL     1       9.888  -0.961  21.578  0.00  0.00    -0.358 N 
ATOM     16  H   UNL     1      10.204  -0.092  21.997  0.00  0.00    +0.142 HD
ATOM     17  H   UNL     1      10.603  -1.392  21.001  0.00  0.00    +0.142 HD
ENDBRANCH   1  15
TORSDOF 1
ENDMDL
MODEL 4
REMARK VINA RESULT:      -5.2      2.581      3.624
REMARK  Name = 
REMARK  1 active torsions:
REMARK  status: ('A' for Active; 'I' for Inactive)
REMARK    1  A    between atoms: N_1  and  C_2
REMARK                            x       y       z     vdW  Elec       q    Type
REMARK                         _______ _______ _______ _____ _____    ______ ____
ROOT
ATOM      1  C   UNL     1       8.372  -3.608  24.079  0.00  0.00    +0.025 A 
ATOM      2  C   UNL     1       7.604  -4.062  23.004  0.00  0.00    +0.036 A 
ATOM      3  C   UNL     1       6.539  -4.950  23.213  0.00  0.00    +0.055 A 
ATOM      4  C   UNL     1       6.257  -5.413  24.496  0.00  0.00    +0.053 A 
ATOM      5  C   UNL     1       5.144  -6.356  24.721  0.00  0.00    +0.271 A 
ATOM      6  N   UNL     1       4.444  -6.762  23.610  0.00  0.00    -0.263 N 
ATOM      7  H   UNL     1       3.679  -7.416  23.747  0.00  0.00    +0.190 HD
ATOM      8  N   UNL     1       4.738  -6.319  22.331  0.00  0.00    -0.263 N 
ATOM      9  H   UNL     1       4.178  -6.648  21.550  0.00  0.00    +0.190 HD
ATOM     10  O   UNL     1       4.860  -6.759  25.843  0.00  0.00    -0.266 OA
ATOM     11  C   UNL     1       7.050  -5.001  25.571  0.00  0.00    +0.016 A 
ATOM     12  C   UNL     1       5.735  -5.412  22.064  0.00  0.00    +0.271 A 
ATOM     13  O   UNL     1       5.948  -5.009  20.927  0.00  0.00    -0.266 OA
ATOM     14  C   UNL     1       8.116  -4.123  25.354  0.00  0.00    +0.023 A 
ENDROOT
BRANCH   1  15
ATOM     15  N   UNL     1       9.521  -2.845  23.849  0.00  0.00    -0.358 N 
ATOM     16  H   UNL     1      10.061  -3.136  23.040  0.00  0.00    +0.142 HD
ATOM     17  H   UNL     1       9.370  -1.842  23.870  0.00  0.00    +0.142 HD
ENDBRANCH   1  15
TORSDOF 1
ENDMDL
MODEL 5
REMARK VINA RESULT:      -5.2      4.357      5.288
REMARK  Name = 
REMARK  1 active torsions:
REMARK  status: ('A' for Active; 'I' for Inactive)
REMARK    1  A    between atoms: N_1  and  C_2
REMARK                            x       y       z     vdW  Elec       q    Type
REMARK                         _______ _______ _______ _____ _____    ______ ____
ROOT
ATOM      1  C   UNL     1       9.670   0.862  22.359  0.00  0.00    +0.025 A 
ATOM      2  C   UNL     1       9.061   0.888  23.617  0.00  0.00    +0.036 A 
ATOM      3  C   UNL     1       8.932  -0.286  24.371  0.00  0.00    +0.055 A 
ATOM      4  C   UNL     1       9.383  -1.500  23.858  0.00  0.00    +0.053 A 
ATOM      5  C   UNL     1       9.241  -2.742  24.644  0.00  0.00    +0.271 A 
ATOM      6  N   UNL     1       8.622  -2.632  25.865  0.00  0.00    -0.263 N 
ATOM      7  H   UNL     1       8.510  -3.479  26.415  0.00  0.00    +0.190 HD
ATOM      8  N   UNL     1       8.153  -1.428  26.367  0.00  0.00    -0.263 N 
ATOM      9  H   UNL     1       7.711  -1.410  27.282  0.00  0.00    +0.190 HD
ATOM     10  O   UNL     1       9.652  -3.817  24.224  0.00  0.00    -0.266 OA
ATOM     11  C   UNL     1       9.951  -1.543  22.581  0.00  0.00    +0.016 A 
ATOM     12  C   UNL     1       8.292  -0.235  25.701  0.00  0.00    +0.271 A 
ATOM     13  O   UNL     1       7.901   0.820  26.186  0.00  0.00    -0.266 OA
ATOM     14  C   UNL     1      10.068  -0.370  21.830  0.00  0.00    +0.023 A 
ENDROOT
BRANCH   1  15
ATOM     15  N   UNL     1       9.661   2.002  21.550  0.00  0.00    -0.358 N 
ATOM     16  H   UNL     1      10.368   2.004  20.821  0.00  0.00    +0.142 HD
ATOM     17  H   UNL     1       8.745   2.261  21.198  0.00  0.00    +0.142 HD
ENDBRANCH   1  15
TORSDOF 1
ENDMDL
MODEL 6
REMARK VINA RESULT:      -5.2      1.956      3.900
REMARK  Name = 
REMARK  1 active torsions:
REMARK  status: ('A' for Active; 'I' for Inactive)
REMARK    1  A    between atoms: N_1  and  C_2
REMARK                            x       y       z     vdW  Elec       q    Type
REMARK                         _______ _______ _______ _____ _____    ______ ____
ROOT
ATOM      1  C   UNL     1       7.216  -5.381  26.388  0.00  0.00    +0.025 A 
ATOM      2  C   UNL     1       8.102  -4.580  25.660  0.00  0.00    +0.036 A 
ATOM      3  C   UNL     1       7.713  -4.016  24.437  0.00  0.00    +0.055 A 
ATOM      4  C   UNL     1       6.447  -4.276  23.919  0.00  0.00    +0.053 A 
ATOM      5  C   UNL     1       6.036  -3.693  22.626  0.00  0.00    +0.271 A 
ATOM      6  N   UNL     1       6.968  -2.926  21.969  0.00  0.00    -0.263 N 
ATOM      7  H   UNL     1       6.703  -2.524  21.075  0.00  0.00    +0.190 HD
ATOM      8  N   UNL     1       8.236  -2.686  22.474  0.00  0.00    -0.263 N 
ATOM      9  H   UNL     1       8.878  -2.103  21.946  0.00  0.00    +0.190 HD
ATOM     10  O   UNL     1       4.919  -3.887  22.161  0.00  0.00    -0.266 OA
ATOM     11  C   UNL     1       5.571  -5.113  24.616  0.00  0.00    +0.016 A 
ATOM     12  C   UNL     1       8.661  -3.167  23.689  0.00  0.00    +0.271 A 
ATOM     13  O   UNL     1       9.775  -2.907  24.127  0.00  0.00    -0.266 OA
ATOM     14  C   UNL     1       5.968  -5.680  25.831  0.00  0.00    +0.023 A 
ENDROOT
BRANCH   1  15
ATOM     15  N   UNL     1       7.657  -6.059  27.527  0.00  0.00    -0.358 N 
ATOM     16  H   UNL     1       7.938  -7.021  27.359  0.00  0.00    +0.142 HD
ATOM     17  H   UNL     1       8.338  -5.551  28.082  0.00  0.00    +0.142 HD
ENDBRANCH   1  15
TORSDOF 1
ENDMDL
MODEL 7
REMARK VINA RESULT:      -5.1      5.450      7.279
REMARK  Name = 
REMARK  1 active torsions:
REMARK  status: ('A' for Active; 'I' for Inactive)
REMARK    1  A    between atoms: N_1  and  C_2
REMARK                            x       y       z     vdW  Elec       q    Type
REMARK                         _______ _______ _______ _____ _____    ______ ____
ROOT
ATOM      1  C   UNL     1       8.940  -0.275  25.848  0.00  0.00    +0.025 A 
ATOM      2  C   UNL     1       8.848   0.991  25.263  0.00  0.00    +0.036 A 
ATOM      3  C   UNL     1       8.926   1.141  23.871  0.00  0.00    +0.055 A 
ATOM      4  C   UNL     1       9.128   0.028  23.059  0.00  0.00    +0.053 A 
ATOM      5  C   UNL     1       9.221   0.181  21.593  0.00  0.00    +0.271 A 
ATOM      6  N   UNL     1       9.131   1.460  21.098  0.00  0.00    -0.263 N 
ATOM      7  H   UNL     1       9.200   1.583  20.092  0.00  0.00    +0.190 HD
ATOM      8  N   UNL     1       8.952   2.570  21.908  0.00  0.00    -0.263 N 
ATOM      9  H   UNL     1       8.884   3.490  21.482  0.00  0.00    +0.190 HD
ATOM     10  O   UNL     1       9.374  -0.785  20.855  0.00  0.00    -0.266 OA
ATOM     11  C   UNL     1       9.268  -1.236  23.638  0.00  0.00    +0.016 A 
ATOM     12  C   UNL     1       8.818   2.487  23.273  0.00  0.00    +0.271 A 
ATOM     13  O   UNL     1       8.623   3.482  23.960  0.00  0.00    -0.266 OA
ATOM     14  C   UNL     1       9.199  -1.378  25.027  0.00  0.00    +0.023 A 
ENDROOT
BRANCH   1  15
ATOM     15  N   UNL     1       9.012  -0.403  27.237  0.00  0.00    -0.358 N 
ATOM     16  H   UNL     1       9.265   0.452  27.724  0.00  0.00    +0.142 HD
ATOM     17  H   UNL     1       8.211  -0.863  27.660  0.00  0.00    +0.142 HD
ENDBRANCH   1  15
TORSDOF 1
ENDMDL
MODEL 8
REMARK VINA RESULT:      -5.1      1.371      1.524
REMARK  Name = 
REMARK  1 active torsions:
REMARK  status: ('A' for Active; 'I' for Inactive)
REMARK    1  A    between atoms: N_1  and  C_2
REMARK                            x       y       z     vdW  Elec       q    Type
REMARK                         _______ _______ _______ _____ _____    ______ ____
ROOT
ATOM      1  C   UNL     1       7.073  -3.894  23.095  0.00  0.00    +0.025 A 
ATOM      2  C   UNL     1       7.802  -4.123  24.266  0.00  0.00    +0.036 A 
ATOM      3  C   UNL     1       7.277  -4.927  25.288  0.00  0.00    +0.055 A 
ATOM      4  C   UNL     1       6.006  -5.481  25.157  0.00  0.00    +0.053 A 
ATOM      5  C   UNL     1       5.443  -6.320  26.234  0.00  0.00    +0.271 A 
ATOM      6  N   UNL     1       6.219  -6.487  27.356  0.00  0.00    -0.263 N 
ATOM      7  H   UNL     1       5.843  -7.056  28.109  0.00  0.00    +0.190 HD
ATOM      8  N   UNL     1       7.474  -5.918  27.495  0.00  0.00    -0.263 N 
ATOM      9  H   UNL     1       8.004  -6.085  28.346  0.00  0.00    +0.190 HD
ATOM     10  O   UNL     1       4.338  -6.839  26.132  0.00  0.00    -0.266 OA
ATOM     11  C   UNL     1       5.250  -5.219  24.010  0.00  0.00    +0.016 A 
ATOM     12  C   UNL     1       8.066  -5.162  26.513  0.00  0.00    +0.271 A 
ATOM     13  O   UNL     1       9.194  -4.702  26.649  0.00  0.00    -0.266 OA
ATOM     14  C   UNL     1       5.776  -4.409  23.000  0.00  0.00    +0.023 A 
ENDROOT
BRANCH   1  15
ATOM     15  N   UNL     1       7.534  -2.975  22.149  0.00  0.00    -0.358 N 
ATOM     16  H   UNL     1       7.562  -2.014  22.477  0.00  0.00    +0.142 HD
ATOM     17  H   UNL     1       8.394  -3.247  21.683  0.00  0.00    +0.142 HD
ENDBRANCH   1  15
TORSDOF 1
ENDMDL
MODEL 9
REMARK VINA RESULT:      -5.1      1.724      2.078
REMARK  Name = 
REMARK  1 active torsions:
REMARK  status: ('A' for Active; 'I' for Inactive)
REMARK    1  A    between atoms: N_1  and  C_2
REMARK                            x       y       z     vdW  Elec       q    Type
REMARK                         _______ _______ _______ _____ _____    ______ ____
ROOT
ATOM      1  C   UNL     1       4.746  -6.229  23.764  0.00  0.00    +0.025 A 
ATOM      2  C   UNL     1       5.860  -5.407  23.573  0.00  0.00    +0.036 A 
ATOM      3  C   UNL     1       6.737  -5.136  24.633  0.00  0.00    +0.055 A 
ATOM      4  C   UNL     1       6.487  -5.662  25.898  0.00  0.00    +0.053 A 
ATOM      5  C   UNL     1       7.401  -5.373  27.020  0.00  0.00    +0.271 A 
ATOM      6  N   UNL     1       8.467  -4.548  26.752  0.00  0.00    -0.263 N 
ATOM      7  H   UNL     1       9.102  -4.333  27.516  0.00  0.00    +0.190 HD
ATOM      8  N   UNL     1       8.704  -4.007  25.499  0.00  0.00    -0.263 N 
ATOM      9  H   UNL     1       9.514  -3.410  25.360  0.00  0.00    +0.190 HD
ATOM     10  O   UNL     1       7.216  -5.843  28.136  0.00  0.00    -0.266 OA
ATOM     11  C   UNL     1       5.350  -6.447  26.109  0.00  0.00    +0.016 A 
ATOM     12  C   UNL     1       7.912  -4.272  24.408  0.00  0.00    +0.271 A 
ATOM     13  O   UNL     1       8.168  -3.809  23.302  0.00  0.00    -0.266 OA
ATOM     14  C   UNL     1       4.474  -6.705  25.051  0.00  0.00    +0.023 A 
ENDROOT
BRANCH   1  15
ATOM     15  N   UNL     1       3.797  -6.373  22.748  0.00  0.00    -0.358 N 
ATOM     16  H   UNL     1       2.901  -6.735  23.060  0.00  0.00    +0.142 HD
ATOM     17  H   UNL     1       3.695  -5.560  22.149  0.00  0.00    +0.142 HD
ENDBRANCH   1  15
TORSDOF 1
ENDMDL
