MODEL 1
REMARK VINA RESULT:      -7.0      0.000      0.000
REMARK  Name = 
REMARK  3 active torsions:
REMARK  status: ('A' for Active; 'I' for Inactive)
REMARK    1  A    between atoms: C_1  and  N_2
REMARK    2  A    between atoms: C_4  and  C_12
REMARK    3  A    between atoms: C_6  and  N_7
REMARK                            x       y       z     vdW  Elec       q    Type
REMARK                         _______ _______ _______ _____ _____    ______ ____
ROOT
ATOM      1  C   UNL     1      12.624   5.780  23.522  0.00  0.00    +0.174 C 
ATOM      2  N   UNL     1      11.424   4.981  23.570  0.00  0.00    -0.249 N 
ATOM      3  C   UNL     1      10.167   5.457  23.795  0.00  0.00    +0.164 A 
ATOM      4  C   UNL     1       9.330   4.354  23.780  0.00  0.00    +0.086 A 
ATOM      5  C   UNL     1       7.975   4.614  24.044  0.00  0.00    +0.131 A 
ATOM      6  N   UNL     1       7.580   5.891  24.232  0.00  0.00    -0.220 NA
ATOM      7  C   UNL     1       8.502   6.867  24.189  0.00  0.00    +0.225 A 
ATOM      8  C   UNL     1      10.192   3.245  23.463  0.00  0.00    +0.105 A 
ATOM      9  N   UNL     1       9.823   6.741  23.995  0.00  0.00    -0.216 NA
ATOM     10  N   UNL     1      11.478   3.648  23.385  0.00  0.00    -0.169 NA
ENDROOT
BRANCH   8  11
ATOM     11  C   UNL     1       9.843   1.838  23.215  0.00  0.00    +0.003 A 
ATOM     12  C   UNL     1       9.796   1.338  21.910  0.00  0.00    +0.011 A 
ATOM     13  C   UNL     1       9.388   0.031  21.650  0.00  0.00    +0.009 A 
ATOM     14  C   UNL     1       9.113  -0.848  22.697  0.00  0.00    -0.018 A 
ATOM     15  C   UNL     1       9.252  -0.403  24.031  0.00  0.00    -0.017 A 
ATOM     16  C   UNL     1       9.069  -1.331  25.071  0.00  0.00    +0.008 A 
ATOM     17  C   UNL     1       8.751  -2.665  24.795  0.00  0.00    +0.001 A 
ATOM     18  C   UNL     1       8.573  -3.082  23.478  0.00  0.00    +0.001 A 
ATOM     19  C   UNL     1       8.744  -2.175  22.436  0.00  0.00    +0.008 A 
ATOM     20  C   UNL     1       9.587   0.949  24.273  0.00  0.00    +0.018 A 
ENDBRANCH   8  11
BRANCH   5  21
ATOM     21  N   UNL     1       6.971   3.661  24.162  0.00  0.00    -0.342 N 
ATOM     22  H   UNL     1       6.187   3.914  23.571  0.00  0.00    +0.144 HD
ATOM     23  H   UNL     1       6.730   3.436  25.120  0.00  0.00    +0.144 HD
ENDBRANCH   5  21
TORSDOF 2
ENDMDL
MODEL 2
REMARK VINA RESULT:      -6.9      4.810      8.010
REMARK  Name = 
REMARK  3 active torsions:
REMARK  status: ('A' for Active; 'I' for Inactive)
REMARK    1  A    between atoms: C_1  and  N_2
REMARK    2  A    between atoms: C_4  and  C_12
REMARK    3  A    between atoms: C_6  and  N_7
REMARK                            x       y       z     vdW  Elec       q    Type
REMARK                         _______ _______ _______ _____ _____    ______ ____
ROOT
ATOM      1  C   UNL     1       7.555  -5.640  26.731  0.00  0.00    +0.174 C 
ATOM      2  N   UNL     1       7.362  -4.816  25.563  0.00  0.00    -0.249 N 
ATOM      3  C   UNL     1       6.360  -4.962  24.651  0.00  0.00    +0.164 A 
ATOM      4  C   UNL     1       6.567  -3.985  23.691  0.00  0.00    +0.086 A 
ATOM      5  C   UNL     1       5.663  -3.986  22.616  0.00  0.00    +0.131 A 
ATOM      6  N   UNL     1       4.648  -4.875  22.617  0.00  0.00    -0.220 NA
ATOM      7  C   UNL     1       4.553  -5.748  23.634  0.00  0.00    +0.225 A 
ATOM      8  C   UNL     1       7.708  -3.244  24.166  0.00  0.00    +0.105 A 
ATOM      9  N   UNL     1       5.376  -5.878  24.685  0.00  0.00    -0.216 NA
ATOM     10  N   UNL     1       8.205  -3.801  25.290  0.00  0.00    -0.169 NA
ENDROOT
BRANCH   8  11
ATOM     11  C   UNL     1       8.323  -2.029  23.609  0.00  0.00    +0.003 A 
ATOM     12  C   UNL     1       8.803  -2.016  22.296  0.00  0.00    +0.011 A 
ATOM     13  C   UNL     1       9.461  -0.902  21.778  0.00  0.00    +0.009 A 
ATOM     14  C   UNL     1       9.568   0.270  22.526  0.00  0.00    -0.018 A 
ATOM     15  C   UNL     1       9.001   0.322  23.819  0.00  0.00    -0.017 A 
ATOM     16  C   UNL     1       9.030   1.543  24.516  0.00  0.00    +0.008 A 
ATOM     17  C   UNL     1       9.611   2.681  23.947  0.00  0.00    +0.001 A 
ATOM     18  C   UNL     1      10.207   2.607  22.690  0.00  0.00    +0.001 A 
ATOM     19  C   UNL     1      10.193   1.404  21.989  0.00  0.00    +0.008 A 
ATOM     20  C   UNL     1       8.410  -0.843  24.358  0.00  0.00    +0.018 A 
ENDBRANCH   8  11
BRANCH   5  21
ATOM     21  N   UNL     1       5.724  -3.159  21.502  0.00  0.00    -0.342 N 
ATOM     22  H   UNL     1       5.113  -2.360  21.636  0.00  0.00    +0.144 HD
ATOM     23  H   UNL     1       5.604  -3.646  20.621  0.00  0.00    +0.144 HD
ENDBRANCH   5  21
TORSDOF 2
ENDMDL
MODEL 3
REMARK VINA RESULT:      -6.9      5.316      8.518
REMARK  Name = 
REMARK  3 active torsions:
REMARK  status: ('A' for Active; 'I' for Inactive)
REMARK    1  A    between atoms: C_1  and  N_2
REMARK    2  A    between atoms: C_4  and  C_12
REMARK    3  A    between atoms: C_6  and  N_7
REMARK                            x       y       z     vdW  Elec       q    Type
REMARK                         _______ _______ _______ _____ _____    ______ ____
ROOT
ATOM      1  C   UNL     1       6.823  -5.540  27.659  0.00  0.00    +0.174 C 
ATOM      2  N   UNL     1       6.858  -4.999  26.323  0.00  0.00    -0.249 N 
ATOM      3  C   UNL     1       6.101  -5.433  25.276  0.00  0.00    +0.164 A 
ATOM      4  C   UNL     1       6.469  -4.658  24.188  0.00  0.00    +0.086 A 
ATOM      5  C   UNL     1       5.837  -4.974  22.975  0.00  0.00    +0.131 A 
ATOM      6  N   UNL     1       4.899  -5.944  22.959  0.00  0.00    -0.220 NA
ATOM      7  C   UNL     1       4.622  -6.594  24.102  0.00  0.00    +0.225 A 
ATOM      8  C   UNL     1       7.428  -3.721  24.715  0.00  0.00    +0.105 A 
ATOM      9  N   UNL     1       5.188  -6.418  25.305  0.00  0.00    -0.216 NA
ATOM     10  N   UNL     1       7.684  -3.980  26.015  0.00  0.00    -0.169 NA
ENDROOT
BRANCH   8  11
ATOM     11  C   UNL     1       8.086  -2.590  24.044  0.00  0.00    +0.003 A 
ATOM     12  C   UNL     1       9.452  -2.639  23.747  0.00  0.00    +0.011 A 
ATOM     13  C   UNL     1      10.109  -1.545  23.185  0.00  0.00    +0.009 A 
ATOM     14  C   UNL     1       9.399  -0.407  22.808  0.00  0.00    -0.018 A 
ATOM     15  C   UNL     1       7.999  -0.368  23.000  0.00  0.00    -0.017 A 
ATOM     16  C   UNL     1       7.287   0.746  22.521  0.00  0.00    +0.008 A 
ATOM     17  C   UNL     1       7.947   1.796  21.874  0.00  0.00    +0.001 A 
ATOM     18  C   UNL     1       9.332   1.767  21.731  0.00  0.00    +0.001 A 
ATOM     19  C   UNL     1      10.053   0.675  22.205  0.00  0.00    +0.008 A 
ATOM     20  C   UNL     1       7.363  -1.452  23.646  0.00  0.00    +0.018 A 
ENDBRANCH   8  11
BRANCH   5  21
ATOM     21  N   UNL     1       6.106  -4.392  21.742  0.00  0.00    -0.342 N 
ATOM     22  H   UNL     1       6.225  -5.115  21.040  0.00  0.00    +0.144 HD
ATOM     23  H   UNL     1       6.842  -3.696  21.768  0.00  0.00    +0.144 HD
ENDBRANCH   5  21
TORSDOF 2
ENDMDL
MODEL 4
REMARK VINA RESULT:      -6.8      5.001      8.369
REMARK  Name = 
REMARK  3 active torsions:
REMARK  status: ('A' for Active; 'I' for Inactive)
REMARK    1  A    between atoms: C_1  and  N_2
REMARK    2  A    between atoms: C_4  and  C_12
REMARK    3  A    between atoms: C_6  and  N_7
REMARK                            x       y       z     vdW  Elec       q    Type
REMARK                         _______ _______ _______ _____ _____    ______ ____
ROOT
ATOM      1  C   UNL     1       6.092  -5.998  21.028  0.00  0.00    +0.174 C 
ATOM      2  N   UNL     1       6.416  -5.139  22.140  0.00  0.00    -0.249 N 
ATOM      3  C   UNL     1       5.995  -5.319  23.424  0.00  0.00    +0.164 A 
ATOM      4  C   UNL     1       6.514  -4.260  24.150  0.00  0.00    +0.086 A 
ATOM      5  C   UNL     1       6.159  -4.221  25.508  0.00  0.00    +0.131 A 
ATOM      6  N   UNL     1       5.405  -5.219  26.016  0.00  0.00    -0.220 NA
ATOM      7  C   UNL     1       4.997  -6.202  25.195  0.00  0.00    +0.225 A 
ATOM      8  C   UNL     1       7.306  -3.520  23.201  0.00  0.00    +0.105 A 
ATOM      9  N   UNL     1       5.228  -6.324  23.880  0.00  0.00    -0.216 NA
ATOM     10  N   UNL     1       7.192  -4.052  21.966  0.00  0.00    -0.169 NA
ENDROOT
BRANCH   8  11
ATOM     11  C   UNL     1       8.172  -2.352  23.425  0.00  0.00    +0.003 A 
ATOM     12  C   UNL     1       9.057  -2.322  24.508  0.00  0.00    +0.011 A 
ATOM     13  C   UNL     1       9.825  -1.192  24.782  0.00  0.00    +0.009 A 
ATOM     14  C   UNL     1       9.807  -0.096  23.922  0.00  0.00    -0.018 A 
ATOM     15  C   UNL     1       9.001  -0.137  22.763  0.00  0.00    -0.017 A 
ATOM     16  C   UNL     1       9.073   0.936  21.856  0.00  0.00    +0.008 A 
ATOM     17  C   UNL     1       9.920   2.023  22.097  0.00  0.00    +0.001 A 
ATOM     18  C   UNL     1      10.677   2.074  23.264  0.00  0.00    +0.001 A 
ATOM     19  C   UNL     1      10.612   1.024  24.176  0.00  0.00    +0.008 A 
ATOM     20  C   UNL     1       8.167  -1.256  22.545  0.00  0.00    +0.018 A 
ENDBRANCH   8  11
BRANCH   5  21
ATOM     21  N   UNL     1       6.490  -3.215  26.407  0.00  0.00    -0.342 N 
ATOM     22  H   UNL     1       6.630  -3.613  27.330  0.00  0.00    +0.144 HD
ATOM     23  H   UNL     1       5.868  -2.415  26.377  0.00  0.00    +0.144 HD
ENDBRANCH   5  21
TORSDOF 2
ENDMDL
MODEL 5
REMARK VINA RESULT:      -6.7      5.277      8.702
REMARK  Name = 
REMARK  3 active torsions:
REMARK  status: ('A' for Active; 'I' for Inactive)
REMARK    1  A    between atoms: C_1  and  N_2
REMARK    2  A    between atoms: C_4  and  C_12
REMARK    3  A    between atoms: C_6  and  N_7
REMARK                            x       y       z     vdW  Elec       q    Type
REMARK                         _______ _______ _______ _____ _____    ______ ____
ROOT
ATOM      1  C   UNL     1       2.977  -5.304  23.309  0.00  0.00    +0.174 C 
ATOM      2  N   UNL     1       4.246  -4.768  23.735  0.00  0.00    -0.249 N 
ATOM      3  C   UNL     1       4.974  -5.213  24.798  0.00  0.00    +0.164 A 
ATOM      4  C   UNL     1       6.099  -4.408  24.858  0.00  0.00    +0.086 A 
ATOM      5  C   UNL     1       6.975  -4.665  25.925  0.00  0.00    +0.131 A 
ATOM      6  N   UNL     1       6.703  -5.687  26.763  0.00  0.00    -0.220 NA
ATOM      7  C   UNL     1       5.585  -6.406  26.564  0.00  0.00    +0.225 A 
ATOM      8  C   UNL     1       5.983  -3.533  23.720  0.00  0.00    +0.105 A 
ATOM      9  N   UNL     1       4.652  -6.228  25.618  0.00  0.00    -0.216 NA
ATOM     10  N   UNL     1       4.816  -3.742  23.074  0.00  0.00    -0.169 NA
ENDROOT
BRANCH   8  11
ATOM     11  C   UNL     1       6.936  -2.532  23.217  0.00  0.00    +0.003 A 
ATOM     12  C   UNL     1       8.162  -2.929  22.676  0.00  0.00    +0.011 A 
ATOM     13  C   UNL     1       9.111  -1.992  22.270  0.00  0.00    +0.009 A 
ATOM     14  C   UNL     1       8.820  -0.630  22.298  0.00  0.00    -0.018 A 
ATOM     15  C   UNL     1       7.550  -0.201  22.744  0.00  0.00    -0.017 A 
ATOM     16  C   UNL     1       7.239   1.169  22.670  0.00  0.00    +0.008 A 
ATOM     17  C   UNL     1       8.167   2.089  22.172  0.00  0.00    +0.001 A 
ATOM     18  C   UNL     1       9.432   1.662  21.777  0.00  0.00    +0.001 A 
ATOM     19  C   UNL     1       9.759   0.310  21.850  0.00  0.00    +0.008 A 
ATOM     20  C   UNL     1       6.631  -1.159  23.228  0.00  0.00    +0.018 A 
ENDBRANCH   8  11
BRANCH   5  21
ATOM     21  N   UNL     1       8.117  -3.936  26.234  0.00  0.00    -0.342 N 
ATOM     22  H   UNL     1       7.899  -2.946  26.246  0.00  0.00    +0.144 HD
ATOM     23  H   UNL     1       8.928  -4.188  25.680  0.00  0.00    +0.144 HD
ENDBRANCH   5  21
TORSDOF 2
ENDMDL
MODEL 6
REMARK VINA RESULT:      -6.5      2.325      4.528
REMARK  Name = 
REMARK  3 active torsions:
REMARK  status: ('A' for Active; 'I' for Inactive)
REMARK    1  A    between atoms: C_1  and  N_2
REMARK    2  A    between atoms: C_4  and  C_12
REMARK    3  A    between atoms: C_6  and  N_7
REMARK                            x       y       z     vdW  Elec       q    Type
REMARK                         _______ _______ _______ _____ _____    ______ ____
ROOT
ATOM      1  C   UNL     1       6.749   2.715  26.375  0.00  0.00    +0.174 C 
ATOM      2  N   UNL     1       7.404   1.838  25.436  0.00  0.00    -0.249 N 
ATOM      3  C   UNL     1       8.435   2.190  24.615  0.00  0.00    +0.164 A 
ATOM      4  C   UNL     1       8.737   1.060  23.873  0.00  0.00    +0.086 A 
ATOM      5  C   UNL     1       9.753   1.216  22.915  0.00  0.00    +0.131 A 
ATOM      6  N   UNL     1      10.389   2.402  22.824  0.00  0.00    -0.220 NA
ATOM      7  C   UNL     1      10.008   3.405  23.634  0.00  0.00    +0.225 A 
ATOM      8  C   UNL     1       7.856   0.041  24.382  0.00  0.00    +0.105 A 
ATOM      9  N   UNL     1       9.027   3.395  24.547  0.00  0.00    -0.216 NA
ATOM     10  N   UNL     1       7.017   0.555  25.307  0.00  0.00    -0.169 NA
ENDROOT
BRANCH   8  11
ATOM     11  C   UNL     1       7.795  -1.389  24.042  0.00  0.00    +0.003 A 
ATOM     12  C   UNL     1       8.506  -2.328  24.796  0.00  0.00    +0.011 A 
ATOM     13  C   UNL     1       8.525  -3.675  24.440  0.00  0.00    +0.009 A 
ATOM     14  C   UNL     1       7.750  -4.140  23.379  0.00  0.00    -0.018 A 
ATOM     15  C   UNL     1       6.940  -3.231  22.662  0.00  0.00    -0.017 A 
ATOM     16  C   UNL     1       6.090  -3.735  21.661  0.00  0.00    +0.008 A 
ATOM     17  C   UNL     1       6.049  -5.104  21.376  0.00  0.00    +0.001 A 
ATOM     18  C   UNL     1       6.884  -5.984  22.058  0.00  0.00    +0.001 A 
ATOM     19  C   UNL     1       7.737  -5.502  23.047  0.00  0.00    +0.008 A 
ATOM     20  C   UNL     1       6.996  -1.857  22.984  0.00  0.00    +0.018 A 
ENDBRANCH   8  11
BRANCH   5  21
ATOM     21  N   UNL     1      10.167   0.251  22.005  0.00  0.00    -0.342 N 
ATOM     22  H   UNL     1      10.369   0.688  21.112  0.00  0.00    +0.144 HD
ATOM     23  H   UNL     1       9.558  -0.557  21.957  0.00  0.00    +0.144 HD
ENDBRANCH   5  21
TORSDOF 2
ENDMDL
MODEL 7
REMARK VINA RESULT:      -6.4      1.986      3.066
REMARK  Name = 
REMARK  3 active torsions:
REMARK  status: ('A' for Active; 'I' for Inactive)
REMARK    1  A    between atoms: C_1  and  N_2
REMARK    2  A    between atoms: C_4  and  C_12
REMARK    3  A    between atoms: C_6  and  N_7
REMARK                            x       y       z     vdW  Elec       q    Type
REMARK                         _______ _______ _______ _____ _____    ______ ____
ROOT
ATOM      1  C   UNL     1      11.251   3.733  23.380  0.00  0.00    +0.174 C 
ATOM      2  N   UNL     1      10.210   2.742  23.487  0.00  0.00    -0.249 N 
ATOM      3  C   UNL     1       8.901   2.932  23.154  0.00  0.00    +0.164 A 
ATOM      4  C   UNL     1       8.256   1.739  23.434  0.00  0.00    +0.086 A 
ATOM      5  C   UNL     1       6.870   1.730  23.208  0.00  0.00    +0.131 A 
ATOM      6  N   UNL     1       6.284   2.831  22.693  0.00  0.00    -0.220 NA
ATOM      7  C   UNL     1       7.044   3.910  22.441  0.00  0.00    +0.225 A 
ATOM      8  C   UNL     1       9.302   0.854  23.878  0.00  0.00    +0.105 A 
ATOM      9  N   UNL     1       8.359   4.058  22.659  0.00  0.00    -0.216 NA
ATOM     10  N   UNL     1      10.482   1.505  23.946  0.00  0.00    -0.169 NA
ENDROOT
BRANCH   8  11
ATOM     11  C   UNL     1       9.226  -0.576  24.217  0.00  0.00    +0.003 A 
ATOM     12  C   UNL     1      10.057  -1.501  23.578  0.00  0.00    +0.011 A 
ATOM     13  C   UNL     1       9.943  -2.868  23.826  0.00  0.00    +0.009 A 
ATOM     14  C   UNL     1       9.064  -3.341  24.799  0.00  0.00    -0.018 A 
ATOM     15  C   UNL     1       8.285  -2.422  25.536  0.00  0.00    -0.017 A 
ATOM     16  C   UNL     1       7.479  -2.909  26.581  0.00  0.00    +0.008 A 
ATOM     17  C   UNL     1       7.445  -4.275  26.883  0.00  0.00    +0.001 A 
ATOM     18  C   UNL     1       8.183  -5.177  26.121  0.00  0.00    +0.001 A 
ATOM     19  C   UNL     1       8.980  -4.712  25.079  0.00  0.00    +0.008 A 
ATOM     20  C   UNL     1       8.353  -1.048  25.213  0.00  0.00    +0.018 A 
ENDBRANCH   8  11
BRANCH   5  21
ATOM     21  N   UNL     1       6.006   0.680  23.494  0.00  0.00    -0.342 N 
ATOM     22  H   UNL     1       5.068   1.038  23.640  0.00  0.00    +0.144 HD
ATOM     23  H   UNL     1       6.343   0.056  24.218  0.00  0.00    +0.144 HD
ENDBRANCH   5  21
TORSDOF 2
ENDMDL
MODEL 8
REMARK VINA RESULT:      -6.4      5.265      8.633
REMARK  Name = 
REMARK  3 active torsions:
REMARK  status: ('A' for Active; 'I' for Inactive)
REMARK    1  A    between atoms: C_1  and  N_2
REMARK    2  A    between atoms: C_4  and  C_12
REMARK    3  A    between atoms: C_6  and  N_7
REMARK                            x       y       z     vdW  Elec       q    Type
REMARK                         _______ _______ _______ _____ _____    ______ ____
ROOT
ATOM      1  C   UNL     1       3.624  -2.561  28.641  0.00  0.00    +0.174 C 
ATOM      2  N   UNL     1       4.762  -3.035  27.893  0.00  0.00    -0.249 N 
ATOM      3  C   UNL     1       5.419  -4.209  28.115  0.00  0.00    +0.164 A 
ATOM      4  C   UNL     1       6.452  -4.251  27.193  0.00  0.00    +0.086 A 
ATOM      5  C   UNL     1       7.298  -5.369  27.277  0.00  0.00    +0.131 A 
ATOM      6  N   UNL     1       7.024  -6.329  28.185  0.00  0.00    -0.220 NA
ATOM      7  C   UNL     1       5.966  -6.167  28.999  0.00  0.00    +0.225 A 
ATOM      8  C   UNL     1       6.283  -3.060  26.400  0.00  0.00    +0.105 A 
ATOM      9  N   UNL     1       5.119  -5.129  29.047  0.00  0.00    -0.216 NA
ATOM     10  N   UNL     1       5.269  -2.308  26.879  0.00  0.00    -0.169 NA
ENDROOT
BRANCH   8  11
ATOM     11  C   UNL     1       7.027  -2.625  25.208  0.00  0.00    +0.003 A 
ATOM     12  C   UNL     1       6.982  -3.376  24.031  0.00  0.00    +0.011 A 
ATOM     13  C   UNL     1       7.744  -3.024  22.918  0.00  0.00    +0.009 A 
ATOM     14  C   UNL     1       8.495  -1.850  22.916  0.00  0.00    -0.018 A 
ATOM     15  C   UNL     1       8.480  -1.014  24.055  0.00  0.00    -0.017 A 
ATOM     16  C   UNL     1       9.162   0.214  23.997  0.00  0.00    +0.008 A 
ATOM     17  C   UNL     1       9.847   0.600  22.840  0.00  0.00    +0.001 A 
ATOM     18  C   UNL     1       9.893  -0.251  21.739  0.00  0.00    +0.001 A 
ATOM     19  C   UNL     1       9.229  -1.474  21.782  0.00  0.00    +0.008 A 
ATOM     20  C   UNL     1       7.767  -1.429  25.203  0.00  0.00    +0.018 A 
ENDBRANCH   8  11
BRANCH   5  21
ATOM     21  N   UNL     1       8.440  -5.584  26.517  0.00  0.00    -0.342 N 
ATOM     22  H   UNL     1       9.256  -5.258  27.024  0.00  0.00    +0.144 HD
ATOM     23  H   UNL     1       8.368  -5.249  25.563  0.00  0.00    +0.144 HD
ENDBRANCH   5  21
TORSDOF 2
ENDMDL
MODEL 9
REMARK VINA RESULT:      -6.3      1.669      2.973
REMARK  Name = 
REMARK  3 active torsions:
REMARK  status: ('A' for Active; 'I' for Inactive)
REMARK    1  A    between atoms: C_1  and  N_2
REMARK    2  A    between atoms: C_4  and  C_12
REMARK    3  A    between atoms: C_6  and  N_7
REMARK                            x       y       z     vdW  Elec       q    Type
REMARK                         _______ _______ _______ _____ _____    ______ ____
ROOT
ATOM      1  C   UNL     1      11.290   3.727  23.380  0.00  0.00    +0.174 C 
ATOM      2  N   UNL     1      10.144   2.860  23.493  0.00  0.00    -0.249 N 
ATOM      3  C   UNL     1       8.842   3.257  23.406  0.00  0.00    +0.164 A 
ATOM      4  C   UNL     1       8.079   2.117  23.592  0.00  0.00    +0.086 A 
ATOM      5  C   UNL     1       6.688   2.309  23.590  0.00  0.00    +0.131 A 
ATOM      6  N   UNL     1       6.199   3.544  23.355  0.00  0.00    -0.220 NA
ATOM      7  C   UNL     1       7.062   4.555  23.160  0.00  0.00    +0.225 A 
ATOM      8  C   UNL     1       9.039   1.051  23.719  0.00  0.00    +0.105 A 
ATOM      9  N   UNL     1       8.402   4.508  23.187  0.00  0.00    -0.216 NA
ATOM     10  N   UNL     1      10.298   1.538  23.701  0.00  0.00    -0.169 NA
ENDROOT
BRANCH   8  11
ATOM     11  C   UNL     1       8.810  -0.397  23.835  0.00  0.00    +0.003 A 
ATOM     12  C   UNL     1       9.230  -1.093  24.972  0.00  0.00    +0.011 A 
ATOM     13  C   UNL     1       9.094  -2.478  25.064  0.00  0.00    +0.009 A 
ATOM     14  C   UNL     1       8.439  -3.194  24.064  0.00  0.00    -0.018 A 
ATOM     15  C   UNL     1       7.911  -2.505  22.949  0.00  0.00    -0.017 A 
ATOM     16  C   UNL     1       7.168  -3.231  22.001  0.00  0.00    +0.008 A 
ATOM     17  C   UNL     1       6.958  -4.605  22.154  0.00  0.00    +0.001 A 
ATOM     18  C   UNL     1       7.520  -5.282  23.233  0.00  0.00    +0.001 A 
ATOM     19  C   UNL     1       8.265  -4.581  24.177  0.00  0.00    +0.008 A 
ATOM     20  C   UNL     1       8.131  -1.114  22.833  0.00  0.00    +0.018 A 
ENDBRANCH   8  11
BRANCH   5  21
ATOM     21  N   UNL     1       5.731   1.332  23.839  0.00  0.00    -0.342 N 
ATOM     22  H   UNL     1       5.203   1.146  22.993  0.00  0.00    +0.144 HD
ATOM     23  H   UNL     1       5.169   1.508  24.664  0.00  0.00    +0.144 HD
ENDBRANCH   5  21
TORSDOF 2
ENDMDL
