MODEL 1
REMARK VINA RESULT:      -3.6      0.000      0.000
REMARK  Name = 
REMARK  5 active torsions:
REMARK  status: ('A' for Active; 'I' for Inactive)
REMARK    1  A    between atoms: C_1  and  C_2
REMARK    2  A    between atoms: C_2  and  C_3
REMARK    3  A    between atoms: C_2  and  N_4
REMARK    4  A    between atoms: C_2  and  C_5
REMARK    5  A    between atoms: C_5  and  O_6
REMARK                            x       y       z     vdW  Elec       q    Type
REMARK                         _______ _______ _______ _____ _____    ______ ____
ROOT
ATOM      1  C   UNL     1       6.936  -5.137  25.084  0.00  0.00    +0.039 C 
ATOM      2  C   UNL     1       8.067  -4.740  26.030  0.00  0.00    +0.109 C 
ATOM      3  C   UNL     1       7.919  -3.291  26.496  0.00  0.00    +0.039 C 
ENDROOT
BRANCH   2   4
ATOM      4  N   UNL     1       8.053  -5.657  27.212  0.00  0.00    -0.316 NA
ATOM      5  H   UNL     1       7.171  -5.513  27.716  0.00  0.00    +0.119 HD
ATOM      6  H   UNL     1       7.983  -6.619  26.864  0.00  0.00    +0.119 HD
ENDBRANCH   2   4
BRANCH   2   7
ATOM      7  C   UNL     1       9.410  -4.940  25.290  0.00  0.00    +0.324 C 
ATOM      8  O   UNL     1       9.935  -4.141  24.532  0.00  0.00    -0.249 OA
BRANCH   7   9
ATOM      9  O   UNL     1       9.942  -6.160  25.574  0.00  0.00    -0.479 OA
ATOM     10  H   UNL     1      10.559  -6.012  26.336  0.00  0.00    +0.295 HD
ENDBRANCH   7   9
ENDBRANCH   2   7
TORSDOF 3
ENDMDL
MODEL 2
REMARK VINA RESULT:      -3.4      2.081      2.651
REMARK  Name = 
REMARK  5 active torsions:
REMARK  status: ('A' for Active; 'I' for Inactive)
REMARK    1  A    between atoms: C_1  and  C_2
REMARK    2  A    between atoms: C_2  and  C_3
REMARK    3  A    between atoms: C_2  and  N_4
REMARK    4  A    between atoms: C_2  and  C_5
REMARK    5  A    between atoms: C_5  and  O_6
REMARK                            x       y       z     vdW  Elec       q    Type
REMARK                         _______ _______ _______ _____ _____    ______ ____
ROOT
ATOM      1  C   UNL     1       9.461  -3.323  24.728  0.00  0.00    +0.039 C 
ATOM      2  C   UNL     1       8.936  -4.726  25.026  0.00  0.00    +0.109 C 
ATOM      3  C   UNL     1       8.044  -5.236  23.894  0.00  0.00    +0.039 C 
ENDROOT
BRANCH   2   4
ATOM      4  N   UNL     1      10.100  -5.648  25.210  0.00  0.00    -0.316 NA
ATOM      5  H   UNL     1       9.761  -6.612  25.112  0.00  0.00    +0.119 HD
ATOM      6  H   UNL     1      10.730  -5.526  24.411  0.00  0.00    +0.119 HD
ENDBRANCH   2   4
BRANCH   2   7
ATOM      7  C   UNL     1       8.153  -4.677  26.357  0.00  0.00    +0.324 C 
ATOM      8  O   UNL     1       7.578  -3.703  26.814  0.00  0.00    -0.249 OA
BRANCH   7   9
ATOM      9  O   UNL     1       8.202  -5.880  26.992  0.00  0.00    -0.479 OA
ATOM     10  H   UNL     1       8.338  -6.554  26.278  0.00  0.00    +0.295 HD
ENDBRANCH   7   9
ENDBRANCH   2   7
TORSDOF 3
ENDMDL
MODEL 3
REMARK VINA RESULT:      -3.4      6.501      6.991
REMARK  Name = 
REMARK  5 active torsions:
REMARK  status: ('A' for Active; 'I' for Inactive)
REMARK    1  A    between atoms: C_1  and  C_2
REMARK    2  A    between atoms: C_2  and  C_3
REMARK    3  A    between atoms: C_2  and  N_4
REMARK    4  A    between atoms: C_2  and  C_5
REMARK    5  A    between atoms: C_5  and  O_6
REMARK                            x       y       z     vdW  Elec       q    Type
REMARK                         _______ _______ _______ _____ _____    ______ ____
ROOT
ATOM      1  C   UNL     1       8.068  -0.485  23.001  0.00  0.00    +0.039 C 
ATOM      2  C   UNL     1       9.347   0.033  22.346  0.00  0.00    +0.109 C 
ATOM      3  C   UNL     1      10.485   0.141  23.360  0.00  0.00    +0.039 C 
ENDROOT
BRANCH   2   4
ATOM      4  N   UNL     1       9.736  -0.900  21.243  0.00  0.00    -0.316 NA
ATOM      5  H   UNL     1       9.153  -0.689  20.426  0.00  0.00    +0.119 HD
ATOM      6  H   UNL     1      10.684  -0.652  20.940  0.00  0.00    +0.119 HD
ENDBRANCH   2   4
BRANCH   2   7
ATOM      7  C   UNL     1       9.044   1.412  21.717  0.00  0.00    +0.324 C 
ATOM      8  O   UNL     1       7.949   1.808  21.352  0.00  0.00    -0.249 OA
BRANCH   7   9
ATOM      9  O   UNL     1      10.183   2.147  21.591  0.00  0.00    -0.479 OA
ATOM     10  H   UNL     1      10.257   2.363  20.627  0.00  0.00    +0.295 HD
ENDBRANCH   7   9
ENDBRANCH   2   7
TORSDOF 3
ENDMDL
MODEL 4
REMARK VINA RESULT:      -3.4      5.044      5.625
REMARK  Name = 
REMARK  5 active torsions:
REMARK  status: ('A' for Active; 'I' for Inactive)
REMARK    1  A    between atoms: C_1  and  C_2
REMARK    2  A    between atoms: C_2  and  C_3
REMARK    3  A    between atoms: C_2  and  N_4
REMARK    4  A    between atoms: C_2  and  C_5
REMARK    5  A    between atoms: C_5  and  O_6
REMARK                            x       y       z     vdW  Elec       q    Type
REMARK                         _______ _______ _______ _____ _____    ______ ____
ROOT
ATOM      1  C   UNL     1       9.925   0.903  21.993  0.00  0.00    +0.039 C 
ATOM      2  C   UNL     1       9.791   0.015  23.228  0.00  0.00    +0.109 C 
ATOM      3  C   UNL     1      10.738   0.465  24.340  0.00  0.00    +0.039 C 
ENDROOT
BRANCH   2   4
ATOM      4  N   UNL     1       8.376   0.072  23.712  0.00  0.00    -0.316 NA
ATOM      5  H   UNL     1       8.079  -0.884  23.939  0.00  0.00    +0.119 HD
ATOM      6  H   UNL     1       8.372   0.552  24.618  0.00  0.00    +0.119 HD
ENDBRANCH   2   4
BRANCH   2   7
ATOM      7  C   UNL     1      10.092  -1.442  22.811  0.00  0.00    +0.324 C 
ATOM      8  O   UNL     1      10.201  -2.395  23.567  0.00  0.00    -0.249 OA
BRANCH   7   9
ATOM      9  O   UNL     1      10.252  -1.538  21.463  0.00  0.00    -0.479 OA
ATOM     10  H   UNL     1      10.030  -0.641  21.103  0.00  0.00    +0.295 HD
ENDBRANCH   7   9
ENDBRANCH   2   7
TORSDOF 3
ENDMDL
MODEL 5
REMARK VINA RESULT:      -3.3      6.380      7.168
REMARK  Name = 
REMARK  5 active torsions:
REMARK  status: ('A' for Active; 'I' for Inactive)
REMARK    1  A    between atoms: C_1  and  C_2
REMARK    2  A    between atoms: C_2  and  C_3
REMARK    3  A    between atoms: C_2  and  N_4
REMARK    4  A    between atoms: C_2  and  C_5
REMARK    5  A    between atoms: C_5  and  O_6
REMARK                            x       y       z     vdW  Elec       q    Type
REMARK                         _______ _______ _______ _____ _____    ______ ____
ROOT
ATOM      1  C   UNL     1       9.781   2.888  23.890  0.00  0.00    +0.039 C 
ATOM      2  C   UNL     1       9.783   1.375  23.686  0.00  0.00    +0.109 C 
ATOM      3  C   UNL     1      10.919   0.711  24.463  0.00  0.00    +0.039 C 
ENDROOT
BRANCH   2   4
ATOM      4  N   UNL     1       8.468   0.824  24.141  0.00  0.00    -0.316 NA
ATOM      5  H   UNL     1       7.940   1.585  24.584  0.00  0.00    +0.119 HD
ATOM      6  H   UNL     1       7.916   0.595  23.308  0.00  0.00    +0.119 HD
ENDBRANCH   2   4
BRANCH   2   7
ATOM      7  C   UNL     1       9.918   1.090  22.173  0.00  0.00    +0.324 C 
ATOM      8  O   UNL     1       9.919  -0.012  21.649  0.00  0.00    -0.249 OA
BRANCH   7   9
ATOM      9  O   UNL     1      10.066   2.248  21.473  0.00  0.00    -0.479 OA
ATOM     10  H   UNL     1       9.196   2.718  21.548  0.00  0.00    +0.295 HD
ENDBRANCH   7   9
ENDBRANCH   2   7
TORSDOF 3
ENDMDL
MODEL 6
REMARK VINA RESULT:      -3.1      6.614      7.078
REMARK  Name = 
REMARK  5 active torsions:
REMARK  status: ('A' for Active; 'I' for Inactive)
REMARK    1  A    between atoms: C_1  and  C_2
REMARK    2  A    between atoms: C_2  and  C_3
REMARK    3  A    between atoms: C_2  and  N_4
REMARK    4  A    between atoms: C_2  and  C_5
REMARK    5  A    between atoms: C_5  and  O_6
REMARK                            x       y       z     vdW  Elec       q    Type
REMARK                         _______ _______ _______ _____ _____    ______ ____
ROOT
ATOM      1  C   UNL     1       7.922   1.460  22.321  0.00  0.00    +0.039 C 
ATOM      2  C   UNL     1       9.409   1.114  22.286  0.00  0.00    +0.109 C 
ATOM      3  C   UNL     1       9.656  -0.200  21.547  0.00  0.00    +0.039 C 
ENDROOT
BRANCH   2   4
ATOM      4  N   UNL     1      10.147   2.225  21.608  0.00  0.00    -0.316 NA
ATOM      5  H   UNL     1      10.996   2.421  22.151  0.00  0.00    +0.119 HD
ATOM      6  H   UNL     1      10.504   1.868  20.715  0.00  0.00    +0.119 HD
ENDBRANCH   2   4
BRANCH   2   7
ATOM      7  C   UNL     1       9.919   1.025  23.742  0.00  0.00    +0.324 C 
ATOM      8  O   UNL     1       9.815   1.895  24.592  0.00  0.00    -0.249 OA
BRANCH   7   9
ATOM      9  O   UNL     1      10.539  -0.166  23.966  0.00  0.00    -0.479 OA
ATOM     10  H   UNL     1      11.094  -0.030  24.776  0.00  0.00    +0.295 HD
ENDBRANCH   7   9
ENDBRANCH   2   7
TORSDOF 3
ENDMDL
MODEL 7
REMARK VINA RESULT:      -3.1      4.881      5.388
REMARK  Name = 
REMARK  5 active torsions:
REMARK  status: ('A' for Active; 'I' for Inactive)
REMARK    1  A    between atoms: C_1  and  C_2
REMARK    2  A    between atoms: C_2  and  C_3
REMARK    3  A    between atoms: C_2  and  N_4
REMARK    4  A    between atoms: C_2  and  C_5
REMARK    5  A    between atoms: C_5  and  O_6
REMARK                            x       y       z     vdW  Elec       q    Type
REMARK                         _______ _______ _______ _____ _____    ______ ____
ROOT
ATOM      1  C   UNL     1       8.168  -0.429  23.927  0.00  0.00    +0.039 C 
ATOM      2  C   UNL     1       9.639  -0.668  23.595  0.00  0.00    +0.109 C 
ATOM      3  C   UNL     1      10.551   0.224  24.437  0.00  0.00    +0.039 C 
ENDROOT
BRANCH   2   4
ATOM      4  N   UNL     1       9.964  -2.107  23.847  0.00  0.00    -0.316 NA
ATOM      5  H   UNL     1      10.949  -2.167  24.129  0.00  0.00    +0.119 HD
ATOM      6  H   UNL     1       9.450  -2.405  24.683  0.00  0.00    +0.119 HD
ENDBRANCH   2   4
BRANCH   2   7
ATOM      7  C   UNL     1       9.847  -0.392  22.088  0.00  0.00    +0.324 C 
ATOM      8  O   UNL     1       9.697   0.683  21.530  0.00  0.00    -0.249 OA
BRANCH   7   9
ATOM      9  O   UNL     1      10.203  -1.530  21.432  0.00  0.00    -0.479 OA
ATOM     10  H   UNL     1       9.390  -1.826  20.948  0.00  0.00    +0.295 HD
ENDBRANCH   7   9
ENDBRANCH   2   7
TORSDOF 3
ENDMDL
MODEL 8
REMARK VINA RESULT:      -3.1      6.662      7.122
REMARK  Name = 
REMARK  5 active torsions:
REMARK  status: ('A' for Active; 'I' for Inactive)
REMARK    1  A    between atoms: C_1  and  C_2
REMARK    2  A    between atoms: C_2  and  C_3
REMARK    3  A    between atoms: C_2  and  N_4
REMARK    4  A    between atoms: C_2  and  C_5
REMARK    5  A    between atoms: C_5  and  O_6
REMARK                            x       y       z     vdW  Elec       q    Type
REMARK                         _______ _______ _______ _____ _____    ______ ____
ROOT
ATOM      1  C   UNL     1       9.914   0.579  24.841  0.00  0.00    +0.039 C 
ATOM      2  C   UNL     1       9.604   0.651  23.347  0.00  0.00    +0.109 C 
ATOM      3  C   UNL     1      10.192  -0.545  22.599  0.00  0.00    +0.039 C 
ENDROOT
BRANCH   2   4
ATOM      4  N   UNL     1       8.120   0.686  23.163  0.00  0.00    -0.316 NA
ATOM      5  H   UNL     1       7.692   0.926  24.064  0.00  0.00    +0.119 HD
ATOM      6  H   UNL     1       7.894   1.486  22.563  0.00  0.00    +0.119 HD
ENDBRANCH   2   4
BRANCH   2   7
ATOM      7  C   UNL     1      10.181   1.975  22.797  0.00  0.00    +0.324 C 
ATOM      8  O   UNL     1      10.821   2.797  23.434  0.00  0.00    -0.249 OA
BRANCH   7   9
ATOM      9  O   UNL     1       9.862   2.134  21.483  0.00  0.00    -0.479 OA
ATOM     10  H   UNL     1       8.996   2.617  21.475  0.00  0.00    +0.295 HD
ENDBRANCH   7   9
ENDBRANCH   2   7
TORSDOF 3
ENDMDL
MODEL 9
REMARK VINA RESULT:      -3.1      6.986      7.507
REMARK  Name = 
REMARK  5 active torsions:
REMARK  status: ('A' for Active; 'I' for Inactive)
REMARK    1  A    between atoms: C_1  and  C_2
REMARK    2  A    between atoms: C_2  and  C_3
REMARK    3  A    between atoms: C_2  and  N_4
REMARK    4  A    between atoms: C_2  and  C_5
REMARK    5  A    between atoms: C_5  and  O_6
REMARK                            x       y       z     vdW  Elec       q    Type
REMARK                         _______ _______ _______ _____ _____    ______ ____
ROOT
ATOM      1  C   UNL     1       9.499  -0.174  21.411  0.00  0.00    +0.039 C 
ATOM      2  C   UNL     1       9.294   1.093  22.239  0.00  0.00    +0.109 C 
ATOM      3  C   UNL     1       9.715   0.881  23.693  0.00  0.00    +0.039 C 
ENDROOT
BRANCH   2   4
ATOM      4  N   UNL     1      10.098   2.201  21.634  0.00  0.00    -0.316 NA
ATOM      5  H   UNL     1      10.369   2.844  22.386  0.00  0.00    +0.119 HD
ATOM      6  H   UNL     1      10.988   1.806  21.314  0.00  0.00    +0.119 HD
ENDBRANCH   2   4
BRANCH   2   7
ATOM      7  C   UNL     1       7.802   1.489  22.156  0.00  0.00    +0.324 C 
ATOM      8  O   UNL     1       7.362   2.531  21.698  0.00  0.00    -0.249 OA
BRANCH   7   9
ATOM      9  O   UNL     1       7.013   0.518  22.692  0.00  0.00    -0.479 OA
ATOM     10  H   UNL     1       7.580   0.048  23.356  0.00  0.00    +0.295 HD
ENDBRANCH   7   9
ENDBRANCH   2   7
TORSDOF 3
ENDMDL
