MODEL 1
REMARK VINA RESULT:      -7.0      0.000      0.000
REMARK  Name = 
REMARK  16 active torsions:
REMARK  status: ('A' for Active; 'I' for Inactive)
REMARK    1  A    between atoms: C_1  and  C_2
REMARK    2  A    between atoms: C_2  and  O_3
REMARK    3  A    between atoms: O_3  and  C_4
REMARK    4  A    between atoms: C_4  and  C_5
REMARK    5  A    between atoms: C_5  and  O_6
REMARK    6  A    between atoms: O_6  and  C_7
REMARK    7  A    between atoms: N_9  and  C_10
REMARK    8  A    between atoms: C_10  and  C_12
REMARK    9  A    between atoms: C_10  and  C_19
REMARK   10  A    between atoms: C_12  and  C_13
REMARK   11  A    between atoms: C_19  and  O_21
REMARK   12  A    between atoms: C_19  and  C_22
REMARK   13  A    between atoms: C_22  and  C_23
REMARK   14  A    between atoms: C_23  and  C_24
REMARK   15  A    between atoms: C_24  and  C_25
REMARK   16  A    between atoms: C_33  and  C_34
REMARK                            x       y       z     vdW  Elec       q    Type
REMARK                         _______ _______ _______ _____ _____    ______ ____
ROOT
ATOM      1  C   UNL     1       6.902  -0.487  26.942  0.00  0.00    +0.101 C 
ATOM      2  C   UNL     1       6.750   0.364  25.651  0.00  0.00    +0.185 C 
ATOM      3  O   UNL     1       6.257   0.011  24.588  0.00  0.00    -0.290 OA
ATOM      4  C   UNL     1       7.233   1.755  25.929  0.00  0.00    +0.022 C 
ATOM      5  C   UNL     1       7.133   1.798  27.269  0.00  0.00    +0.076 C 
ATOM      6  N   UNL     1       6.862   0.610  27.930  0.00  0.00    -0.337 N 
ATOM      7  H   UNL     1       5.940   0.654  28.390  0.00  0.00    +0.147 HD
ENDROOT
BRANCH   4   8
ATOM      8  C   UNL     1       7.716   2.794  24.955  0.00  0.00    +0.097 C 
ATOM      9  C   UNL     1       8.414   2.141  23.756  0.00  0.00    -0.031 A 
ATOM     10  C   UNL     1       7.581   2.116  22.629  0.00  0.00    -0.020 A 
ATOM     11  C   UNL     1       7.939   1.441  21.471  0.00  0.00    +0.006 A 
ATOM     12  C   UNL     1       9.170   0.791  21.439  0.00  0.00    +0.000 A 
ATOM     13  C   UNL     1      10.028   0.840  22.548  0.00  0.00    +0.000 A 
ATOM     14  C   UNL     1       6.351   2.913  22.861  0.00  0.00    +0.148 C 
ATOM     15  N   UNL     1       5.193   2.190  23.217  0.00  0.00    -0.271 N 
ATOM     16  H   UNL     1       4.766   1.420  22.722  0.00  0.00    +0.153 HD
ATOM     17  C   UNL     1       4.553   2.840  24.235  0.00  0.00    +0.401 C 
ATOM     18  O   UNL     1       3.437   2.574  24.646  0.00  0.00    -0.226 OA
ATOM     19  O   UNL     1       5.371   3.805  24.755  0.00  0.00    -0.444 OA
ATOM     20  C   UNL     1       9.659   1.525  23.710  0.00  0.00    +0.005 A 
ATOM     21  C   UNL     1       6.659   3.655  24.157  0.00  0.00    +0.215 C 
ENDBRANCH   4   8
BRANCH   1  22
ATOM     22  C   UNL     1       5.798  -1.544  27.171  0.00  0.00    +0.067 C 
BRANCH  22  23
ATOM     23  C   UNL     1       5.158  -2.105  25.885  0.00  0.00    +0.138 C 
BRANCH  23  24
ATOM     24  O   UNL     1       3.828  -1.568  25.783  0.00  0.00    -0.390 OA
ATOM     25  H   UNL     1       3.826  -0.682  26.181  0.00  0.00    +0.210 HD
ENDBRANCH  23  24
BRANCH  23  26
ATOM     26  C   UNL     1       5.138  -3.669  25.796  0.00  0.00    +0.109 C 
BRANCH  26  28
ATOM     27  C   UNL     1       4.888  -5.597  27.306  0.00  0.00    +0.401 C 
ATOM     28  N   UNL     1       4.607  -4.297  27.006  0.00  0.00    -0.275 N 
ATOM     29  H   UNL     1       3.682  -4.030  27.318  0.00  0.00    +0.152 HD
ATOM     30  O   UNL     1       5.814  -6.254  26.857  0.00  0.00    -0.226 OA
BRANCH  27  31
ATOM     31  O   UNL     1       3.869  -6.093  28.046  0.00  0.00    -0.448 OA
BRANCH  31  32
ATOM     32  C   UNL     1       2.606  -6.035  27.374  0.00  0.00    +0.262 C 
BRANCH  32  33
ATOM     33  C   UNL     1       2.414  -7.155  26.363  0.00  0.00    +0.201 C 
BRANCH  33  34
ATOM     34  O   UNL     1       2.009  -6.564  25.123  0.00  0.00    -0.377 OA
BRANCH  34  36
ATOM     35  C   UNL     1       1.898  -6.692  22.737  0.00  0.00    +0.034 C 
ATOM     36  C   UNL     1       2.199  -7.445  24.020  0.00  0.00    +0.156 C 
ENDBRANCH  34  36
ENDBRANCH  33  34
ENDBRANCH  32  33
ENDBRANCH  31  32
ENDBRANCH  27  31
ENDBRANCH  26  28
BRANCH  26  37
ATOM     37  C   UNL     1       4.316  -4.117  24.550  0.00  0.00    +0.060 C 
BRANCH  37  38
ATOM     38  C   UNL     1       5.107  -4.637  23.368  0.00  0.00    -0.046 A 
ATOM     39  C   UNL     1       5.528  -5.969  23.298  0.00  0.00    +0.004 A 
ATOM     40  C   UNL     1       6.265  -6.421  22.199  0.00  0.00    +0.000 A 
ATOM     41  C   UNL     1       6.595  -5.545  21.164  0.00  0.00    +0.000 A 
ATOM     42  C   UNL     1       6.198  -4.213  21.230  0.00  0.00    +0.000 A 
ATOM     43  C   UNL     1       5.461  -3.762  22.326  0.00  0.00    +0.004 A 
ENDBRANCH  37  38
ENDBRANCH  26  37
ENDBRANCH  23  26
ENDBRANCH  22  23
ENDBRANCH   1  22
BRANCH   1  44
ATOM     44  C   UNL     1       8.326  -1.115  26.868  0.00  0.00    +0.069 C 
BRANCH  44  45
ATOM     45  C   UNL     1       8.642  -2.321  26.003  0.00  0.00    -0.045 A 
ATOM     46  C   UNL     1       8.726  -2.218  24.606  0.00  0.00    +0.004 A 
ATOM     47  C   UNL     1       8.784  -3.362  23.805  0.00  0.00    +0.000 A 
ATOM     48  C   UNL     1       8.753  -4.626  24.387  0.00  0.00    +0.000 A 
ATOM     49  C   UNL     1       8.679  -4.745  25.773  0.00  0.00    +0.000 A 
ATOM     50  C   UNL     1       8.624  -3.602  26.575  0.00  0.00    +0.004 A 
ENDBRANCH  44  45
ENDBRANCH   1  44
TORSDOF 15
ENDMDL
MODEL 2
REMARK VINA RESULT:      -6.9      2.242      3.876
REMARK  Name = 
REMARK  16 active torsions:
REMARK  status: ('A' for Active; 'I' for Inactive)
REMARK    1  A    between atoms: C_1  and  C_2
REMARK    2  A    between atoms: C_2  and  O_3
REMARK    3  A    between atoms: O_3  and  C_4
REMARK    4  A    between atoms: C_4  and  C_5
REMARK    5  A    between atoms: C_5  and  O_6
REMARK    6  A    between atoms: O_6  and  C_7
REMARK    7  A    between atoms: N_9  and  C_10
REMARK    8  A    between atoms: C_10  and  C_12
REMARK    9  A    between atoms: C_10  and  C_19
REMARK   10  A    between atoms: C_12  and  C_13
REMARK   11  A    between atoms: C_19  and  O_21
REMARK   12  A    between atoms: C_19  and  C_22
REMARK   13  A    between atoms: C_22  and  C_23
REMARK   14  A    between atoms: C_23  and  C_24
REMARK   15  A    between atoms: C_24  and  C_25
REMARK   16  A    between atoms: C_33  and  C_34
REMARK                            x       y       z     vdW  Elec       q    Type
REMARK                         _______ _______ _______ _____ _____    ______ ____
ROOT
ATOM      1  C   UNL     1       7.902  -0.889  25.254  0.00  0.00    +0.101 C 
ATOM      2  C   UNL     1       6.842   0.233  25.071  0.00  0.00    +0.185 C 
ATOM      3  O   UNL     1       5.634   0.142  25.242  0.00  0.00    -0.290 OA
ATOM      4  C   UNL     1       7.546   1.510  24.724  0.00  0.00    +0.022 C 
ATOM      5  C   UNL     1       8.781   1.257  25.189  0.00  0.00    +0.076 C 
ATOM      6  N   UNL     1       9.060  -0.038  25.597  0.00  0.00    -0.337 N 
ATOM      7  H   UNL     1       9.247  -0.067  26.611  0.00  0.00    +0.147 HD
ENDROOT
BRANCH   4   8
ATOM      8  C   UNL     1       6.999   2.723  24.022  0.00  0.00    +0.097 C 
ATOM      9  C   UNL     1       7.745   3.990  24.455  0.00  0.00    -0.031 A 
ATOM     10  C   UNL     1       8.670   4.397  23.483  0.00  0.00    -0.020 A 
ATOM     11  C   UNL     1       9.567   5.430  23.715  0.00  0.00    +0.006 A 
ATOM     12  C   UNL     1       9.521   6.081  24.945  0.00  0.00    +0.000 A 
ATOM     13  C   UNL     1       8.575   5.707  25.912  0.00  0.00    +0.000 A 
ATOM     14  C   UNL     1       8.510   3.610  22.236  0.00  0.00    +0.148 C 
ATOM     15  N   UNL     1       9.411   2.541  22.048  0.00  0.00    -0.271 N 
ATOM     16  H   UNL     1      10.421   2.571  22.062  0.00  0.00    +0.153 HD
ATOM     17  C   UNL     1       8.727   1.451  21.589  0.00  0.00    +0.401 C 
ATOM     18  O   UNL     1       9.237   0.430  21.161  0.00  0.00    -0.226 OA
ATOM     19  O   UNL     1       7.381   1.658  21.724  0.00  0.00    -0.444 OA
ATOM     20  C   UNL     1       7.674   4.665  25.667  0.00  0.00    +0.005 A 
ATOM     21  C   UNL     1       7.197   2.867  22.462  0.00  0.00    +0.215 C 
ENDBRANCH   4   8
BRANCH   1  22
ATOM     22  C   UNL     1       7.578  -1.932  26.348  0.00  0.00    +0.067 C 
BRANCH  22  23
ATOM     23  C   UNL     1       6.083  -2.283  26.488  0.00  0.00    +0.138 C 
BRANCH  23  24
ATOM     24  O   UNL     1       5.592  -1.656  27.685  0.00  0.00    -0.390 OA
ATOM     25  H   UNL     1       5.682  -2.285  28.418  0.00  0.00    +0.210 HD
ENDBRANCH  23  24
BRANCH  23  26
ATOM     26  C   UNL     1       5.771  -3.818  26.493  0.00  0.00    +0.109 C 
BRANCH  26  28
ATOM     27  C   UNL     1       7.188  -5.587  27.456  0.00  0.00    +0.401 C 
ATOM     28  N   UNL     1       6.368  -4.513  27.635  0.00  0.00    -0.275 N 
ATOM     29  H   UNL     1       5.826  -4.590  28.486  0.00  0.00    +0.152 HD
ATOM     30  O   UNL     1       7.775  -5.879  26.426  0.00  0.00    -0.226 OA
BRANCH  27  31
ATOM     31  O   UNL     1       7.103  -6.375  28.553  0.00  0.00    -0.448 OA
BRANCH  31  32
ATOM     32  C   UNL     1       5.754  -6.622  28.965  0.00  0.00    +0.262 C 
BRANCH  32  33
ATOM     33  C   UNL     1       5.496  -6.260  30.419  0.00  0.00    +0.201 C 
BRANCH  33  34
ATOM     34  O   UNL     1       5.252  -4.850  30.485  0.00  0.00    -0.377 OA
BRANCH  34  36
ATOM     35  C   UNL     1       3.733  -3.030  30.167  0.00  0.00    +0.034 C 
ATOM     36  C   UNL     1       3.874  -4.534  30.317  0.00  0.00    +0.156 C 
ENDBRANCH  34  36
ENDBRANCH  33  34
ENDBRANCH  32  33
ENDBRANCH  31  32
ENDBRANCH  27  31
ENDBRANCH  26  28
BRANCH  26  37
ATOM     37  C   UNL     1       4.230  -4.046  26.471  0.00  0.00    +0.060 C 
BRANCH  37  38
ATOM     38  C   UNL     1       3.691  -4.924  25.361  0.00  0.00    -0.046 A 
ATOM     39  C   UNL     1       4.184  -6.215  25.144  0.00  0.00    +0.004 A 
ATOM     40  C   UNL     1       3.675  -7.001  24.106  0.00  0.00    +0.000 A 
ATOM     41  C   UNL     1       2.674  -6.504  23.271  0.00  0.00    +0.000 A 
ATOM     42  C   UNL     1       2.187  -5.216  23.466  0.00  0.00    +0.000 A 
ATOM     43  C   UNL     1       2.693  -4.430  24.502  0.00  0.00    +0.004 A 
ENDBRANCH  37  38
ENDBRANCH  26  37
ENDBRANCH  23  26
ENDBRANCH  22  23
ENDBRANCH   1  22
BRANCH   1  44
ATOM     44  C   UNL     1       8.083  -1.533  23.847  0.00  0.00    +0.069 C 
BRANCH  44  45
ATOM     45  C   UNL     1       7.316  -2.766  23.410  0.00  0.00    -0.045 A 
ATOM     46  C   UNL     1       7.909  -4.037  23.413  0.00  0.00    +0.004 A 
ATOM     47  C   UNL     1       7.283  -5.123  22.795  0.00  0.00    +0.000 A 
ATOM     48  C   UNL     1       6.056  -4.953  22.160  0.00  0.00    +0.000 A 
ATOM     49  C   UNL     1       5.449  -3.700  22.156  0.00  0.00    +0.000 A 
ATOM     50  C   UNL     1       6.073  -2.615  22.776  0.00  0.00    +0.004 A 
ENDBRANCH  44  45
ENDBRANCH   1  44
TORSDOF 15
ENDMDL
MODEL 3
REMARK VINA RESULT:      -6.7      2.427      5.233
REMARK  Name = 
REMARK  16 active torsions:
REMARK  status: ('A' for Active; 'I' for Inactive)
REMARK    1  A    between atoms: C_1  and  C_2
REMARK    2  A    between atoms: C_2  and  O_3
REMARK    3  A    between atoms: O_3  and  C_4
REMARK    4  A    between atoms: C_4  and  C_5
REMARK    5  A    between atoms: C_5  and  O_6
REMARK    6  A    between atoms: O_6  and  C_7
REMARK    7  A    between atoms: N_9  and  C_10
REMARK    8  A    between atoms: C_10  and  C_12
REMARK    9  A    between atoms: C_10  and  C_19
REMARK   10  A    between atoms: C_12  and  C_13
REMARK   11  A    between atoms: C_19  and  O_21
REMARK   12  A    between atoms: C_19  and  C_22
REMARK   13  A    between atoms: C_22  and  C_23
REMARK   14  A    between atoms: C_23  and  C_24
REMARK   15  A    between atoms: C_24  and  C_25
REMARK   16  A    between atoms: C_33  and  C_34
REMARK                            x       y       z     vdW  Elec       q    Type
REMARK                         _______ _______ _______ _____ _____    ______ ____
ROOT
ATOM      1  C   UNL     1       8.841   1.122  23.220  0.00  0.00    +0.101 C 
ATOM      2  C   UNL     1       7.510   1.245  24.013  0.00  0.00    +0.185 C 
ATOM      3  O   UNL     1       6.387   0.961  23.619  0.00  0.00    -0.290 OA
ATOM      4  C   UNL     1       7.819   1.696  25.408  0.00  0.00    +0.022 C 
ATOM      5  C   UNL     1       9.111   1.337  25.514  0.00  0.00    +0.076 C 
ATOM      6  N   UNL     1       9.754   0.914  24.362  0.00  0.00    -0.337 N 
ATOM      7  H   UNL     1      10.022  -0.079  24.439  0.00  0.00    +0.147 HD
ENDROOT
BRANCH   4   8
ATOM      8  C   UNL     1       6.916   2.384  26.395  0.00  0.00    +0.097 C 
ATOM      9  C   UNL     1       5.799   3.149  25.675  0.00  0.00    -0.031 A 
ATOM     10  C   UNL     1       4.584   2.451  25.729  0.00  0.00    -0.020 A 
ATOM     11  C   UNL     1       3.468   2.872  25.021  0.00  0.00    +0.006 A 
ATOM     12  C   UNL     1       3.570   4.032  24.256  0.00  0.00    +0.000 A 
ATOM     13  C   UNL     1       4.769   4.758  24.223  0.00  0.00    +0.000 A 
ATOM     14  C   UNL     1       4.682   1.285  26.641  0.00  0.00    +0.148 C 
ATOM     15  N   UNL     1       4.897   0.030  26.034  0.00  0.00    -0.271 N 
ATOM     16  H   UNL     1       4.350  -0.409  25.307  0.00  0.00    +0.153 HD
ATOM     17  C   UNL     1       5.842  -0.657  26.743  0.00  0.00    +0.401 C 
ATOM     18  O   UNL     1       6.121  -1.833  26.587  0.00  0.00    -0.226 OA
ATOM     19  O   UNL     1       6.461   0.185  27.626  0.00  0.00    -0.444 OA
ATOM     20  C   UNL     1       5.889   4.326  24.942  0.00  0.00    +0.005 A 
ATOM     21  C   UNL     1       6.012   1.513  27.352  0.00  0.00    +0.215 C 
ENDBRANCH   4   8
BRANCH   1  22
ATOM     22  C   UNL     1       8.893  -0.030  22.190  0.00  0.00    +0.067 C 
BRANCH  22  23
ATOM     23  C   UNL     1       9.674  -1.278  22.649  0.00  0.00    +0.138 C 
BRANCH  23  24
ATOM     24  O   UNL     1      10.530  -1.685  21.568  0.00  0.00    -0.390 OA
ATOM     25  H   UNL     1      10.502  -0.999  20.882  0.00  0.00    +0.210 HD
ENDBRANCH  23  24
BRANCH  23  26
ATOM     26  C   UNL     1       8.778  -2.468  23.133  0.00  0.00    +0.109 C 
BRANCH  26  28
ATOM     27  C   UNL     1       9.131  -3.780  25.187  0.00  0.00    +0.401 C 
ATOM     28  N   UNL     1       8.766  -2.610  24.590  0.00  0.00    -0.275 N 
ATOM     29  H   UNL     1       8.046  -2.128  25.113  0.00  0.00    +0.152 HD
ATOM     30  O   UNL     1       9.793  -4.670  24.678  0.00  0.00    -0.226 OA
BRANCH  27  31
ATOM     31  O   UNL     1       8.486  -3.871  26.373  0.00  0.00    -0.448 OA
BRANCH  31  32
ATOM     32  C   UNL     1       7.909  -5.162  26.602  0.00  0.00    +0.262 C 
BRANCH  32  33
ATOM     33  C   UNL     1       6.390  -5.162  26.515  0.00  0.00    +0.201 C 
BRANCH  33  34
ATOM     34  O   UNL     1       5.959  -6.519  26.356  0.00  0.00    -0.377 OA
BRANCH  34  36
ATOM     35  C   UNL     1       3.771  -7.284  25.771  0.00  0.00    +0.034 C 
ATOM     36  C   UNL     1       4.651  -6.732  26.877  0.00  0.00    +0.156 C 
ENDBRANCH  34  36
ENDBRANCH  33  34
ENDBRANCH  32  33
ENDBRANCH  31  32
ENDBRANCH  27  31
ENDBRANCH  26  28
BRANCH  26  37
ATOM     37  C   UNL     1       7.326  -2.287  22.598  0.00  0.00    +0.060 C 
BRANCH  37  38
ATOM     38  C   UNL     1       6.432  -3.509  22.642  0.00  0.00    -0.046 A 
ATOM     39  C   UNL     1       6.809  -4.715  22.042  0.00  0.00    +0.004 A 
ATOM     40  C   UNL     1       5.961  -5.825  22.089  0.00  0.00    +0.000 A 
ATOM     41  C   UNL     1       4.724  -5.740  22.729  0.00  0.00    +0.000 A 
ATOM     42  C   UNL     1       4.329  -4.541  23.315  0.00  0.00    +0.000 A 
ATOM     43  C   UNL     1       5.175  -3.433  23.269  0.00  0.00    +0.004 A 
ENDBRANCH  37  38
ENDBRANCH  26  37
ENDBRANCH  23  26
ENDBRANCH  22  23
ENDBRANCH   1  22
BRANCH   1  44
ATOM     44  C   UNL     1       9.075   2.518  22.568  0.00  0.00    +0.069 C 
BRANCH  44  45
ATOM     45  C   UNL     1       9.906   3.599  23.232  0.00  0.00    -0.045 A 
ATOM     46  C   UNL     1       9.308   4.710  23.844  0.00  0.00    +0.004 A 
ATOM     47  C   UNL     1      10.074   5.809  24.244  0.00  0.00    +0.000 A 
ATOM     48  C   UNL     1      11.450   5.814  24.033  0.00  0.00    +0.000 A 
ATOM     49  C   UNL     1      12.061   4.714  23.436  0.00  0.00    +0.000 A 
ATOM     50  C   UNL     1      11.295   3.615  23.039  0.00  0.00    +0.004 A 
ENDBRANCH  44  45
ENDBRANCH   1  44
TORSDOF 15
ENDMDL
MODEL 4
REMARK VINA RESULT:      -6.7      2.157      7.885
REMARK  Name = 
REMARK  16 active torsions:
REMARK  status: ('A' for Active; 'I' for Inactive)
REMARK    1  A    between atoms: C_1  and  C_2
REMARK    2  A    between atoms: C_2  and  O_3
REMARK    3  A    between atoms: O_3  and  C_4
REMARK    4  A    between atoms: C_4  and  C_5
REMARK    5  A    between atoms: C_5  and  O_6
REMARK    6  A    between atoms: O_6  and  C_7
REMARK    7  A    between atoms: N_9  and  C_10
REMARK    8  A    between atoms: C_10  and  C_12
REMARK    9  A    between atoms: C_10  and  C_19
REMARK   10  A    between atoms: C_12  and  C_13
REMARK   11  A    between atoms: C_19  and  O_21
REMARK   12  A    between atoms: C_19  and  C_22
REMARK   13  A    between atoms: C_22  and  C_23
REMARK   14  A    between atoms: C_23  and  C_24
REMARK   15  A    between atoms: C_24  and  C_25
REMARK   16  A    between atoms: C_33  and  C_34
REMARK                            x       y       z     vdW  Elec       q    Type
REMARK                         _______ _______ _______ _____ _____    ______ ____
ROOT
ATOM      1  C   UNL     1       7.714  -1.397  25.815  0.00  0.00    +0.101 C 
ATOM      2  C   UNL     1       7.514  -2.877  26.243  0.00  0.00    +0.185 C 
ATOM      3  O   UNL     1       8.134  -3.487  27.104  0.00  0.00    -0.290 OA
ATOM      4  C   UNL     1       6.356  -3.448  25.483  0.00  0.00    +0.022 C 
ATOM      5  C   UNL     1       5.701  -2.327  25.133  0.00  0.00    +0.076 C 
ATOM      6  N   UNL     1       6.338  -1.117  25.358  0.00  0.00    -0.337 N 
ATOM      7  H   UNL     1       5.825  -0.563  26.062  0.00  0.00    +0.147 HD
ENDROOT
BRANCH   4   8
ATOM      8  C   UNL     1       6.046  -4.889  25.185  0.00  0.00    +0.097 C 
ATOM      9  C   UNL     1       4.534  -5.112  25.064  0.00  0.00    -0.031 A 
ATOM     10  C   UNL     1       4.136  -5.214  23.723  0.00  0.00    -0.020 A 
ATOM     11  C   UNL     1       2.799  -5.267  23.360  0.00  0.00    +0.006 A 
ATOM     12  C   UNL     1       1.838  -5.235  24.369  0.00  0.00    +0.000 A 
ATOM     13  C   UNL     1       2.225  -5.170  25.715  0.00  0.00    +0.000 A 
ATOM     14  C   UNL     1       5.315  -5.287  22.825  0.00  0.00    +0.148 C 
ATOM     15  N   UNL     1       5.693  -4.087  22.187  0.00  0.00    -0.271 N 
ATOM     16  H   UNL     1       5.122  -3.481  21.615  0.00  0.00    +0.153 HD
ATOM     17  C   UNL     1       7.052  -3.956  22.245  0.00  0.00    +0.401 C 
ATOM     18  O   UNL     1       7.706  -3.127  21.636  0.00  0.00    -0.226 OA
ATOM     19  O   UNL     1       7.568  -4.868  23.125  0.00  0.00    -0.444 OA
ATOM     20  C   UNL     1       3.577  -5.119  26.071  0.00  0.00    +0.005 A 
ATOM     21  C   UNL     1       6.474  -5.499  23.792  0.00  0.00    +0.215 C 
ENDBRANCH   4   8
BRANCH   1  22
ATOM     22  C   UNL     1       8.182  -0.442  26.938  0.00  0.00    +0.067 C 
BRANCH  22  23
ATOM     23  C   UNL     1       7.094   0.508  27.479  0.00  0.00    +0.138 C 
BRANCH  23  24
ATOM     24  O   UNL     1       6.035  -0.298  28.023  0.00  0.00    -0.390 OA
ATOM     25  H   UNL     1       5.351  -0.403  27.341  0.00  0.00    +0.210 HD
ENDBRANCH  23  24
BRANCH  23  26
ATOM     26  C   UNL     1       6.539   1.529  26.429  0.00  0.00    +0.109 C 
BRANCH  26  28
ATOM     27  C   UNL     1       4.092   1.803  26.465  0.00  0.00    +0.401 C 
ATOM     28  N   UNL     1       5.325   2.206  26.886  0.00  0.00    -0.275 N 
ATOM     29  H   UNL     1       5.363   3.206  27.040  0.00  0.00    +0.152 HD
ATOM     30  O   UNL     1       3.818   0.715  25.985  0.00  0.00    -0.226 OA
BRANCH  27  31
ATOM     31  O   UNL     1       3.261   2.870  26.501  0.00  0.00    -0.448 OA
BRANCH  31  32
ATOM     32  C   UNL     1       2.886   3.336  25.200  0.00  0.00    +0.262 C 
BRANCH  32  33
ATOM     33  C   UNL     1       3.578   4.631  24.805  0.00  0.00    +0.201 C 
BRANCH  33  34
ATOM     34  O   UNL     1       4.547   4.938  25.814  0.00  0.00    -0.377 OA
BRANCH  34  36
ATOM     35  C   UNL     1       4.936   6.571  24.110  0.00  0.00    +0.034 C 
ATOM     36  C   UNL     1       5.261   6.136  25.528  0.00  0.00    +0.156 C 
ENDBRANCH  34  36
ENDBRANCH  33  34
ENDBRANCH  32  33
ENDBRANCH  31  32
ENDBRANCH  27  31
ENDBRANCH  26  28
BRANCH  26  37
ATOM     37  C   UNL     1       7.639   2.575  26.076  0.00  0.00    +0.060 C 
BRANCH  37  38
ATOM     38  C   UNL     1       7.517   3.258  24.729  0.00  0.00    -0.046 A 
ATOM     39  C   UNL     1       6.605   2.816  23.764  0.00  0.00    +0.004 A 
ATOM     40  C   UNL     1       6.520   3.458  22.525  0.00  0.00    +0.000 A 
ATOM     41  C   UNL     1       7.348   4.542  22.235  0.00  0.00    +0.000 A 
ATOM     42  C   UNL     1       8.271   4.981  23.180  0.00  0.00    +0.000 A 
ATOM     43  C   UNL     1       8.357   4.341  24.417  0.00  0.00    +0.004 A 
ENDBRANCH  37  38
ENDBRANCH  26  37
ENDBRANCH  23  26
ENDBRANCH  22  23
ENDBRANCH   1  22
BRANCH   1  44
ATOM     44  C   UNL     1       8.702  -1.435  24.611  0.00  0.00    +0.069 C 
BRANCH  44  45
ATOM     45  C   UNL     1       9.095  -0.190  23.839  0.00  0.00    -0.045 A 
ATOM     46  C   UNL     1       8.619   0.046  22.540  0.00  0.00    +0.004 A 
ATOM     47  C   UNL     1       9.162   1.065  21.752  0.00  0.00    +0.000 A 
ATOM     48  C   UNL     1      10.193   1.858  22.247  0.00  0.00    +0.000 A 
ATOM     49  C   UNL     1      10.670   1.643  23.538  0.00  0.00    +0.000 A 
ATOM     50  C   UNL     1      10.125   0.627  24.328  0.00  0.00    +0.004 A 
ENDBRANCH  44  45
ENDBRANCH   1  44
TORSDOF 15
ENDMDL
MODEL 5
REMARK VINA RESULT:      -6.7      1.936      3.875
REMARK  Name = 
REMARK  16 active torsions:
REMARK  status: ('A' for Active; 'I' for Inactive)
REMARK    1  A    between atoms: C_1  and  C_2
REMARK    2  A    between atoms: C_2  and  O_3
REMARK    3  A    between atoms: O_3  and  C_4
REMARK    4  A    between atoms: C_4  and  C_5
REMARK    5  A    between atoms: C_5  and  O_6
REMARK    6  A    between atoms: O_6  and  C_7
REMARK    7  A    between atoms: N_9  and  C_10
REMARK    8  A    between atoms: C_10  and  C_12
REMARK    9  A    between atoms: C_10  and  C_19
REMARK   10  A    between atoms: C_12  and  C_13
REMARK   11  A    between atoms: C_19  and  O_21
REMARK   12  A    between atoms: C_19  and  C_22
REMARK   13  A    between atoms: C_22  and  C_23
REMARK   14  A    between atoms: C_23  and  C_24
REMARK   15  A    between atoms: C_24  and  C_25
REMARK   16  A    between atoms: C_33  and  C_34
REMARK                            x       y       z     vdW  Elec       q    Type
REMARK                         _______ _______ _______ _____ _____    ______ ____
ROOT
ATOM      1  C   UNL     1       7.355  -1.202  25.330  0.00  0.00    +0.101 C 
ATOM      2  C   UNL     1       6.624   0.169  25.302  0.00  0.00    +0.185 C 
ATOM      3  O   UNL     1       6.031   0.670  24.358  0.00  0.00    -0.290 OA
ATOM      4  C   UNL     1       6.679   0.772  26.673  0.00  0.00    +0.022 C 
ATOM      5  C   UNL     1       6.900  -0.319  27.426  0.00  0.00    +0.076 C 
ATOM      6  N   UNL     1       7.200  -1.501  26.768  0.00  0.00    -0.337 N 
ATOM      7  H   UNL     1       6.455  -2.199  26.917  0.00  0.00    +0.147 HD
ENDROOT
BRANCH   4   8
ATOM      8  C   UNL     1       6.544   2.217  27.069  0.00  0.00    +0.097 C 
ATOM      9  C   UNL     1       6.838   3.142  25.882  0.00  0.00    -0.031 A 
ATOM     10  C   UNL     1       5.657   3.648  25.323  0.00  0.00    -0.020 A 
ATOM     11  C   UNL     1       5.662   4.386  24.148  0.00  0.00    +0.006 A 
ATOM     12  C   UNL     1       6.885   4.635  23.530  0.00  0.00    +0.000 A 
ATOM     13  C   UNL     1       8.078   4.165  24.100  0.00  0.00    +0.000 A 
ATOM     14  C   UNL     1       4.484   3.313  26.167  0.00  0.00    +0.148 C 
ATOM     15  N   UNL     1       3.711   2.207  25.757  0.00  0.00    -0.271 N 
ATOM     16  H   UNL     1       3.281   2.050  24.857  0.00  0.00    +0.153 HD
ATOM     17  C   UNL     1       3.401   1.445  26.849  0.00  0.00    +0.401 C 
ATOM     18  O   UNL     1       2.601   0.526  26.861  0.00  0.00    -0.226 OA
ATOM     19  O   UNL     1       4.158   1.840  27.919  0.00  0.00    -0.444 OA
ATOM     20  C   UNL     1       8.061   3.424  25.286  0.00  0.00    +0.005 A 
ATOM     21  C   UNL     1       5.120   2.785  27.449  0.00  0.00    +0.215 C 
ENDBRANCH   4   8
BRANCH   1  22
ATOM     22  C   UNL     1       6.747  -2.294  24.419  0.00  0.00    +0.067 C 
BRANCH  22  23
ATOM     23  C   UNL     1       7.776  -3.170  23.677  0.00  0.00    +0.138 C 
BRANCH  23  24
ATOM     24  O   UNL     1       7.553  -3.014  22.266  0.00  0.00    -0.390 OA
ATOM     25  H   UNL     1       7.745  -3.861  21.831  0.00  0.00    +0.210 HD
ENDBRANCH  23  24
BRANCH  23  26
ATOM     26  C   UNL     1       7.759  -4.682  24.084  0.00  0.00    +0.109 C 
BRANCH  26  28
ATOM     27  C   UNL     1       8.146  -4.968  26.499  0.00  0.00    +0.401 C 
ATOM     28  N   UNL     1       7.278  -4.894  25.450  0.00  0.00    -0.275 N 
ATOM     29  H   UNL     1       6.470  -5.488  25.587  0.00  0.00    +0.152 HD
ATOM     30  O   UNL     1       9.294  -4.554  26.511  0.00  0.00    -0.226 OA
BRANCH  27  31
ATOM     31  O   UNL     1       7.585  -5.735  27.462  0.00  0.00    -0.448 OA
BRANCH  31  32
ATOM     32  C   UNL     1       6.154  -5.683  27.461  0.00  0.00    +0.262 C 
BRANCH  32  33
ATOM     33  C   UNL     1       5.590  -4.670  28.444  0.00  0.00    +0.201 C 
BRANCH  33  34
ATOM     34  O   UNL     1       5.155  -3.528  27.699  0.00  0.00    -0.377 OA
BRANCH  34  36
ATOM     35  C   UNL     1       3.648  -2.569  26.108  0.00  0.00    +0.034 C 
ATOM     36  C   UNL     1       3.997  -3.805  26.918  0.00  0.00    +0.156 C 
ENDBRANCH  34  36
ENDBRANCH  33  34
ENDBRANCH  32  33
ENDBRANCH  31  32
ENDBRANCH  27  31
ENDBRANCH  26  28
BRANCH  26  37
ATOM     37  C   UNL     1       6.888  -5.491  23.076  0.00  0.00    +0.060 C 
BRANCH  37  38
ATOM     38  C   UNL     1       5.434  -5.694  23.447  0.00  0.00    -0.046 A 
ATOM     39  C   UNL     1       4.452  -4.759  23.101  0.00  0.00    +0.004 A 
ATOM     40  C   UNL     1       3.119  -4.966  23.466  0.00  0.00    +0.000 A 
ATOM     41  C   UNL     1       2.753  -6.104  24.185  0.00  0.00    +0.000 A 
ATOM     42  C   UNL     1       3.723  -7.033  24.550  0.00  0.00    +0.000 A 
ATOM     43  C   UNL     1       5.054  -6.828  24.186  0.00  0.00    +0.004 A 
ENDBRANCH  37  38
ENDBRANCH  26  37
ENDBRANCH  23  26
ENDBRANCH  22  23
ENDBRANCH   1  22
BRANCH   1  44
ATOM     44  C   UNL     1       8.843  -0.894  24.983  0.00  0.00    +0.069 C 
BRANCH  44  45
ATOM     45  C   UNL     1       9.246   0.222  24.040  0.00  0.00    -0.045 A 
ATOM     46  C   UNL     1       8.785   0.265  22.716  0.00  0.00    +0.004 A 
ATOM     47  C   UNL     1       9.338   1.155  21.791  0.00  0.00    +0.000 A 
ATOM     48  C   UNL     1      10.365   2.013  22.175  0.00  0.00    +0.000 A 
ATOM     49  C   UNL     1      10.828   1.990  23.489  0.00  0.00    +0.000 A 
ATOM     50  C   UNL     1      10.273   1.102  24.414  0.00  0.00    +0.004 A 
ENDBRANCH  44  45
ENDBRANCH   1  44
TORSDOF 15
ENDMDL
MODEL 6
REMARK VINA RESULT:      -6.6      2.172      3.972
REMARK  Name = 
REMARK  16 active torsions:
REMARK  status: ('A' for Active; 'I' for Inactive)
REMARK    1  A    between atoms: C_1  and  C_2
REMARK    2  A    between atoms: C_2  and  O_3
REMARK    3  A    between atoms: O_3  and  C_4
REMARK    4  A    between atoms: C_4  and  C_5
REMARK    5  A    between atoms: C_5  and  O_6
REMARK    6  A    between atoms: O_6  and  C_7
REMARK    7  A    between atoms: N_9  and  C_10
REMARK    8  A    between atoms: C_10  and  C_12
REMARK    9  A    between atoms: C_10  and  C_19
REMARK   10  A    between atoms: C_12  and  C_13
REMARK   11  A    between atoms: C_19  and  O_21
REMARK   12  A    between atoms: C_19  and  C_22
REMARK   13  A    between atoms: C_22  and  C_23
REMARK   14  A    between atoms: C_23  and  C_24
REMARK   15  A    between atoms: C_24  and  C_25
REMARK   16  A    between atoms: C_33  and  C_34
REMARK                            x       y       z     vdW  Elec       q    Type
REMARK                         _______ _______ _______ _____ _____    ______ ____
ROOT
ATOM      1  C   UNL     1       6.437   0.976  26.180  0.00  0.00    +0.101 C 
ATOM      2  C   UNL     1       6.210   2.476  25.841  0.00  0.00    +0.185 C 
ATOM      3  O   UNL     1       5.736   2.936  24.811  0.00  0.00    -0.290 OA
ATOM      4  C   UNL     1       6.588   3.303  27.031  0.00  0.00    +0.022 C 
ATOM      5  C   UNL     1       6.497   2.392  28.016  0.00  0.00    +0.076 C 
ATOM      6  N   UNL     1       6.323   1.067  27.649  0.00  0.00    -0.337 N 
ATOM      7  H   UNL     1       5.403   0.722  27.965  0.00  0.00    +0.147 HD
ENDROOT
BRANCH   4   8
ATOM      8  C   UNL     1       6.983   4.754  27.081  0.00  0.00    +0.097 C 
ATOM      9  C   UNL     1       7.577   5.206  25.741  0.00  0.00    -0.031 A 
ATOM     10  C   UNL     1       6.650   5.946  24.994  0.00  0.00    -0.020 A 
ATOM     11  C   UNL     1       6.907   6.333  23.687  0.00  0.00    +0.006 A 
ATOM     12  C   UNL     1       8.133   5.985  23.125  0.00  0.00    +0.000 A 
ATOM     13  C   UNL     1       9.083   5.277  23.875  0.00  0.00    +0.000 A 
ATOM     14  C   UNL     1       5.442   6.253  25.800  0.00  0.00    +0.148 C 
ATOM     15  N   UNL     1       4.321   5.423  25.592  0.00  0.00    -0.271 N 
ATOM     16  H   UNL     1       3.855   5.217  24.720  0.00  0.00    +0.153 HD
ATOM     17  C   UNL     1       3.770   5.100  26.800  0.00  0.00    +0.401 C 
ATOM     18  O   UNL     1       2.694   4.549  26.958  0.00  0.00    -0.226 OA
ATOM     19  O   UNL     1       4.628   5.448  27.808  0.00  0.00    -0.444 OA
ATOM     20  C   UNL     1       8.814   4.893  25.193  0.00  0.00    +0.005 A 
ATOM     21  C   UNL     1       5.860   5.856  27.213  0.00  0.00    +0.215 C 
ENDBRANCH   4   8
BRANCH   1  22
ATOM     22  C   UNL     1       5.418  -0.004  25.555  0.00  0.00    +0.067 C 
BRANCH  22  23
ATOM     23  C   UNL     1       5.328  -1.378  26.250  0.00  0.00    +0.138 C 
BRANCH  23  24
ATOM     24  O   UNL     1       5.547  -1.177  27.656  0.00  0.00    -0.390 OA
ATOM     25  H   UNL     1       4.866  -1.669  28.144  0.00  0.00    +0.210 HD
ENDBRANCH  23  24
BRANCH  23  26
ATOM     26  C   UNL     1       6.306  -2.461  25.680  0.00  0.00    +0.109 C 
BRANCH  26  28
ATOM     27  C   UNL     1       6.835  -4.682  26.604  0.00  0.00    +0.401 C 
ATOM     28  N   UNL     1       5.926  -3.822  26.062  0.00  0.00    -0.275 N 
ATOM     29  H   UNL     1       5.241  -4.306  25.496  0.00  0.00    +0.152 HD
ATOM     30  O   UNL     1       7.892  -4.371  27.129  0.00  0.00    -0.226 OA
BRANCH  27  31
ATOM     31  O   UNL     1       6.457  -5.946  26.303  0.00  0.00    -0.448 OA
BRANCH  31  32
ATOM     32  C   UNL     1       5.076  -6.049  25.939  0.00  0.00    +0.262 C 
BRANCH  32  33
ATOM     33  C   UNL     1       4.866  -6.602  24.538  0.00  0.00    +0.201 C 
BRANCH  33  34
ATOM     34  O   UNL     1       5.017  -5.522  23.611  0.00  0.00    -0.377 OA
BRANCH  34  36
ATOM     35  C   UNL     1       7.231  -5.640  22.711  0.00  0.00    +0.034 C 
ATOM     36  C   UNL     1       5.758  -5.904  22.456  0.00  0.00    +0.156 C 
ENDBRANCH  34  36
ENDBRANCH  33  34
ENDBRANCH  32  33
ENDBRANCH  31  32
ENDBRANCH  27  31
ENDBRANCH  26  28
BRANCH  26  37
ATOM     37  C   UNL     1       6.383  -2.340  24.128  0.00  0.00    +0.060 C 
BRANCH  37  38
ATOM     38  C   UNL     1       7.759  -2.123  23.534  0.00  0.00    -0.046 A 
ATOM     39  C   UNL     1       7.928  -1.719  22.205  0.00  0.00    +0.004 A 
ATOM     40  C   UNL     1       9.210  -1.536  21.680  0.00  0.00    +0.000 A 
ATOM     41  C   UNL     1      10.336  -1.760  22.472  0.00  0.00    +0.000 A 
ATOM     42  C   UNL     1      10.182  -2.179  23.790  0.00  0.00    +0.000 A 
ATOM     43  C   UNL     1       8.903  -2.362  24.317  0.00  0.00    +0.004 A 
ENDBRANCH  37  38
ENDBRANCH  26  37
ENDBRANCH  23  26
ENDBRANCH  22  23
ENDBRANCH   1  22
BRANCH   1  44
ATOM     44  C   UNL     1       7.904   0.666  25.755  0.00  0.00    +0.069 C 
BRANCH  44  45
ATOM     45  C   UNL     1       8.562   1.319  24.555  0.00  0.00    -0.045 A 
ATOM     46  C   UNL     1       7.849   1.562  23.372  0.00  0.00    +0.004 A 
ATOM     47  C   UNL     1       8.511   1.946  22.201  0.00  0.00    +0.000 A 
ATOM     48  C   UNL     1       9.895   2.086  22.195  0.00  0.00    +0.000 A 
ATOM     49  C   UNL     1      10.617   1.858  23.365  0.00  0.00    +0.000 A 
ATOM     50  C   UNL     1       9.956   1.478  24.535  0.00  0.00    +0.004 A 
ENDBRANCH  44  45
ENDBRANCH   1  44
TORSDOF 15
ENDMDL
MODEL 7
REMARK VINA RESULT:      -6.6      2.524      4.965
REMARK  Name = 
REMARK  16 active torsions:
REMARK  status: ('A' for Active; 'I' for Inactive)
REMARK    1  A    between atoms: C_1  and  C_2
REMARK    2  A    between atoms: C_2  and  O_3
REMARK    3  A    between atoms: O_3  and  C_4
REMARK    4  A    between atoms: C_4  and  C_5
REMARK    5  A    between atoms: C_5  and  O_6
REMARK    6  A    between atoms: O_6  and  C_7
REMARK    7  A    between atoms: N_9  and  C_10
REMARK    8  A    between atoms: C_10  and  C_12
REMARK    9  A    between atoms: C_10  and  C_19
REMARK   10  A    between atoms: C_12  and  C_13
REMARK   11  A    between atoms: C_19  and  O_21
REMARK   12  A    between atoms: C_19  and  C_22
REMARK   13  A    between atoms: C_22  and  C_23
REMARK   14  A    between atoms: C_23  and  C_24
REMARK   15  A    between atoms: C_24  and  C_25
REMARK   16  A    between atoms: C_33  and  C_34
REMARK                            x       y       z     vdW  Elec       q    Type
REMARK                         _______ _______ _______ _____ _____    ______ ____
ROOT
ATOM      1  C   UNL     1       6.860  -0.585  25.811  0.00  0.00    +0.101 C 
ATOM      2  C   UNL     1       7.842   0.213  24.909  0.00  0.00    +0.185 C 
ATOM      3  O   UNL     1       8.959   0.614  25.208  0.00  0.00    -0.290 OA
ATOM      4  C   UNL     1       7.239   0.353  23.545  0.00  0.00    +0.022 C 
ATOM      5  C   UNL     1       6.358  -0.662  23.548  0.00  0.00    +0.076 C 
ATOM      6  N   UNL     1       6.137  -1.315  24.750  0.00  0.00    -0.337 N 
ATOM      7  H   UNL     1       6.459  -2.294  24.696  0.00  0.00    +0.147 HD
ENDROOT
BRANCH   4   8
ATOM      8  C   UNL     1       7.540   1.378  22.485  0.00  0.00    +0.097 C 
ATOM      9  C   UNL     1       8.070   2.674  23.110  0.00  0.00    -0.031 A 
ATOM     10  C   UNL     1       9.461   2.778  22.974  0.00  0.00    -0.020 A 
ATOM     11  C   UNL     1      10.182   3.789  23.590  0.00  0.00    +0.006 A 
ATOM     12  C   UNL     1       9.487   4.728  24.348  0.00  0.00    +0.000 A 
ATOM     13  C   UNL     1       8.091   4.656  24.463  0.00  0.00    +0.000 A 
ATOM     14  C   UNL     1       9.987   1.713  22.085  0.00  0.00    +0.148 C 
ATOM     15  N   UNL     1      10.552   0.587  22.720  0.00  0.00    -0.271 N 
ATOM     16  H   UNL     1      11.291   0.569  23.409  0.00  0.00    +0.153 HD
ATOM     17  C   UNL     1      10.121  -0.548  22.092  0.00  0.00    +0.401 C 
ATOM     18  O   UNL     1      10.563  -1.668  22.282  0.00  0.00    -0.226 OA
ATOM     19  O   UNL     1       9.087  -0.245  21.248  0.00  0.00    -0.444 OA
ATOM     20  C   UNL     1       7.372   3.633  23.835  0.00  0.00    +0.005 A 
ATOM     21  C   UNL     1       8.724   1.117  21.473  0.00  0.00    +0.215 C 
ENDBRANCH   4   8
BRANCH   1  22
ATOM     22  C   UNL     1       7.526  -1.526  26.842  0.00  0.00    +0.067 C 
BRANCH  22  23
ATOM     23  C   UNL     1       8.313  -2.704  26.234  0.00  0.00    +0.138 C 
BRANCH  23  24
ATOM     24  O   UNL     1       9.070  -2.202  25.120  0.00  0.00    -0.390 OA
ATOM     25  H   UNL     1       8.447  -1.913  24.434  0.00  0.00    +0.210 HD
ENDBRANCH  23  24
BRANCH  23  26
ATOM     26  C   UNL     1       7.431  -3.926  25.807  0.00  0.00    +0.109 C 
BRANCH  26  28
ATOM     27  C   UNL     1       7.895  -4.556  23.472  0.00  0.00    +0.401 C 
ATOM     28  N   UNL     1       8.083  -4.771  24.806  0.00  0.00    -0.275 N 
ATOM     29  H   UNL     1       8.209  -5.753  25.015  0.00  0.00    +0.152 HD
ATOM     30  O   UNL     1       7.492  -3.523  22.962  0.00  0.00    -0.226 OA
BRANCH  27  31
ATOM     31  O   UNL     1       8.057  -5.733  22.825  0.00  0.00    -0.448 OA
BRANCH  31  32
ATOM     32  C   UNL     1       6.975  -6.041  21.939  0.00  0.00    +0.262 C 
BRANCH  32  33
ATOM     33  C   UNL     1       5.689  -6.402  22.667  0.00  0.00    +0.201 C 
BRANCH  33  34
ATOM     34  O   UNL     1       4.683  -5.462  22.275  0.00  0.00    -0.377 OA
BRANCH  34  36
ATOM     35  C   UNL     1       4.061  -4.002  24.064  0.00  0.00    +0.034 C 
ATOM     36  C   UNL     1       3.708  -5.261  23.293  0.00  0.00    +0.156 C 
ENDBRANCH  34  36
ENDBRANCH  33  34
ENDBRANCH  32  33
ENDBRANCH  31  32
ENDBRANCH  27  31
ENDBRANCH  26  28
BRANCH  26  37
ATOM     37  C   UNL     1       7.056  -4.771  27.062  0.00  0.00    +0.060 C 
BRANCH  37  38
ATOM     38  C   UNL     1       5.603  -5.178  27.194  0.00  0.00    -0.046 A 
ATOM     39  C   UNL     1       5.131  -6.388  26.676  0.00  0.00    +0.004 A 
ATOM     40  C   UNL     1       3.782  -6.734  26.804  0.00  0.00    +0.000 A 
ATOM     41  C   UNL     1       2.890  -5.872  27.443  0.00  0.00    +0.000 A 
ATOM     42  C   UNL     1       3.344  -4.657  27.946  0.00  0.00    +0.000 A 
ATOM     43  C   UNL     1       4.690  -4.311  27.821  0.00  0.00    +0.004 A 
ENDBRANCH  37  38
ENDBRANCH  26  37
ENDBRANCH  23  26
ENDBRANCH  22  23
ENDBRANCH   1  22
BRANCH   1  44
ATOM     44  C   UNL     1       5.940   0.480  26.479  0.00  0.00    +0.069 C 
BRANCH  44  45
ATOM     45  C   UNL     1       4.858   0.113  27.477  0.00  0.00    -0.045 A 
ATOM     46  C   UNL     1       5.085   0.175  28.859  0.00  0.00    +0.004 A 
ATOM     47  C   UNL     1       4.174  -0.381  29.762  0.00  0.00    +0.000 A 
ATOM     48  C   UNL     1       3.025  -1.013  29.296  0.00  0.00    +0.000 A 
ATOM     49  C   UNL     1       2.779  -1.074  27.926  0.00  0.00    +0.000 A 
ATOM     50  C   UNL     1       3.688  -0.515  27.024  0.00  0.00    +0.004 A 
ENDBRANCH  44  45
ENDBRANCH   1  44
TORSDOF 15
ENDMDL
MODEL 8
REMARK VINA RESULT:      -6.6      2.209      3.663
REMARK  Name = 
REMARK  16 active torsions:
REMARK  status: ('A' for Active; 'I' for Inactive)
REMARK    1  A    between atoms: C_1  and  C_2
REMARK    2  A    between atoms: C_2  and  O_3
REMARK    3  A    between atoms: O_3  and  C_4
REMARK    4  A    between atoms: C_4  and  C_5
REMARK    5  A    between atoms: C_5  and  O_6
REMARK    6  A    between atoms: O_6  and  C_7
REMARK    7  A    between atoms: N_9  and  C_10
REMARK    8  A    between atoms: C_10  and  C_12
REMARK    9  A    between atoms: C_10  and  C_19
REMARK   10  A    between atoms: C_12  and  C_13
REMARK   11  A    between atoms: C_19  and  O_21
REMARK   12  A    between atoms: C_19  and  C_22
REMARK   13  A    between atoms: C_22  and  C_23
REMARK   14  A    between atoms: C_23  and  C_24
REMARK   15  A    between atoms: C_24  and  C_25
REMARK   16  A    between atoms: C_33  and  C_34
REMARK                            x       y       z     vdW  Elec       q    Type
REMARK                         _______ _______ _______ _____ _____    ______ ____
ROOT
ATOM      1  C   UNL     1       6.485   0.960  25.831  0.00  0.00    +0.101 C 
ATOM      2  C   UNL     1       5.730   2.311  25.698  0.00  0.00    +0.185 C 
ATOM      3  O   UNL     1       4.527   2.500  25.823  0.00  0.00    -0.290 OA
ATOM      4  C   UNL     1       6.730   3.403  25.471  0.00  0.00    +0.022 C 
ATOM      5  C   UNL     1       7.847   2.834  25.956  0.00  0.00    +0.076 C 
ATOM      6  N   UNL     1       7.793   1.486  26.273  0.00  0.00    -0.337 N 
ATOM      7  H   UNL     1       7.917   1.347  27.288  0.00  0.00    +0.147 HD
ENDROOT
BRANCH   4   8
ATOM      8  C   UNL     1       6.520   4.755  24.845  0.00  0.00    +0.097 C 
ATOM      9  C   UNL     1       7.681   5.700  25.176  0.00  0.00    -0.031 A 
ATOM     10  C   UNL     1       8.560   5.830  24.093  0.00  0.00    -0.020 A 
ATOM     11  C   UNL     1       9.762   6.514  24.206  0.00  0.00    +0.006 A 
ATOM     12  C   UNL     1      10.079   7.095  25.431  0.00  0.00    +0.000 A 
ATOM     13  C   UNL     1       9.190   7.002  26.512  0.00  0.00    +0.000 A 
ATOM     14  C   UNL     1       8.004   5.187  22.877  0.00  0.00    +0.148 C 
ATOM     15  N   UNL     1       8.485   3.895  22.575  0.00  0.00    -0.271 N 
ATOM     16  H   UNL     1       9.444   3.602  22.459  0.00  0.00    +0.153 HD
ATOM     17  C   UNL     1       7.436   3.099  22.210  0.00  0.00    +0.401 C 
ATOM     18  O   UNL     1       7.534   1.987  21.720  0.00  0.00    -0.226 OA
ATOM     19  O   UNL     1       6.255   3.718  22.518  0.00  0.00    -0.444 OA
ATOM     20  C   UNL     1       7.979   6.313  26.387  0.00  0.00    +0.005 A 
ATOM     21  C   UNL     1       6.561   4.892  23.272  0.00  0.00    +0.215 C 
ENDBRANCH   4   8
BRANCH   1  22
ATOM     22  C   UNL     1       5.871  -0.046  26.832  0.00  0.00    +0.067 C 
BRANCH  22  23
ATOM     23  C   UNL     1       4.735  -0.919  26.262  0.00  0.00    +0.138 C 
BRANCH  23  24
ATOM     24  O   UNL     1       3.484  -0.343  26.676  0.00  0.00    -0.390 OA
ATOM     25  H   UNL     1       3.011  -0.041  25.885  0.00  0.00    +0.210 HD
ENDBRANCH  23  24
BRANCH  23  26
ATOM     26  C   UNL     1       4.814  -2.432  26.659  0.00  0.00    +0.109 C 
BRANCH  26  28
ATOM     27  C   UNL     1       3.504  -3.572  28.405  0.00  0.00    +0.401 C 
ATOM     28  N   UNL     1       3.552  -2.942  27.196  0.00  0.00    -0.275 N 
ATOM     29  H   UNL     1       2.871  -3.317  26.548  0.00  0.00    +0.152 HD
ATOM     30  O   UNL     1       4.343  -3.496  29.288  0.00  0.00    -0.226 OA
BRANCH  27  31
ATOM     31  O   UNL     1       2.462  -4.436  28.393  0.00  0.00    -0.448 OA
BRANCH  31  32
ATOM     32  C   UNL     1       2.659  -5.565  29.250  0.00  0.00    +0.262 C 
BRANCH  32  33
ATOM     33  C   UNL     1       3.160  -6.797  28.512  0.00  0.00    +0.201 C 
BRANCH  33  34
ATOM     34  O   UNL     1       4.538  -6.985  28.855  0.00  0.00    -0.377 OA
BRANCH  34  36
ATOM     35  C   UNL     1       4.696  -6.848  26.473  0.00  0.00    +0.034 C 
ATOM     36  C   UNL     1       5.412  -6.621  27.792  0.00  0.00    +0.156 C 
ENDBRANCH  34  36
ENDBRANCH  33  34
ENDBRANCH  32  33
ENDBRANCH  31  32
ENDBRANCH  27  31
ENDBRANCH  26  28
BRANCH  26  37
ATOM     37  C   UNL     1       5.255  -3.279  25.427  0.00  0.00    +0.060 C 
BRANCH  37  38
ATOM     38  C   UNL     1       6.643  -3.884  25.484  0.00  0.00    -0.046 A 
ATOM     39  C   UNL     1       7.506  -3.637  26.557  0.00  0.00    +0.004 A 
ATOM     40  C   UNL     1       8.785  -4.200  26.579  0.00  0.00    +0.000 A 
ATOM     41  C   UNL     1       9.219  -5.008  25.528  0.00  0.00    +0.000 A 
ATOM     42  C   UNL     1       8.376  -5.247  24.446  0.00  0.00    +0.000 A 
ATOM     43  C   UNL     1       7.098  -4.686  24.423  0.00  0.00    +0.004 A 
ENDBRANCH  37  38
ENDBRANCH  26  37
ENDBRANCH  23  26
ENDBRANCH  22  23
ENDBRANCH   1  22
BRANCH   1  44
ATOM     44  C   UNL     1       6.579   0.384  24.386  0.00  0.00    +0.069 C 
BRANCH  44  45
ATOM     45  C   UNL     1       7.609  -0.654  23.986  0.00  0.00    -0.045 A 
ATOM     46  C   UNL     1       8.830  -0.774  24.667  0.00  0.00    +0.004 A 
ATOM     47  C   UNL     1       9.863  -1.565  24.155  0.00  0.00    +0.000 A 
ATOM     48  C   UNL     1       9.692  -2.244  22.952  0.00  0.00    +0.000 A 
ATOM     49  C   UNL     1       8.482  -2.144  22.269  0.00  0.00    +0.000 A 
ATOM     50  C   UNL     1       7.449  -1.356  22.782  0.00  0.00    +0.004 A 
ENDBRANCH  44  45
ENDBRANCH   1  44
TORSDOF 15
ENDMDL
MODEL 9
REMARK VINA RESULT:      -6.5      1.994      7.963
REMARK  Name = 
REMARK  16 active torsions:
REMARK  status: ('A' for Active; 'I' for Inactive)
REMARK    1  A    between atoms: C_1  and  C_2
REMARK    2  A    between atoms: C_2  and  O_3
REMARK    3  A    between atoms: O_3  and  C_4
REMARK    4  A    between atoms: C_4  and  C_5
REMARK    5  A    between atoms: C_5  and  O_6
REMARK    6  A    between atoms: O_6  and  C_7
REMARK    7  A    between atoms: N_9  and  C_10
REMARK    8  A    between atoms: C_10  and  C_12
REMARK    9  A    between atoms: C_10  and  C_19
REMARK   10  A    between atoms: C_12  and  C_13
REMARK   11  A    between atoms: C_19  and  O_21
REMARK   12  A    between atoms: C_19  and  C_22
REMARK   13  A    between atoms: C_22  and  C_23
REMARK   14  A    between atoms: C_23  and  C_24
REMARK   15  A    between atoms: C_24  and  C_25
REMARK   16  A    between atoms: C_33  and  C_34
REMARK                            x       y       z     vdW  Elec       q    Type
REMARK                         _______ _______ _______ _____ _____    ______ ____
ROOT
ATOM      1  C   UNL     1       6.533  -1.674  26.305  0.00  0.00    +0.101 C 
ATOM      2  C   UNL     1       5.877  -3.051  26.600  0.00  0.00    +0.185 C 
ATOM      3  O   UNL     1       6.426  -4.145  26.600  0.00  0.00    -0.290 OA
ATOM      4  C   UNL     1       4.445  -2.833  26.981  0.00  0.00    +0.022 C 
ATOM      5  C   UNL     1       4.475  -1.546  27.369  0.00  0.00    +0.076 C 
ATOM      6  N   UNL     1       5.634  -0.829  27.117  0.00  0.00    -0.337 N 
ATOM      7  H   UNL     1       6.090  -0.555  28.001  0.00  0.00    +0.147 HD
ENDROOT
BRANCH   4   8
ATOM      8  C   UNL     1       3.296  -3.802  26.913  0.00  0.00    +0.097 C 
ATOM      9  C   UNL     1       3.490  -4.804  25.768  0.00  0.00    -0.031 A 
ATOM     10  C   UNL     1       3.928  -6.047  26.244  0.00  0.00    -0.020 A 
ATOM     11  C   UNL     1       4.314  -7.064  25.383  0.00  0.00    +0.006 A 
ATOM     12  C   UNL     1       4.241  -6.831  24.011  0.00  0.00    +0.000 A 
ATOM     13  C   UNL     1       3.769  -5.603  23.523  0.00  0.00    +0.000 A 
ATOM     14  C   UNL     1       3.876  -6.097  27.726  0.00  0.00    +0.148 C 
ATOM     15  N   UNL     1       5.093  -5.876  28.404  0.00  0.00    -0.271 N 
ATOM     16  H   UNL     1       5.969  -6.363  28.281  0.00  0.00    +0.153 HD
ATOM     17  C   UNL     1       4.872  -5.042  29.464  0.00  0.00    +0.401 C 
ATOM     18  O   UNL     1       5.676  -4.800  30.348  0.00  0.00    -0.226 OA
ATOM     19  O   UNL     1       3.628  -4.481  29.361  0.00  0.00    -0.444 OA
ATOM     20  C   UNL     1       3.380  -4.586  24.401  0.00  0.00    +0.005 A 
ATOM     21  C   UNL     1       3.092  -4.840  28.087  0.00  0.00    +0.215 C 
ENDBRANCH   4   8
BRANCH   1  22
ATOM     22  C   UNL     1       8.017  -1.546  26.720  0.00  0.00    +0.067 C 
BRANCH  22  23
ATOM     23  C   UNL     1       8.496  -0.104  26.987  0.00  0.00    +0.138 C 
BRANCH  23  24
ATOM     24  O   UNL     1       7.984   0.301  28.268  0.00  0.00    -0.390 OA
ATOM     25  H   UNL     1       8.295   1.203  28.448  0.00  0.00    +0.210 HD
ENDBRANCH  23  24
BRANCH  23  26
ATOM     26  C   UNL     1       8.106   0.928  25.876  0.00  0.00    +0.109 C 
BRANCH  26  28
ATOM     27  C   UNL     1       6.338   2.626  26.118  0.00  0.00    +0.401 C 
ATOM     28  N   UNL     1       7.590   2.183  26.426  0.00  0.00    -0.275 N 
ATOM     29  H   UNL     1       8.238   2.948  26.563  0.00  0.00    +0.152 HD
ATOM     30  O   UNL     1       5.424   1.946  25.678  0.00  0.00    -0.226 OA
BRANCH  27  31
ATOM     31  O   UNL     1       6.330   3.976  26.210  0.00  0.00    -0.448 OA
BRANCH  31  32
ATOM     32  C   UNL     1       7.420   4.594  25.517  0.00  0.00    +0.262 C 
BRANCH  32  33
ATOM     33  C   UNL     1       7.199   4.687  24.016  0.00  0.00    +0.201 C 
BRANCH  33  34
ATOM     34  O   UNL     1       8.483   4.773  23.387  0.00  0.00    -0.377 OA
BRANCH  34  36
ATOM     35  C   UNL     1      10.495   6.006  23.775  0.00  0.00    +0.034 C 
ATOM     36  C   UNL     1       9.018   6.092  23.435  0.00  0.00    +0.156 C 
ENDBRANCH  34  36
ENDBRANCH  33  34
ENDBRANCH  32  33
ENDBRANCH  31  32
ENDBRANCH  27  31
ENDBRANCH  26  28
BRANCH  26  37
ATOM     37  C   UNL     1       9.334   1.208  24.959  0.00  0.00    +0.060 C 
BRANCH  37  38
ATOM     38  C   UNL     1       9.469   0.339  23.725  0.00  0.00    -0.046 A 
ATOM     39  C   UNL     1      10.179  -0.866  23.753  0.00  0.00    +0.004 A 
ATOM     40  C   UNL     1      10.297  -1.644  22.597  0.00  0.00    +0.000 A 
ATOM     41  C   UNL     1       9.714  -1.223  21.401  0.00  0.00    +0.000 A 
ATOM     42  C   UNL     1       9.020  -0.017  21.357  0.00  0.00    +0.000 A 
ATOM     43  C   UNL     1       8.901   0.759  22.510  0.00  0.00    +0.004 A 
ENDBRANCH  37  38
ENDBRANCH  26  37
ENDBRANCH  23  26
ENDBRANCH  22  23
ENDBRANCH   1  22
BRANCH   1  44
ATOM     44  C   UNL     1       6.312  -1.418  24.784  0.00  0.00    +0.069 C 
BRANCH  44  45
ATOM     45  C   UNL     1       6.666  -2.444  23.725  0.00  0.00    -0.045 A 
ATOM     46  C   UNL     1       5.941  -2.539  22.527  0.00  0.00    +0.004 A 
ATOM     47  C   UNL     1       6.118  -3.625  21.666  0.00  0.00    +0.000 A 
ATOM     48  C   UNL     1       7.018  -4.636  21.992  0.00  0.00    +0.000 A 
ATOM     49  C   UNL     1       7.753  -4.551  23.172  0.00  0.00    +0.000 A 
ATOM     50  C   UNL     1       7.578  -3.464  24.031  0.00  0.00    +0.004 A 
ENDBRANCH  44  45
ENDBRANCH   1  44
TORSDOF 15
ENDMDL
