MODEL 1
REMARK VINA RESULT:      -6.8      0.000      0.000
REMARK  Name = 
REMARK  11 active torsions:
REMARK  status: ('A' for Active; 'I' for Inactive)
REMARK    1  A    between atoms: O_1  and  C_2
REMARK    2  A    between atoms: C_2  and  C_3
REMARK    3  A    between atoms: C_2  and  C_19
REMARK    4  A    between atoms: C_3  and  O_4
REMARK    5  A    between atoms: O_4  and  C_5
REMARK    6  A    between atoms: C_14  and  C_16
REMARK    7  A    between atoms: C_16  and  O_17
REMARK    8  A    between atoms: C_19  and  O_20
REMARK    9  A    between atoms: O_20  and  C_21
REMARK   10  A    between atoms: C_30  and  C_32
REMARK   11  A    between atoms: C_32  and  O_33
REMARK                            x       y       z     vdW  Elec       q    Type
REMARK                         _______ _______ _______ _____ _____    ______ ____
ROOT
ATOM      1  C   UNL     1       7.010  -0.375  24.077  0.00  0.00    +0.189 C 
ENDROOT
BRANCH   1   2
ATOM      2  O   UNL     1       5.896  -0.543  24.974  0.00  0.00    -0.385 OA
ATOM      3  H   UNL     1       6.146  -0.190  25.843  0.00  0.00    +0.210 HD
ENDBRANCH   1   2
BRANCH   1   4
ATOM      4  C   UNL     1       6.853  -1.359  22.910  0.00  0.00    +0.263 C 
BRANCH   4   5
ATOM      5  O   UNL     1       5.831  -2.300  23.246  0.00  0.00    -0.488 OA
BRANCH   5   6
ATOM      6  C   UNL     1       6.036  -3.615  22.938  0.00  0.00    +0.135 A 
ATOM      7  C   UNL     1       5.199  -4.561  23.555  0.00  0.00    +0.105 A 
ATOM      8  C   UNL     1       4.051  -4.176  24.416  0.00  0.00    +0.197 A 
ATOM      9  C   UNL     1       3.247  -5.275  24.971  0.00  0.00    +0.105 A 
ATOM     10  C   UNL     1       3.573  -6.540  24.687  0.00  0.00    +0.215 A 
ATOM     11  O   UNL     1       4.642  -6.917  23.895  0.00  0.00    -0.448 OA
ATOM     12  O   UNL     1       3.712  -3.026  24.658  0.00  0.00    -0.287 OA
ATOM     13  C   UNL     1       5.409  -5.927  23.330  0.00  0.00    +0.143 A 
ATOM     14  C   UNL     1       6.434  -6.360  22.488  0.00  0.00    +0.047 A 
ATOM     15  C   UNL     1       7.251  -5.426  21.859  0.00  0.00    +0.007 A 
ATOM     16  C   UNL     1       7.056  -4.062  22.086  0.00  0.00    +0.046 A 
BRANCH  10  17
ATOM     17  C   UNL     1       2.714  -7.615  25.250  0.00  0.00    +0.373 C 
ATOM     18  O   UNL     1       2.693  -8.768  24.860  0.00  0.00    -0.242 OA
BRANCH  17  19
ATOM     19  O   UNL     1       1.952  -7.163  26.272  0.00  0.00    -0.475 OA
ATOM     20  H   UNL     1       1.025  -7.464  26.207  0.00  0.00    +0.296 HD
ENDBRANCH  17  19
ENDBRANCH  10  17
ENDBRANCH   5   6
ENDBRANCH   4   5
ENDBRANCH   1   4
BRANCH   1  21
ATOM     21  C   UNL     1       8.324  -0.616  24.836  0.00  0.00    +0.263 C 
BRANCH  21  22
ATOM     22  O   UNL     1       8.069  -1.542  25.891  0.00  0.00    -0.488 OA
BRANCH  22  23
ATOM     23  C   UNL     1       8.292  -2.871  25.695  0.00  0.00    +0.135 A 
ATOM     24  C   UNL     1       7.447  -3.774  26.366  0.00  0.00    +0.105 A 
ATOM     25  C   UNL     1       6.236  -3.338  27.107  0.00  0.00    +0.197 A 
ATOM     26  C   UNL     1       5.442  -4.396  27.752  0.00  0.00    +0.105 A 
ATOM     27  C   UNL     1       5.828  -5.671  27.636  0.00  0.00    +0.215 A 
ATOM     28  O   UNL     1       6.948  -6.094  26.945  0.00  0.00    -0.448 OA
ATOM     29  O   UNL     1       5.836  -2.183  27.170  0.00  0.00    -0.287 OA
ATOM     30  C   UNL     1       7.708  -5.147  26.303  0.00  0.00    +0.143 A 
ATOM     31  C   UNL     1       8.783  -5.630  25.558  0.00  0.00    +0.047 A 
ATOM     32  C   UNL     1       9.595  -4.742  24.860  0.00  0.00    +0.007 A 
ATOM     33  C   UNL     1       9.355  -3.368  24.932  0.00  0.00    +0.046 A 
BRANCH  27  34
ATOM     34  C   UNL     1       4.980  -6.710  28.281  0.00  0.00    +0.373 C 
ATOM     35  O   UNL     1       3.785  -6.600  28.490  0.00  0.00    -0.242 OA
BRANCH  34  36
ATOM     36  O   UNL     1       5.693  -7.810  28.610  0.00  0.00    -0.475 OA
ATOM     37  H   UNL     1       5.194  -8.425  29.184  0.00  0.00    +0.296 HD
ENDBRANCH  34  36
ENDBRANCH  27  34
ENDBRANCH  22  23
ENDBRANCH  21  22
ENDBRANCH   1  21
TORSDOF 11
ENDMDL
MODEL 2
REMARK VINA RESULT:      -6.6      0.455      3.686
REMARK  Name = 
REMARK  11 active torsions:
REMARK  status: ('A' for Active; 'I' for Inactive)
REMARK    1  A    between atoms: O_1  and  C_2
REMARK    2  A    between atoms: C_2  and  C_3
REMARK    3  A    between atoms: C_2  and  C_19
REMARK    4  A    between atoms: C_3  and  O_4
REMARK    5  A    between atoms: O_4  and  C_5
REMARK    6  A    between atoms: C_14  and  C_16
REMARK    7  A    between atoms: C_16  and  O_17
REMARK    8  A    between atoms: C_19  and  O_20
REMARK    9  A    between atoms: O_20  and  C_21
REMARK   10  A    between atoms: C_30  and  C_32
REMARK   11  A    between atoms: C_32  and  O_33
REMARK                            x       y       z     vdW  Elec       q    Type
REMARK                         _______ _______ _______ _____ _____    ______ ____
ROOT
ATOM      1  C   UNL     1       6.879  -0.371  24.103  0.00  0.00    +0.189 C 
ENDROOT
BRANCH   1   2
ATOM      2  O   UNL     1       6.830   0.990  23.634  0.00  0.00    -0.385 OA
ATOM      3  H   UNL     1       7.303   1.550  24.270  0.00  0.00    +0.210 HD
ENDBRANCH   1   2
BRANCH   1   4
ATOM      4  C   UNL     1       8.299  -0.665  24.607  0.00  0.00    +0.263 C 
BRANCH   4   5
ATOM      5  O   UNL     1       8.204  -1.491  25.769  0.00  0.00    -0.488 OA
BRANCH   5   6
ATOM      6  C   UNL     1       8.409  -2.834  25.625  0.00  0.00    +0.135 A 
ATOM      7  C   UNL     1       7.537  -3.697  26.311  0.00  0.00    +0.105 A 
ATOM      8  C   UNL     1       6.358  -3.208  27.073  0.00  0.00    +0.197 A 
ATOM      9  C   UNL     1       5.520  -4.231  27.717  0.00  0.00    +0.105 A 
ATOM     10  C   UNL     1       5.845  -5.522  27.596  0.00  0.00    +0.215 A 
ATOM     11  O   UNL     1       6.942  -5.994  26.899  0.00  0.00    -0.448 OA
ATOM     12  O   UNL     1       6.021  -2.036  27.165  0.00  0.00    -0.287 OA
ATOM     13  C   UNL     1       7.742  -5.081  26.256  0.00  0.00    +0.143 A 
ATOM     14  C   UNL     1       8.797  -5.615  25.514  0.00  0.00    +0.047 A 
ATOM     15  C   UNL     1       9.648  -4.765  24.816  0.00  0.00    +0.007 A 
ATOM     16  C   UNL     1       9.458  -3.382  24.875  0.00  0.00    +0.046 A 
BRANCH  10  17
ATOM     17  C   UNL     1       4.953  -6.519  28.243  0.00  0.00    +0.373 C 
ATOM     18  O   UNL     1       3.765  -6.359  28.458  0.00  0.00    -0.242 OA
BRANCH  17  19
ATOM     19  O   UNL     1       5.618  -7.652  28.564  0.00  0.00    -0.475 OA
ATOM     20  H   UNL     1       6.383  -7.484  29.148  0.00  0.00    +0.296 HD
ENDBRANCH  17  19
ENDBRANCH  10  17
ENDBRANCH   5   6
ENDBRANCH   4   5
ENDBRANCH   1   4
BRANCH   1  21
ATOM     21  C   UNL     1       6.487  -1.323  22.962  0.00  0.00    +0.263 C 
BRANCH  21  22
ATOM     22  O   UNL     1       5.714  -2.389  23.512  0.00  0.00    -0.488 OA
BRANCH  22  23
ATOM     23  C   UNL     1       5.940  -3.668  23.104  0.00  0.00    +0.135 A 
ATOM     24  C   UNL     1       5.122  -4.675  23.649  0.00  0.00    +0.105 A 
ATOM     25  C   UNL     1       3.931  -4.374  24.484  0.00  0.00    +0.197 A 
ATOM     26  C   UNL     1       3.165  -5.530  24.979  0.00  0.00    +0.105 A 
ATOM     27  C   UNL     1       3.556  -6.766  24.654  0.00  0.00    +0.215 A 
ATOM     28  O   UNL     1       4.658  -7.063  23.873  0.00  0.00    -0.448 OA
ATOM     29  O   UNL     1       3.525  -3.248  24.738  0.00  0.00    -0.287 OA
ATOM     30  C   UNL     1       5.391  -6.018  23.366  0.00  0.00    +0.143 A 
ATOM     31  C   UNL     1       6.447  -6.367  22.524  0.00  0.00    +0.047 A 
ATOM     32  C   UNL     1       7.232  -5.371  21.950  0.00  0.00    +0.007 A 
ATOM     33  C   UNL     1       6.984  -4.028  22.242  0.00  0.00    +0.046 A 
BRANCH  27  34
ATOM     34  C   UNL     1       2.736  -7.903  25.153  0.00  0.00    +0.373 C 
ATOM     35  O   UNL     1       2.399  -8.863  24.483  0.00  0.00    -0.242 OA
BRANCH  34  36
ATOM     36  O   UNL     1       2.405  -7.753  26.454  0.00  0.00    -0.475 OA
ATOM     37  H   UNL     1       2.160  -6.833  26.677  0.00  0.00    +0.296 HD
ENDBRANCH  34  36
ENDBRANCH  27  34
ENDBRANCH  22  23
ENDBRANCH  21  22
ENDBRANCH   1  21
TORSDOF 11
ENDMDL
MODEL 3
REMARK VINA RESULT:      -6.5      2.460      4.316
REMARK  Name = 
REMARK  11 active torsions:
REMARK  status: ('A' for Active; 'I' for Inactive)
REMARK    1  A    between atoms: O_1  and  C_2
REMARK    2  A    between atoms: C_2  and  C_3
REMARK    3  A    between atoms: C_2  and  C_19
REMARK    4  A    between atoms: C_3  and  O_4
REMARK    5  A    between atoms: O_4  and  C_5
REMARK    6  A    between atoms: C_14  and  C_16
REMARK    7  A    between atoms: C_16  and  O_17
REMARK    8  A    between atoms: C_19  and  O_20
REMARK    9  A    between atoms: O_20  and  C_21
REMARK   10  A    between atoms: C_30  and  C_32
REMARK   11  A    between atoms: C_32  and  O_33
REMARK                            x       y       z     vdW  Elec       q    Type
REMARK                         _______ _______ _______ _____ _____    ______ ____
ROOT
ATOM      1  C   UNL     1       7.297   2.088  24.221  0.00  0.00    +0.189 C 
ENDROOT
BRANCH   1   2
ATOM      2  O   UNL     1       6.705   3.301  23.719  0.00  0.00    -0.385 OA
ATOM      3  H   UNL     1       5.861   3.077  23.294  0.00  0.00    +0.210 HD
ENDBRANCH   1   2
BRANCH   1   4
ATOM      4  C   UNL     1       6.313   1.430  25.197  0.00  0.00    +0.263 C 
BRANCH   4   5
ATOM      5  O   UNL     1       5.593   0.413  24.498  0.00  0.00    -0.488 OA
BRANCH   5   6
ATOM      6  C   UNL     1       5.352  -0.768  25.141  0.00  0.00    +0.135 A 
ATOM      7  C   UNL     1       5.628  -1.954  24.439  0.00  0.00    +0.105 A 
ATOM      8  C   UNL     1       6.267  -1.962  23.097  0.00  0.00    +0.197 A 
ATOM      9  C   UNL     1       6.519  -3.280  22.496  0.00  0.00    +0.105 A 
ATOM     10  C   UNL     1       6.171  -4.386  23.162  0.00  0.00    +0.215 A 
ATOM     11  O   UNL     1       5.568  -4.398  24.406  0.00  0.00    -0.448 OA
ATOM     12  O   UNL     1       6.628  -0.965  22.487  0.00  0.00    -0.287 OA
ATOM     13  C   UNL     1       5.335  -3.192  25.023  0.00  0.00    +0.143 A 
ATOM     14  C   UNL     1       4.786  -3.262  26.304  0.00  0.00    +0.047 A 
ATOM     15  C   UNL     1       4.532  -2.092  27.010  0.00  0.00    +0.007 A 
ATOM     16  C   UNL     1       4.810  -0.851  26.431  0.00  0.00    +0.046 A 
BRANCH  10  17
ATOM     17  C   UNL     1       6.470  -5.696  22.525  0.00  0.00    +0.373 C 
ATOM     18  O   UNL     1       7.587  -6.136  22.325  0.00  0.00    -0.242 OA
BRANCH  17  19
ATOM     19  O   UNL     1       5.339  -6.361  22.195  0.00  0.00    -0.475 OA
ATOM     20  H   UNL     1       4.570  -5.767  22.101  0.00  0.00    +0.296 HD
ENDBRANCH  17  19
ENDBRANCH  10  17
ENDBRANCH   5   6
ENDBRANCH   4   5
ENDBRANCH   1   4
BRANCH   1  21
ATOM     21  C   UNL     1       8.631   2.413  24.911  0.00  0.00    +0.263 C 
BRANCH  21  22
ATOM     22  O   UNL     1       9.246   1.187  25.302  0.00  0.00    -0.488 OA
BRANCH  22  23
ATOM     23  C   UNL     1       9.509   0.233  24.366  0.00  0.00    +0.135 A 
ATOM     24  C   UNL     1       9.350  -1.111  24.750  0.00  0.00    +0.105 A 
ATOM     25  C   UNL     1       8.740  -1.507  26.046  0.00  0.00    +0.197 A 
ATOM     26  C   UNL     1       8.631  -2.952  26.308  0.00  0.00    +0.105 A 
ATOM     27  C   UNL     1       9.064  -3.821  25.389  0.00  0.00    +0.215 A 
ATOM     28  O   UNL     1       9.628  -3.469  24.177  0.00  0.00    -0.448 OA
ATOM     29  O   UNL     1       8.284  -0.725  26.868  0.00  0.00    -0.287 OA
ATOM     30  C   UNL     1       9.728  -2.134  23.874  0.00  0.00    +0.143 A 
ATOM     31  C   UNL     1      10.234  -1.831  22.609  0.00  0.00    +0.047 A 
ATOM     32  C   UNL     1      10.352  -0.503  22.211  0.00  0.00    +0.007 A 
ATOM     33  C   UNL     1       9.997   0.525  23.087  0.00  0.00    +0.046 A 
BRANCH  27  34
ATOM     34  C   UNL     1       8.908  -5.271  25.684  0.00  0.00    +0.373 C 
ATOM     35  O   UNL     1       7.999  -5.754  26.337  0.00  0.00    -0.242 OA
BRANCH  34  36
ATOM     36  O   UNL     1       9.900  -6.007  25.136  0.00  0.00    -0.475 OA
ATOM     37  H   UNL     1      10.032  -5.814  24.187  0.00  0.00    +0.296 HD
ENDBRANCH  34  36
ENDBRANCH  27  34
ENDBRANCH  22  23
ENDBRANCH  21  22
ENDBRANCH   1  21
TORSDOF 11
ENDMDL
MODEL 4
REMARK VINA RESULT:      -6.5      1.982      5.566
REMARK  Name = 
REMARK  11 active torsions:
REMARK  status: ('A' for Active; 'I' for Inactive)
REMARK    1  A    between atoms: O_1  and  C_2
REMARK    2  A    between atoms: C_2  and  C_3
REMARK    3  A    between atoms: C_2  and  C_19
REMARK    4  A    between atoms: C_3  and  O_4
REMARK    5  A    between atoms: O_4  and  C_5
REMARK    6  A    between atoms: C_14  and  C_16
REMARK    7  A    between atoms: C_16  and  O_17
REMARK    8  A    between atoms: C_19  and  O_20
REMARK    9  A    between atoms: O_20  and  C_21
REMARK   10  A    between atoms: C_30  and  C_32
REMARK   11  A    between atoms: C_32  and  O_33
REMARK                            x       y       z     vdW  Elec       q    Type
REMARK                         _______ _______ _______ _____ _____    ______ ____
ROOT
ATOM      1  C   UNL     1       2.885  -6.835  29.057  0.00  0.00    +0.189 C 
ENDROOT
BRANCH   1   2
ATOM      2  O   UNL     1       4.105  -7.444  28.593  0.00  0.00    -0.385 OA
ATOM      3  H   UNL     1       4.035  -7.580  27.635  0.00  0.00    +0.210 HD
ENDBRANCH   1   2
BRANCH   1   4
ATOM      4  C   UNL     1       1.821  -6.971  27.958  0.00  0.00    +0.263 C 
BRANCH   4   5
ATOM      5  O   UNL     1       2.481  -7.252  26.722  0.00  0.00    -0.488 OA
BRANCH   5   6
ATOM      6  C   UNL     1       2.139  -6.513  25.625  0.00  0.00    +0.135 A 
ATOM      7  C   UNL     1       3.165  -6.184  24.722  0.00  0.00    +0.105 A 
ATOM      8  C   UNL     1       4.551  -6.702  24.860  0.00  0.00    +0.197 A 
ATOM      9  C   UNL     1       5.512  -6.294  23.824  0.00  0.00    +0.105 A 
ATOM     10  C   UNL     1       5.111  -5.495  22.831  0.00  0.00    +0.215 A 
ATOM     11  O   UNL     1       3.829  -4.997  22.691  0.00  0.00    -0.448 OA
ATOM     12  O   UNL     1       4.930  -7.464  25.739  0.00  0.00    -0.287 OA
ATOM     13  C   UNL     1       2.886  -5.370  23.619  0.00  0.00    +0.143 A 
ATOM     14  C   UNL     1       1.594  -4.892  23.395  0.00  0.00    +0.047 A 
ATOM     15  C   UNL     1       0.572  -5.233  24.274  0.00  0.00    +0.007 A 
ATOM     16  C   UNL     1       0.843  -6.035  25.385  0.00  0.00    +0.046 A 
BRANCH  10  17
ATOM     17  C   UNL     1       6.113  -5.132  21.793  0.00  0.00    +0.373 C 
ATOM     18  O   UNL     1       6.068  -5.479  20.627  0.00  0.00    -0.242 OA
BRANCH  17  19
ATOM     19  O   UNL     1       7.092  -4.347  22.297  0.00  0.00    -0.475 OA
ATOM     20  H   UNL     1       6.894  -3.395  22.202  0.00  0.00    +0.296 HD
ENDBRANCH  17  19
ENDBRANCH  10  17
ENDBRANCH   5   6
ENDBRANCH   4   5
ENDBRANCH   1   4
BRANCH   1  21
ATOM     21  C   UNL     1       3.143  -5.360  29.399  0.00  0.00    +0.263 C 
BRANCH  21  22
ATOM     22  O   UNL     1       4.430  -5.001  28.899  0.00  0.00    -0.488 OA
BRANCH  22  23
ATOM     23  C   UNL     1       4.532  -4.297  27.737  0.00  0.00    +0.135 A 
ATOM     24  C   UNL     1       5.772  -4.322  27.073  0.00  0.00    +0.105 A 
ATOM     25  C   UNL     1       6.883  -5.218  27.483  0.00  0.00    +0.197 A 
ATOM     26  C   UNL     1       8.120  -5.141  26.689  0.00  0.00    +0.105 A 
ATOM     27  C   UNL     1       8.184  -4.299  25.652  0.00  0.00    +0.215 A 
ATOM     28  O   UNL     1       7.158  -3.463  25.253  0.00  0.00    -0.448 OA
ATOM     29  O   UNL     1       6.818  -6.038  28.390  0.00  0.00    -0.287 OA
ATOM     30  C   UNL     1       5.974  -3.516  25.947  0.00  0.00    +0.143 A 
ATOM     31  C   UNL     1       4.945  -2.709  25.461  0.00  0.00    +0.047 A 
ATOM     32  C   UNL     1       3.705  -2.715  26.091  0.00  0.00    +0.007 A 
ATOM     33  C   UNL     1       3.500  -3.500  27.227  0.00  0.00    +0.046 A 
BRANCH  27  34
ATOM     34  C   UNL     1       9.443  -4.275  24.860  0.00  0.00    +0.373 C 
ATOM     35  O   UNL     1       9.701  -3.462  23.990  0.00  0.00    -0.242 OA
BRANCH  34  36
ATOM     36  O   UNL     1      10.286  -5.267  25.222  0.00  0.00    -0.475 OA
ATOM     37  H   UNL     1      10.512  -5.242  26.173  0.00  0.00    +0.296 HD
ENDBRANCH  34  36
ENDBRANCH  27  34
ENDBRANCH  22  23
ENDBRANCH  21  22
ENDBRANCH   1  21
TORSDOF 11
ENDMDL
MODEL 5
REMARK VINA RESULT:      -6.4      1.924      5.680
REMARK  Name = 
REMARK  11 active torsions:
REMARK  status: ('A' for Active; 'I' for Inactive)
REMARK    1  A    between atoms: O_1  and  C_2
REMARK    2  A    between atoms: C_2  and  C_3
REMARK    3  A    between atoms: C_2  and  C_19
REMARK    4  A    between atoms: C_3  and  O_4
REMARK    5  A    between atoms: O_4  and  C_5
REMARK    6  A    between atoms: C_14  and  C_16
REMARK    7  A    between atoms: C_16  and  O_17
REMARK    8  A    between atoms: C_19  and  O_20
REMARK    9  A    between atoms: O_20  and  C_21
REMARK   10  A    between atoms: C_30  and  C_32
REMARK   11  A    between atoms: C_32  and  O_33
REMARK                            x       y       z     vdW  Elec       q    Type
REMARK                         _______ _______ _______ _____ _____    ______ ____
ROOT
ATOM      1  C   UNL     1       3.786  -4.207  26.564  0.00  0.00    +0.189 C 
ENDROOT
BRANCH   1   2
ATOM      2  O   UNL     1       2.597  -4.266  27.375  0.00  0.00    -0.385 OA
ATOM      3  H   UNL     1       2.569  -5.129  27.817  0.00  0.00    +0.210 HD
ENDBRANCH   1   2
BRANCH   1   4
ATOM      4  C   UNL     1       3.542  -5.010  25.279  0.00  0.00    +0.263 C 
BRANCH   4   5
ATOM      5  O   UNL     1       4.001  -4.237  24.168  0.00  0.00    -0.488 OA
BRANCH   5   6
ATOM      6  C   UNL     1       5.088  -4.685  23.474  0.00  0.00    +0.135 A 
ATOM      7  C   UNL     1       6.024  -3.726  23.048  0.00  0.00    +0.105 A 
ATOM      8  C   UNL     1       5.927  -2.291  23.421  0.00  0.00    +0.197 A 
ATOM      9  C   UNL     1       6.993  -1.409  22.924  0.00  0.00    +0.105 A 
ATOM     10  C   UNL     1       7.977  -1.919  22.175  0.00  0.00    +0.215 A 
ATOM     11  O   UNL     1       8.078  -3.249  21.811  0.00  0.00    -0.448 OA
ATOM     12  O   UNL     1       5.058  -1.809  24.135  0.00  0.00    -0.287 OA
ATOM     13  C   UNL     1       7.120  -4.120  22.273  0.00  0.00    +0.143 A 
ATOM     14  C   UNL     1       7.305  -5.461  21.931  0.00  0.00    +0.047 A 
ATOM     15  C   UNL     1       6.395  -6.416  22.369  0.00  0.00    +0.007 A 
ATOM     16  C   UNL     1       5.290  -6.030  23.133  0.00  0.00    +0.046 A 
BRANCH  10  17
ATOM     17  C   UNL     1       9.045  -0.992  21.718  0.00  0.00    +0.373 C 
ATOM     18  O   UNL     1       8.862   0.147  21.328  0.00  0.00    -0.242 OA
BRANCH  17  19
ATOM     19  O   UNL     1      10.269  -1.562  21.796  0.00  0.00    -0.475 OA
ATOM     20  H   UNL     1      10.826  -1.157  22.489  0.00  0.00    +0.296 HD
ENDBRANCH  17  19
ENDBRANCH  10  17
ENDBRANCH   5   6
ENDBRANCH   4   5
ENDBRANCH   1   4
BRANCH   1  21
ATOM     21  C   UNL     1       4.976  -4.772  27.354  0.00  0.00    +0.263 C 
BRANCH  21  22
ATOM     22  O   UNL     1       6.005  -3.784  27.384  0.00  0.00    -0.488 OA
BRANCH  22  23
ATOM     23  C   UNL     1       7.158  -3.987  26.688  0.00  0.00    +0.135 A 
ATOM     24  C   UNL     1       7.858  -2.848  26.250  0.00  0.00    +0.105 A 
ATOM     25  C   UNL     1       7.494  -1.472  26.673  0.00  0.00    +0.197 A 
ATOM     26  C   UNL     1       8.323  -0.378  26.142  0.00  0.00    +0.105 A 
ATOM     27  C   UNL     1       9.348  -0.663  25.332  0.00  0.00    +0.215 A 
ATOM     28  O   UNL     1       9.704  -1.938  24.934  0.00  0.00    -0.448 OA
ATOM     29  O   UNL     1       6.598  -1.200  27.462  0.00  0.00    -0.287 OA
ATOM     30  C   UNL     1       8.978  -2.996  25.424  0.00  0.00    +0.143 A 
ATOM     31  C   UNL     1       9.422  -4.265  25.053  0.00  0.00    +0.047 A 
ATOM     32  C   UNL     1       8.756  -5.394  25.519  0.00  0.00    +0.007 A 
ATOM     33  C   UNL     1       7.626  -5.257  26.329  0.00  0.00    +0.046 A 
BRANCH  27  34
ATOM     34  C   UNL     1      10.175   0.472  24.841  0.00  0.00    +0.373 C 
ATOM     35  O   UNL     1      11.235   0.355  24.251  0.00  0.00    -0.242 OA
BRANCH  34  36
ATOM     36  O   UNL     1       9.610   1.666  25.121  0.00  0.00    -0.475 OA
ATOM     37  H   UNL     1       8.780   1.816  24.626  0.00  0.00    +0.296 HD
ENDBRANCH  34  36
ENDBRANCH  27  34
ENDBRANCH  22  23
ENDBRANCH  21  22
ENDBRANCH   1  21
TORSDOF 11
ENDMDL
MODEL 6
REMARK VINA RESULT:      -6.4      2.128      6.059
REMARK  Name = 
REMARK  11 active torsions:
REMARK  status: ('A' for Active; 'I' for Inactive)
REMARK    1  A    between atoms: O_1  and  C_2
REMARK    2  A    between atoms: C_2  and  C_3
REMARK    3  A    between atoms: C_2  and  C_19
REMARK    4  A    between atoms: C_3  and  O_4
REMARK    5  A    between atoms: O_4  and  C_5
REMARK    6  A    between atoms: C_14  and  C_16
REMARK    7  A    between atoms: C_16  and  O_17
REMARK    8  A    between atoms: C_19  and  O_20
REMARK    9  A    between atoms: O_20  and  C_21
REMARK   10  A    between atoms: C_30  and  C_32
REMARK   11  A    between atoms: C_32  and  O_33
REMARK                            x       y       z     vdW  Elec       q    Type
REMARK                         _______ _______ _______ _____ _____    ______ ____
ROOT
ATOM      1  C   UNL     1       4.757  -5.787  22.343  0.00  0.00    +0.189 C 
ENDROOT
BRANCH   1   2
ATOM      2  O   UNL     1       4.684  -4.355  22.197  0.00  0.00    -0.385 OA
ATOM      3  H   UNL     1       5.580  -3.992  22.285  0.00  0.00    +0.210 HD
ENDBRANCH   1   2
BRANCH   1   4
ATOM      4  C   UNL     1       4.031  -6.184  23.635  0.00  0.00    +0.263 C 
BRANCH   4   5
ATOM      5  O   UNL     1       4.013  -5.055  24.511  0.00  0.00    -0.488 OA
BRANCH   5   6
ATOM      6  C   UNL     1       4.839  -5.068  25.599  0.00  0.00    +0.135 A 
ATOM      7  C   UNL     1       5.526  -3.880  25.903  0.00  0.00    +0.105 A 
ATOM      8  C   UNL     1       5.298  -2.610  25.165  0.00  0.00    +0.197 A 
ATOM      9  C   UNL     1       6.070  -1.441  25.612  0.00  0.00    +0.105 A 
ATOM     10  C   UNL     1       6.923  -1.566  26.634  0.00  0.00    +0.215 A 
ATOM     11  O   UNL     1       7.155  -2.740  27.326  0.00  0.00    -0.448 OA
ATOM     12  O   UNL     1       4.496  -2.464  24.253  0.00  0.00    -0.287 OA
ATOM     13  C   UNL     1       6.438  -3.856  26.964  0.00  0.00    +0.143 A 
ATOM     14  C   UNL     1       6.662  -4.997  27.736  0.00  0.00    +0.047 A 
ATOM     15  C   UNL     1       5.967  -6.168  27.453  0.00  0.00    +0.007 A 
ATOM     16  C   UNL     1       5.064  -6.205  26.388  0.00  0.00    +0.046 A 
BRANCH  10  17
ATOM     17  C   UNL     1       7.662  -0.350  27.066  0.00  0.00    +0.373 C 
ATOM     18  O   UNL     1       7.154   0.736  27.282  0.00  0.00    -0.242 OA
BRANCH  17  19
ATOM     19  O   UNL     1       8.985  -0.592  27.207  0.00  0.00    -0.475 OA
ATOM     20  H   UNL     1       9.169  -1.508  27.495  0.00  0.00    +0.296 HD
ENDBRANCH  17  19
ENDBRANCH  10  17
ENDBRANCH   5   6
ENDBRANCH   4   5
ENDBRANCH   1   4
BRANCH   1  21
ATOM     21  C   UNL     1       6.229  -6.226  22.375  0.00  0.00    +0.263 C 
BRANCH  21  22
ATOM     22  O   UNL     1       7.048  -5.059  22.322  0.00  0.00    -0.488 OA
BRANCH  22  23
ATOM     23  C   UNL     1       7.883  -4.771  23.359  0.00  0.00    +0.135 A 
ATOM     24  C   UNL     1       8.370  -3.454  23.449  0.00  0.00    +0.105 A 
ATOM     25  C   UNL     1       7.869  -2.353  22.587  0.00  0.00    +0.197 A 
ATOM     26  C   UNL     1       8.466  -1.025  22.800  0.00  0.00    +0.105 A 
ATOM     27  C   UNL     1       9.401  -0.868  23.744  0.00  0.00    +0.215 A 
ATOM     28  O   UNL     1       9.873  -1.880  24.559  0.00  0.00    -0.448 OA
ATOM     29  O   UNL     1       6.972  -2.467  21.763  0.00  0.00    -0.287 OA
ATOM     30  C   UNL     1       9.329  -3.133  24.416  0.00  0.00    +0.143 A 
ATOM     31  C   UNL     1       9.785  -4.101  25.310  0.00  0.00    +0.047 A 
ATOM     32  C   UNL     1       9.273  -5.394  25.250  0.00  0.00    +0.007 A 
ATOM     33  C   UNL     1       8.330  -5.729  24.276  0.00  0.00    +0.046 A 
BRANCH  27  34
ATOM     34  C   UNL     1       9.957   0.497  23.944  0.00  0.00    +0.373 C 
ATOM     35  O   UNL     1       9.921   1.390  23.116  0.00  0.00    -0.242 OA
BRANCH  34  36
ATOM     36  O   UNL     1      10.509   0.643  25.168  0.00  0.00    -0.475 OA
ATOM     37  H   UNL     1      11.487   0.654  25.142  0.00  0.00    +0.296 HD
ENDBRANCH  34  36
ENDBRANCH  27  34
ENDBRANCH  22  23
ENDBRANCH  21  22
ENDBRANCH   1  21
TORSDOF 11
ENDMDL
MODEL 7
REMARK VINA RESULT:      -6.3      1.690      3.462
REMARK  Name = 
REMARK  11 active torsions:
REMARK  status: ('A' for Active; 'I' for Inactive)
REMARK    1  A    between atoms: O_1  and  C_2
REMARK    2  A    between atoms: C_2  and  C_3
REMARK    3  A    between atoms: C_2  and  C_19
REMARK    4  A    between atoms: C_3  and  O_4
REMARK    5  A    between atoms: O_4  and  C_5
REMARK    6  A    between atoms: C_14  and  C_16
REMARK    7  A    between atoms: C_16  and  O_17
REMARK    8  A    between atoms: C_19  and  O_20
REMARK    9  A    between atoms: O_20  and  C_21
REMARK   10  A    between atoms: C_30  and  C_32
REMARK   11  A    between atoms: C_32  and  O_33
REMARK                            x       y       z     vdW  Elec       q    Type
REMARK                         _______ _______ _______ _____ _____    ______ ____
ROOT
ATOM      1  C   UNL     1       7.673   0.440  26.869  0.00  0.00    +0.189 C 
ENDROOT
BRANCH   1   2
ATOM      2  O   UNL     1       6.314  -0.034  26.813  0.00  0.00    -0.385 OA
ATOM      3  H   UNL     1       6.211  -0.574  26.014  0.00  0.00    +0.210 HD
ENDBRANCH   1   2
BRANCH   1   4
ATOM      4  C   UNL     1       7.946   1.294  25.624  0.00  0.00    +0.263 C 
BRANCH   4   5
ATOM      5  O   UNL     1       7.211   0.744  24.528  0.00  0.00    -0.488 OA
BRANCH   5   6
ATOM      6  C   UNL     1       7.894   0.037  23.581  0.00  0.00    +0.135 A 
ATOM      7  C   UNL     1       7.368  -1.210  23.199  0.00  0.00    +0.105 A 
ATOM      8  C   UNL     1       6.061  -1.714  23.697  0.00  0.00    +0.197 A 
ATOM      9  C   UNL     1       5.626  -3.024  23.189  0.00  0.00    +0.105 A 
ATOM     10  C   UNL     1       6.402  -3.689  22.328  0.00  0.00    +0.215 A 
ATOM     11  O   UNL     1       7.623  -3.239  21.862  0.00  0.00    -0.448 OA
ATOM     12  O   UNL     1       5.318  -1.106  24.454  0.00  0.00    -0.287 OA
ATOM     13  C   UNL     1       8.064  -2.008  22.285  0.00  0.00    +0.143 A 
ATOM     14  C   UNL     1       9.270  -1.573  21.733  0.00  0.00    +0.047 A 
ATOM     15  C   UNL     1       9.783  -0.331  22.091  0.00  0.00    +0.007 A 
ATOM     16  C   UNL     1       9.102   0.468  23.013  0.00  0.00    +0.046 A 
BRANCH  10  17
ATOM     17  C   UNL     1       5.907  -4.997  21.824  0.00  0.00    +0.373 C 
ATOM     18  O   UNL     1       6.124  -5.445  20.713  0.00  0.00    -0.242 OA
BRANCH  17  19
ATOM     19  O   UNL     1       5.183  -5.652  22.760  0.00  0.00    -0.475 OA
ATOM     20  H   UNL     1       5.737  -6.221  23.330  0.00  0.00    +0.296 HD
ENDBRANCH  17  19
ENDBRANCH  10  17
ENDBRANCH   5   6
ENDBRANCH   4   5
ENDBRANCH   1   4
BRANCH   1  21
ATOM     21  C   UNL     1       8.633  -0.757  26.944  0.00  0.00    +0.263 C 
BRANCH  21  22
ATOM     22  O   UNL     1       7.859  -1.944  27.111  0.00  0.00    -0.488 OA
BRANCH  22  23
ATOM     23  C   UNL     1       8.077  -3.014  26.297  0.00  0.00    +0.135 A 
ATOM     24  C   UNL     1       7.071  -3.996  26.236  0.00  0.00    +0.105 A 
ATOM     25  C   UNL     1       5.737  -3.816  26.865  0.00  0.00    +0.197 A 
ATOM     26  C   UNL     1       4.782  -4.926  26.712  0.00  0.00    +0.105 A 
ATOM     27  C   UNL     1       5.143  -6.013  26.022  0.00  0.00    +0.215 A 
ATOM     28  O   UNL     1       6.376  -6.194  25.426  0.00  0.00    -0.448 OA
ATOM     29  O   UNL     1       5.372  -2.803  27.445  0.00  0.00    -0.287 OA
ATOM     30  C   UNL     1       7.294  -5.176  25.518  0.00  0.00    +0.143 A 
ATOM     31  C   UNL     1       8.496  -5.374  24.838  0.00  0.00    +0.047 A 
ATOM     32  C   UNL     1       9.475  -4.386  24.862  0.00  0.00    +0.007 A 
ATOM     33  C   UNL     1       9.270  -3.214  25.592  0.00  0.00    +0.046 A 
BRANCH  27  34
ATOM     34  C   UNL     1       4.135  -7.098  25.869  0.00  0.00    +0.373 C 
ATOM     35  O   UNL     1       3.983  -7.768  24.863  0.00  0.00    -0.242 OA
BRANCH  34  36
ATOM     36  O   UNL     1       3.400  -7.265  26.990  0.00  0.00    -0.475 OA
ATOM     37  H   UNL     1       3.068  -8.178  27.091  0.00  0.00    +0.296 HD
ENDBRANCH  34  36
ENDBRANCH  27  34
ENDBRANCH  22  23
ENDBRANCH  21  22
ENDBRANCH   1  21
TORSDOF 11
ENDMDL
MODEL 8
REMARK VINA RESULT:      -6.3      1.910      4.515
REMARK  Name = 
REMARK  11 active torsions:
REMARK  status: ('A' for Active; 'I' for Inactive)
REMARK    1  A    between atoms: O_1  and  C_2
REMARK    2  A    between atoms: C_2  and  C_3
REMARK    3  A    between atoms: C_2  and  C_19
REMARK    4  A    between atoms: C_3  and  O_4
REMARK    5  A    between atoms: O_4  and  C_5
REMARK    6  A    between atoms: C_14  and  C_16
REMARK    7  A    between atoms: C_16  and  O_17
REMARK    8  A    between atoms: C_19  and  O_20
REMARK    9  A    between atoms: O_20  and  C_21
REMARK   10  A    between atoms: C_30  and  C_32
REMARK   11  A    between atoms: C_32  and  O_33
REMARK                            x       y       z     vdW  Elec       q    Type
REMARK                         _______ _______ _______ _____ _____    ______ ____
ROOT
ATOM      1  C   UNL     1       6.445   1.488  25.450  0.00  0.00    +0.189 C 
ENDROOT
BRANCH   1   2
ATOM      2  O   UNL     1       5.549   2.591  25.681  0.00  0.00    -0.385 OA
ATOM      3  H   UNL     1       5.284   2.956  24.821  0.00  0.00    +0.210 HD
ENDBRANCH   1   2
BRANCH   1   4
ATOM      4  C   UNL     1       7.835   2.046  25.117  0.00  0.00    +0.263 C 
BRANCH   4   5
ATOM      5  O   UNL     1       8.814   1.068  25.474  0.00  0.00    -0.488 OA
BRANCH   5   6
ATOM      6  C   UNL     1       9.247   0.205  24.509  0.00  0.00    +0.135 A 
ATOM      7  C   UNL     1       9.226  -1.168  24.813  0.00  0.00    +0.105 A 
ATOM      8  C   UNL     1       8.652  -1.701  26.076  0.00  0.00    +0.197 A 
ATOM      9  C   UNL     1       8.676  -3.162  26.244  0.00  0.00    +0.105 A 
ATOM     10  C   UNL     1       9.200  -3.928  25.282  0.00  0.00    +0.215 A 
ATOM     11  O   UNL     1       9.746  -3.450  24.105  0.00  0.00    -0.448 OA
ATOM     12  O   UNL     1       8.135  -1.022  26.951  0.00  0.00    -0.287 OA
ATOM     13  C   UNL     1       9.724  -2.093  23.887  0.00  0.00    +0.143 A 
ATOM     14  C   UNL     1      10.227  -1.668  22.657  0.00  0.00    +0.047 A 
ATOM     15  C   UNL     1      10.229  -0.313  22.344  0.00  0.00    +0.007 A 
ATOM     16  C   UNL     1       9.746   0.618  23.265  0.00  0.00    +0.046 A 
BRANCH  10  17
ATOM     17  C   UNL     1       9.177  -5.401  25.487  0.00  0.00    +0.373 C 
ATOM     18  O   UNL     1       9.783  -6.210  24.808  0.00  0.00    -0.242 OA
BRANCH  17  19
ATOM     19  O   UNL     1       8.403  -5.747  26.540  0.00  0.00    -0.475 OA
ATOM     20  H   UNL     1       8.328  -5.031  27.200  0.00  0.00    +0.296 HD
ENDBRANCH  17  19
ENDBRANCH  10  17
ENDBRANCH   5   6
ENDBRANCH   4   5
ENDBRANCH   1   4
BRANCH   1  21
ATOM     21  C   UNL     1       5.906   0.619  24.303  0.00  0.00    +0.263 C 
BRANCH  21  22
ATOM     22  O   UNL     1       5.459  -0.621  24.850  0.00  0.00    -0.488 OA
BRANCH  22  23
ATOM     23  C   UNL     1       5.693  -1.781  24.177  0.00  0.00    +0.135 A 
ATOM     24  C   UNL     1       5.469  -2.986  24.867  0.00  0.00    +0.105 A 
ATOM     25  C   UNL     1       4.823  -3.035  26.204  0.00  0.00    +0.197 A 
ATOM     26  C   UNL     1       4.646  -4.369  26.802  0.00  0.00    +0.105 A 
ATOM     27  C   UNL     1       5.053  -5.450  26.129  0.00  0.00    +0.215 A 
ATOM     28  O   UNL     1       5.649  -5.423  24.882  0.00  0.00    -0.448 OA
ATOM     29  O   UNL     1       4.390  -2.061  26.804  0.00  0.00    -0.287 OA
ATOM     30  C   UNL     1       5.813  -4.204  24.270  0.00  0.00    +0.143 A 
ATOM     31  C   UNL     1       6.351  -4.235  22.984  0.00  0.00    +0.047 A 
ATOM     32  C   UNL     1       6.534  -3.047  22.282  0.00  0.00    +0.007 A 
ATOM     33  C   UNL     1       6.212  -1.825  22.877  0.00  0.00    +0.046 A 
BRANCH  27  34
ATOM     34  C   UNL     1       4.828  -6.779  26.759  0.00  0.00    +0.373 C 
ATOM     35  O   UNL     1       5.390  -7.175  27.765  0.00  0.00    -0.242 OA
BRANCH  34  36
ATOM     36  O   UNL     1       3.914  -7.509  26.084  0.00  0.00    -0.475 OA
ATOM     37  H   UNL     1       4.319  -8.106  25.424  0.00  0.00    +0.296 HD
ENDBRANCH  34  36
ENDBRANCH  27  34
ENDBRANCH  22  23
ENDBRANCH  21  22
ENDBRANCH   1  21
TORSDOF 11
ENDMDL
MODEL 9
REMARK VINA RESULT:      -6.3      2.745      5.532
REMARK  Name = 
REMARK  11 active torsions:
REMARK  status: ('A' for Active; 'I' for Inactive)
REMARK    1  A    between atoms: O_1  and  C_2
REMARK    2  A    between atoms: C_2  and  C_3
REMARK    3  A    between atoms: C_2  and  C_19
REMARK    4  A    between atoms: C_3  and  O_4
REMARK    5  A    between atoms: O_4  and  C_5
REMARK    6  A    between atoms: C_14  and  C_16
REMARK    7  A    between atoms: C_16  and  O_17
REMARK    8  A    between atoms: C_19  and  O_20
REMARK    9  A    between atoms: O_20  and  C_21
REMARK   10  A    between atoms: C_30  and  C_32
REMARK   11  A    between atoms: C_32  and  O_33
REMARK                            x       y       z     vdW  Elec       q    Type
REMARK                         _______ _______ _______ _____ _____    ______ ____
ROOT
ATOM      1  C   UNL     1       7.568   2.496  25.981  0.00  0.00    +0.189 C 
ENDROOT
BRANCH   1   2
ATOM      2  O   UNL     1       7.875   3.732  26.654  0.00  0.00    -0.385 OA
ATOM      3  H   UNL     1       8.442   3.533  27.416  0.00  0.00    +0.210 HD
ENDBRANCH   1   2
BRANCH   1   4
ATOM      4  C   UNL     1       8.594   2.280  24.860  0.00  0.00    +0.263 C 
BRANCH   4   5
ATOM      5  O   UNL     1       9.455   1.203  25.236  0.00  0.00    -0.488 OA
BRANCH   5   6
ATOM      6  C   UNL     1       9.696   0.219  24.319  0.00  0.00    +0.135 A 
ATOM      7  C   UNL     1       9.485  -1.110  24.727  0.00  0.00    +0.105 A 
ATOM      8  C   UNL     1       8.909  -1.459  26.052  0.00  0.00    +0.197 A 
ATOM      9  C   UNL     1       8.720  -2.892  26.329  0.00  0.00    +0.105 A 
ATOM     10  C   UNL     1       9.066  -3.794  25.405  0.00  0.00    +0.215 A 
ATOM     11  O   UNL     1       9.610  -3.487  24.172  0.00  0.00    -0.448 OA
ATOM     12  O   UNL     1       8.551  -0.650  26.896  0.00  0.00    -0.287 OA
ATOM     13  C   UNL     1       9.782  -2.161  23.853  0.00  0.00    +0.143 A 
ATOM     14  C   UNL     1      10.274  -1.905  22.572  0.00  0.00    +0.047 A 
ATOM     15  C   UNL     1      10.464  -0.591  22.157  0.00  0.00    +0.007 A 
ATOM     16  C   UNL     1      10.181   0.465  23.027  0.00  0.00    +0.046 A 
BRANCH  10  17
ATOM     17  C   UNL     1       8.831  -5.227  25.722  0.00  0.00    +0.373 C 
ATOM     18  O   UNL     1       7.870  -5.660  26.332  0.00  0.00    -0.242 OA
BRANCH  17  19
ATOM     19  O   UNL     1       9.818  -6.015  25.237  0.00  0.00    -0.475 OA
ATOM     20  H   UNL     1      10.676  -5.849  25.673  0.00  0.00    +0.296 HD
ENDBRANCH  17  19
ENDBRANCH  10  17
ENDBRANCH   5   6
ENDBRANCH   4   5
ENDBRANCH   1   4
BRANCH   1  21
ATOM     21  C   UNL     1       6.138   2.555  25.422  0.00  0.00    +0.263 C 
BRANCH  21  22
ATOM     22  O   UNL     1       5.908   1.378  24.649  0.00  0.00    -0.488 OA
BRANCH  22  23
ATOM     23  C   UNL     1       5.646   0.198  25.276  0.00  0.00    +0.135 A 
ATOM     24  C   UNL     1       5.811  -0.982  24.527  0.00  0.00    +0.105 A 
ATOM     25  C   UNL     1       6.427  -0.994  23.175  0.00  0.00    +0.197 A 
ATOM     26  C   UNL     1       6.542  -2.305  22.516  0.00  0.00    +0.105 A 
ATOM     27  C   UNL     1       6.110  -3.400  23.150  0.00  0.00    +0.215 A 
ATOM     28  O   UNL     1       5.541  -3.408  24.409  0.00  0.00    -0.448 OA
ATOM     29  O   UNL     1       6.883  -0.010  22.610  0.00  0.00    -0.287 OA
ATOM     30  C   UNL     1       5.435  -2.212  25.078  0.00  0.00    +0.143 A 
ATOM     31  C   UNL     1       4.923  -2.282  26.373  0.00  0.00    +0.047 A 
ATOM     32  C   UNL     1       4.799  -1.121  27.130  0.00  0.00    +0.007 A 
ATOM     33  C   UNL     1       5.153   0.114  26.583  0.00  0.00    +0.046 A 
BRANCH  27  34
ATOM     34  C   UNL     1       6.272  -4.707  22.456  0.00  0.00    +0.373 C 
ATOM     35  O   UNL     1       5.365  -5.340  21.946  0.00  0.00    -0.242 OA
BRANCH  34  36
ATOM     36  O   UNL     1       7.559  -5.118  22.449  0.00  0.00    -0.475 OA
ATOM     37  H   UNL     1       7.933  -5.202  23.349  0.00  0.00    +0.296 HD
ENDBRANCH  34  36
ENDBRANCH  27  34
ENDBRANCH  22  23
ENDBRANCH  21  22
ENDBRANCH   1  21
TORSDOF 11
ENDMDL
