MODEL 1
REMARK VINA RESULT:      -6.5      0.000      0.000
REMARK  Name = 
REMARK  9 active torsions:
REMARK  status: ('A' for Active; 'I' for Inactive)
REMARK    1  A    between atoms: C_1  and  C_2
REMARK    2  A    between atoms: C_2  and  C_3
REMARK    3  A    between atoms: C_2  and  C_4
REMARK    4  A    between atoms: C_6  and  O_7
REMARK    5  A    between atoms: O_7  and  C_8
REMARK    6  A    between atoms: C_12  and  C_13
REMARK    7  A    between atoms: C_13  and  C_14
REMARK    8  A    between atoms: C_14  and  O_15
REMARK    9  A    between atoms: C_22  and  O_23
REMARK                            x       y       z     vdW  Elec       q    Type
REMARK                         _______ _______ _______ _____ _____    ______ ____
ROOT
ATOM      1  C   UNL     1       8.391  -2.777  25.805  0.00  0.00    +0.165 A 
ATOM      2  C   UNL     1       8.562  -4.174  25.742  0.00  0.00    +0.085 A 
ATOM      3 CL   UNL     1      10.056  -4.870  25.204  0.00  0.00    -0.080 Cl
ATOM      4  C   UNL     1       7.570  -5.064  26.204  0.00  0.00    +0.028 A 
ATOM      5  C   UNL     1       6.360  -4.577  26.713  0.00  0.00    -0.034 A 
ATOM      6  C   UNL     1       6.184  -3.190  26.767  0.00  0.00    +0.028 A 
ATOM      7  C   UNL     1       7.227  -2.310  26.431  0.00  0.00    +0.085 A 
ATOM      8 CL   UNL     1       7.052  -0.703  27.062  0.00  0.00    -0.080 Cl
ENDROOT
BRANCH   1   9
ATOM      9  O   UNL     1       9.450  -2.003  25.372  0.00  0.00    -0.453 OA
BRANCH   9  14
ATOM     10  C   UNL     1       9.190   1.022  23.304  0.00  0.00    +0.000 A 
ATOM     11  C   UNL     1       9.109   0.469  22.021  0.00  0.00    +0.120 A 
ATOM     12  C   UNL     1       9.279  -0.897  21.821  0.00  0.00    +0.049 A 
ATOM     13  C   UNL     1       9.521  -1.737  22.910  0.00  0.00    +0.050 A 
ATOM     14  C   UNL     1       9.418  -1.252  24.212  0.00  0.00    +0.129 A 
ATOM     15  C   UNL     1       9.290   0.135  24.399  0.00  0.00    +0.053 A 
BRANCH  10  17
ATOM     16  C   UNL     1       8.636   3.065  24.750  0.00  0.00    +0.012 C 
ATOM     17  C   UNL     1       9.304   2.529  23.485  0.00  0.00    +0.017 C 
ATOM     18  C   UNL     1      10.783   2.932  23.428  0.00  0.00    +0.012 C 
ENDBRANCH  10  17
BRANCH  11  19
ATOM     19  O   UNL     1       8.897   1.285  20.946  0.00  0.00    -0.506 OA
ATOM     20  H   UNL     1       8.540   2.132  21.258  0.00  0.00    +0.292 HD
ENDBRANCH  11  19
ENDBRANCH   9  14
ENDBRANCH   1   9
BRANCH   5  21
ATOM     21  C   UNL     1       5.347  -5.475  27.392  0.00  0.00    +0.155 C 
BRANCH  21  22
ATOM     22  C   UNL     1       5.751  -6.312  28.584  0.00  0.00    +0.309 C 
ATOM     23  O   UNL     1       6.406  -5.848  29.500  0.00  0.00    -0.251 OA
BRANCH  22  24
ATOM     24  O   UNL     1       5.408  -7.615  28.571  0.00  0.00    -0.480 OA
ATOM     25  H   UNL     1       4.802  -7.877  29.285  0.00  0.00    +0.295 HD
ENDBRANCH  22  24
ENDBRANCH  21  22
ENDBRANCH   5  21
TORSDOF 7
ENDMDL
MODEL 2
REMARK VINA RESULT:      -6.5      3.018      4.200
REMARK  Name = 
REMARK  9 active torsions:
REMARK  status: ('A' for Active; 'I' for Inactive)
REMARK    1  A    between atoms: C_1  and  C_2
REMARK    2  A    between atoms: C_2  and  C_3
REMARK    3  A    between atoms: C_2  and  C_4
REMARK    4  A    between atoms: C_6  and  O_7
REMARK    5  A    between atoms: O_7  and  C_8
REMARK    6  A    between atoms: C_12  and  C_13
REMARK    7  A    between atoms: C_13  and  C_14
REMARK    8  A    between atoms: C_14  and  O_15
REMARK    9  A    between atoms: C_22  and  O_23
REMARK                            x       y       z     vdW  Elec       q    Type
REMARK                         _______ _______ _______ _____ _____    ______ ____
ROOT
ATOM      1  C   UNL     1       8.226   0.312  24.823  0.00  0.00    +0.165 A 
ATOM      2  C   UNL     1       9.502  -0.260  24.646  0.00  0.00    +0.085 A 
ATOM      3 CL   UNL     1      10.941   0.695  24.795  0.00  0.00    -0.080 Cl
ATOM      4  C   UNL     1       9.670  -1.645  24.437  0.00  0.00    +0.028 A 
ATOM      5  C   UNL     1       8.559  -2.494  24.367  0.00  0.00    -0.034 A 
ATOM      6  C   UNL     1       7.291  -1.926  24.534  0.00  0.00    +0.028 A 
ATOM      7  C   UNL     1       7.139  -0.571  24.874  0.00  0.00    +0.085 A 
ATOM      8 CL   UNL     1       5.603  -0.167  25.573  0.00  0.00    -0.080 Cl
ENDROOT
BRANCH   1   9
ATOM      9  O   UNL     1       8.186   1.670  25.073  0.00  0.00    -0.453 OA
BRANCH   9  14
ATOM     10  C   UNL     1       8.495   4.937  23.423  0.00  0.00    +0.000 A 
ATOM     11  C   UNL     1       7.623   4.780  22.340  0.00  0.00    +0.120 A 
ATOM     12  C   UNL     1       7.035   3.548  22.072  0.00  0.00    +0.049 A 
ATOM     13  C   UNL     1       7.303   2.452  22.895  0.00  0.00    +0.050 A 
ATOM     14  C   UNL     1       8.009   2.619  24.084  0.00  0.00    +0.129 A 
ATOM     15  C   UNL     1       8.633   3.855  24.321  0.00  0.00    +0.053 A 
BRANCH  10  17
ATOM     16  C   UNL     1       8.986   7.108  24.694  0.00  0.00    +0.012 C 
ATOM     17  C   UNL     1       9.361   6.184  23.537  0.00  0.00    +0.017 C 
ATOM     18  C   UNL     1      10.835   5.768  23.618  0.00  0.00    +0.012 C 
ENDBRANCH  10  17
BRANCH  11  19
ATOM     19  O   UNL     1       7.374   5.839  21.514  0.00  0.00    -0.506 OA
ATOM     20  H   UNL     1       6.598   6.320  21.842  0.00  0.00    +0.292 HD
ENDBRANCH  11  19
ENDBRANCH   9  14
ENDBRANCH   1   9
BRANCH   5  21
ATOM     21  C   UNL     1       8.692  -4.002  24.334  0.00  0.00    +0.155 C 
BRANCH  21  22
ATOM     22  C   UNL     1       9.309  -4.736  25.503  0.00  0.00    +0.309 C 
ATOM     23  O   UNL     1       9.042  -4.445  26.655  0.00  0.00    -0.251 OA
BRANCH  22  24
ATOM     24  O   UNL     1      10.215  -5.693  25.224  0.00  0.00    -0.480 OA
ATOM     25  H   UNL     1      10.156  -6.479  25.794  0.00  0.00    +0.295 HD
ENDBRANCH  22  24
ENDBRANCH  21  22
ENDBRANCH   5  21
TORSDOF 7
ENDMDL
MODEL 3
REMARK VINA RESULT:      -6.4      3.038      8.231
REMARK  Name = 
REMARK  9 active torsions:
REMARK  status: ('A' for Active; 'I' for Inactive)
REMARK    1  A    between atoms: C_1  and  C_2
REMARK    2  A    between atoms: C_2  and  C_3
REMARK    3  A    between atoms: C_2  and  C_4
REMARK    4  A    between atoms: C_6  and  O_7
REMARK    5  A    between atoms: O_7  and  C_8
REMARK    6  A    between atoms: C_12  and  C_13
REMARK    7  A    between atoms: C_13  and  C_14
REMARK    8  A    between atoms: C_14  and  O_15
REMARK    9  A    between atoms: C_22  and  O_23
REMARK                            x       y       z     vdW  Elec       q    Type
REMARK                         _______ _______ _______ _____ _____    ______ ____
ROOT
ATOM      1  C   UNL     1       8.313   0.835  23.462  0.00  0.00    +0.165 A 
ATOM      2  C   UNL     1       8.455   1.784  24.494  0.00  0.00    +0.085 A 
ATOM      3 CL   UNL     1       7.506   1.683  25.942  0.00  0.00    -0.080 Cl
ATOM      4  C   UNL     1       9.436   2.797  24.441  0.00  0.00    +0.028 A 
ATOM      5  C   UNL     1      10.285   2.905  23.333  0.00  0.00    -0.034 A 
ATOM      6  C   UNL     1      10.140   1.970  22.303  0.00  0.00    +0.028 A 
ATOM      7  C   UNL     1       9.252   0.887  22.423  0.00  0.00    +0.085 A 
ATOM      8 CL   UNL     1       9.581  -0.443  21.358  0.00  0.00    -0.080 Cl
ENDROOT
BRANCH   1   9
ATOM      9  O   UNL     1       7.353  -0.141  23.646  0.00  0.00    -0.453 OA
BRANCH   9  14
ATOM     10  C   UNL     1       6.962  -3.775  24.015  0.00  0.00    +0.000 A 
ATOM     11  C   UNL     1       7.877  -4.045  25.039  0.00  0.00    +0.120 A 
ATOM     12  C   UNL     1       8.727  -3.053  25.516  0.00  0.00    +0.049 A 
ATOM     13  C   UNL     1       8.664  -1.764  24.982  0.00  0.00    +0.050 A 
ATOM     14  C   UNL     1       7.642  -1.413  24.103  0.00  0.00    +0.129 A 
ATOM     15  C   UNL     1       6.818  -2.433  23.597  0.00  0.00    +0.053 A 
BRANCH  10  17
ATOM     16  C   UNL     1       4.801  -4.623  22.928  0.00  0.00    +0.012 C 
ATOM     17  C   UNL     1       6.254  -4.915  23.296  0.00  0.00    +0.017 C 
ATOM     18  C   UNL     1       7.069  -5.310  22.058  0.00  0.00    +0.012 C 
ENDBRANCH  10  17
BRANCH  11  19
ATOM     19  O   UNL     1       7.963  -5.309  25.550  0.00  0.00    -0.506 OA
ATOM     20  H   UNL     1       8.463  -5.280  26.382  0.00  0.00    +0.292 HD
ENDBRANCH  11  19
ENDBRANCH   9  14
ENDBRANCH   1   9
BRANCH   5  21
ATOM     21  C   UNL     1      11.470   3.848  23.310  0.00  0.00    +0.155 C 
BRANCH  21  22
ATOM     22  C   UNL     1      11.268   5.329  23.538  0.00  0.00    +0.309 C 
ATOM     23  O   UNL     1      12.039   5.984  24.215  0.00  0.00    -0.251 OA
BRANCH  22  24
ATOM     24  O   UNL     1      10.165   5.892  23.007  0.00  0.00    -0.480 OA
ATOM     25  H   UNL     1       9.974   6.787  23.337  0.00  0.00    +0.295 HD
ENDBRANCH  22  24
ENDBRANCH  21  22
ENDBRANCH   5  21
TORSDOF 7
ENDMDL
MODEL 4
REMARK VINA RESULT:      -6.4      2.205      3.596
REMARK  Name = 
REMARK  9 active torsions:
REMARK  status: ('A' for Active; 'I' for Inactive)
REMARK    1  A    between atoms: C_1  and  C_2
REMARK    2  A    between atoms: C_2  and  C_3
REMARK    3  A    between atoms: C_2  and  C_4
REMARK    4  A    between atoms: C_6  and  O_7
REMARK    5  A    between atoms: O_7  and  C_8
REMARK    6  A    between atoms: C_12  and  C_13
REMARK    7  A    between atoms: C_13  and  C_14
REMARK    8  A    between atoms: C_14  and  O_15
REMARK    9  A    between atoms: C_22  and  O_23
REMARK                            x       y       z     vdW  Elec       q    Type
REMARK                         _______ _______ _______ _____ _____    ______ ____
ROOT
ATOM      1  C   UNL     1       9.460  -0.590  24.672  0.00  0.00    +0.165 A 
ATOM      2  C   UNL     1       8.431  -0.813  25.608  0.00  0.00    +0.085 A 
ATOM      3 CL   UNL     1       7.737   0.497  26.506  0.00  0.00    -0.080 Cl
ATOM      4  C   UNL     1       7.854  -2.089  25.785  0.00  0.00    +0.028 A 
ATOM      5  C   UNL     1       8.317  -3.186  25.049  0.00  0.00    -0.034 A 
ATOM      6  C   UNL     1       9.345  -2.968  24.126  0.00  0.00    +0.028 A 
ATOM      7  C   UNL     1       9.823  -1.673  23.860  0.00  0.00    +0.085 A 
ATOM      8 CL   UNL     1      10.663  -1.506  22.351  0.00  0.00    -0.080 Cl
ENDROOT
BRANCH   1   9
ATOM      9  O   UNL     1       9.913   0.709  24.548  0.00  0.00    -0.453 OA
BRANCH   9  14
ATOM     10  C   UNL     1       8.812   4.052  23.495  0.00  0.00    +0.000 A 
ATOM     11  C   UNL     1       7.960   3.736  22.431  0.00  0.00    +0.120 A 
ATOM     12  C   UNL     1       7.853   2.429  21.967  0.00  0.00    +0.049 A 
ATOM     13  C   UNL     1       8.591   1.411  22.573  0.00  0.00    +0.050 A 
ATOM     14  C   UNL     1       9.297   1.655  23.749  0.00  0.00    +0.129 A 
ATOM     15  C   UNL     1       9.433   2.985  24.182  0.00  0.00    +0.053 A 
BRANCH  10  17
ATOM     16  C   UNL     1       8.560   6.030  25.105  0.00  0.00    +0.012 C 
ATOM     17  C   UNL     1       9.154   5.504  23.800  0.00  0.00    +0.017 C 
ATOM     18  C   UNL     1      10.678   5.677  23.778  0.00  0.00    +0.012 C 
ENDBRANCH  10  17
BRANCH  11  19
ATOM     19  O   UNL     1       7.253   4.729  21.815  0.00  0.00    -0.506 OA
ATOM     20  H   UNL     1       7.438   5.572  22.259  0.00  0.00    +0.292 HD
ENDBRANCH  11  19
ENDBRANCH   9  14
ENDBRANCH   1   9
BRANCH   5  21
ATOM     21  C   UNL     1       7.611  -4.526  25.063  0.00  0.00    +0.155 C 
BRANCH  21  22
ATOM     22  C   UNL     1       7.578  -5.354  26.327  0.00  0.00    +0.309 C 
ATOM     23  O   UNL     1       6.620  -6.049  26.613  0.00  0.00    -0.251 OA
BRANCH  22  24
ATOM     24  O   UNL     1       8.631  -5.253  27.162  0.00  0.00    -0.480 OA
ATOM     25  H   UNL     1       8.428  -4.828  28.012  0.00  0.00    +0.295 HD
ENDBRANCH  22  24
ENDBRANCH  21  22
ENDBRANCH   5  21
TORSDOF 7
ENDMDL
MODEL 5
REMARK VINA RESULT:      -6.3      3.198      4.415
REMARK  Name = 
REMARK  9 active torsions:
REMARK  status: ('A' for Active; 'I' for Inactive)
REMARK    1  A    between atoms: C_1  and  C_2
REMARK    2  A    between atoms: C_2  and  C_3
REMARK    3  A    between atoms: C_2  and  C_4
REMARK    4  A    between atoms: C_6  and  O_7
REMARK    5  A    between atoms: O_7  and  C_8
REMARK    6  A    between atoms: C_12  and  C_13
REMARK    7  A    between atoms: C_13  and  C_14
REMARK    8  A    between atoms: C_14  and  O_15
REMARK    9  A    between atoms: C_22  and  O_23
REMARK                            x       y       z     vdW  Elec       q    Type
REMARK                         _______ _______ _______ _____ _____    ______ ____
ROOT
ATOM      1  C   UNL     1       9.286  -1.301  24.145  0.00  0.00    +0.165 A 
ATOM      2  C   UNL     1       8.451  -1.973  25.060  0.00  0.00    +0.085 A 
ATOM      3 CL   UNL     1       8.471  -1.576  26.748  0.00  0.00    -0.080 Cl
ATOM      4  C   UNL     1       7.499  -2.923  24.636  0.00  0.00    +0.028 A 
ATOM      5  C   UNL     1       7.378  -3.252  23.281  0.00  0.00    -0.034 A 
ATOM      6  C   UNL     1       8.212  -2.593  22.371  0.00  0.00    +0.028 A 
ATOM      7  C   UNL     1       9.064  -1.554  22.784  0.00  0.00    +0.085 A 
ATOM      8 CL   UNL     1       9.592  -0.499  21.511  0.00  0.00    -0.080 Cl
ENDROOT
BRANCH   1   9
ATOM      9  O   UNL     1      10.144  -0.354  24.668  0.00  0.00    -0.453 OA
BRANCH   9  14
ATOM     10  C   UNL     1       8.567   2.960  24.503  0.00  0.00    +0.000 A 
ATOM     11  C   UNL     1       9.504   3.671  23.745  0.00  0.00    +0.120 A 
ATOM     12  C   UNL     1      10.725   3.099  23.404  0.00  0.00    +0.049 A 
ATOM     13  C   UNL     1      11.023   1.796  23.806  0.00  0.00    +0.050 A 
ATOM     14  C   UNL     1      10.044   0.997  24.392  0.00  0.00    +0.129 A 
ATOM     15  C   UNL     1       8.832   1.598  24.770  0.00  0.00    +0.053 A 
BRANCH  10  17
ATOM     16  C   UNL     1       6.062   3.489  24.371  0.00  0.00    +0.012 C 
ATOM     17  C   UNL     1       7.377   3.678  25.124  0.00  0.00    +0.017 C 
ATOM     18  C   UNL     1       7.240   3.249  26.590  0.00  0.00    +0.012 C 
ENDBRANCH  10  17
BRANCH  11  19
ATOM     19  O   UNL     1       9.232   4.955  23.368  0.00  0.00    -0.506 OA
ATOM     20  H   UNL     1       8.315   5.006  23.056  0.00  0.00    +0.292 HD
ENDBRANCH  11  19
ENDBRANCH   9  14
ENDBRANCH   1   9
BRANCH   5  21
ATOM     21  C   UNL     1       6.253  -4.118  22.754  0.00  0.00    +0.155 C 
BRANCH  21  22
ATOM     22  C   UNL     1       6.550  -5.246  21.793  0.00  0.00    +0.309 C 
ATOM     23  O   UNL     1       7.345  -6.127  22.065  0.00  0.00    -0.251 OA
BRANCH  22  24
ATOM     24  O   UNL     1       5.941  -5.213  20.591  0.00  0.00    -0.480 OA
ATOM     25  H   UNL     1       5.541  -4.355  20.368  0.00  0.00    +0.295 HD
ENDBRANCH  22  24
ENDBRANCH  21  22
ENDBRANCH   5  21
TORSDOF 7
ENDMDL
MODEL 6
REMARK VINA RESULT:      -6.3      1.820      2.150
REMARK  Name = 
REMARK  9 active torsions:
REMARK  status: ('A' for Active; 'I' for Inactive)
REMARK    1  A    between atoms: C_1  and  C_2
REMARK    2  A    between atoms: C_2  and  C_3
REMARK    3  A    between atoms: C_2  and  C_4
REMARK    4  A    between atoms: C_6  and  O_7
REMARK    5  A    between atoms: O_7  and  C_8
REMARK    6  A    between atoms: C_12  and  C_13
REMARK    7  A    between atoms: C_13  and  C_14
REMARK    8  A    between atoms: C_14  and  O_15
REMARK    9  A    between atoms: C_22  and  O_23
REMARK                            x       y       z     vdW  Elec       q    Type
REMARK                         _______ _______ _______ _____ _____    ______ ____
ROOT
ATOM      1  C   UNL     1       6.709  -2.481  24.164  0.00  0.00    +0.165 A 
ATOM      2  C   UNL     1       6.993  -3.815  23.813  0.00  0.00    +0.085 A 
ATOM      3 CL   UNL     1       7.248  -4.273  22.160  0.00  0.00    -0.080 Cl
ATOM      4  C   UNL     1       7.179  -4.816  24.791  0.00  0.00    +0.028 A 
ATOM      5  C   UNL     1       7.052  -4.511  26.151  0.00  0.00    -0.034 A 
ATOM      6  C   UNL     1       6.761  -3.188  26.501  0.00  0.00    +0.028 A 
ATOM      7  C   UNL     1       6.709  -2.173  25.531  0.00  0.00    +0.085 A 
ATOM      8 CL   UNL     1       6.892  -0.563  26.155  0.00  0.00    -0.080 Cl
ENDROOT
BRANCH   1   9
ATOM      9  O   UNL     1       6.599  -1.577  23.125  0.00  0.00    -0.453 OA
BRANCH   9  14
ATOM     10  C   UNL     1       8.254   1.666  22.636  0.00  0.00    +0.000 A 
ATOM     11  C   UNL     1       9.400   1.283  21.930  0.00  0.00    +0.120 A 
ATOM     12  C   UNL     1       9.701  -0.061  21.734  0.00  0.00    +0.049 A 
ATOM     13  C   UNL     1       8.848  -1.047  22.232  0.00  0.00    +0.050 A 
ATOM     14  C   UNL     1       7.609  -0.704  22.768  0.00  0.00    +0.129 A 
ATOM     15  C   UNL     1       7.336   0.655  23.000  0.00  0.00    +0.053 A 
BRANCH  10  17
ATOM     16  C   UNL     1       7.219   3.968  22.191  0.00  0.00    +0.012 C 
ATOM     17  C   UNL     1       8.085   3.104  23.105  0.00  0.00    +0.017 C 
ATOM     18  C   UNL     1       7.544   3.104  24.540  0.00  0.00    +0.012 C 
ENDBRANCH  10  17
BRANCH  11  19
ATOM     19  O   UNL     1      10.254   2.240  21.460  0.00  0.00    -0.506 OA
ATOM     20  H   UNL     1      10.800   1.858  20.754  0.00  0.00    +0.292 HD
ENDBRANCH  11  19
ENDBRANCH   9  14
ENDBRANCH   1   9
BRANCH   5  21
ATOM     21  C   UNL     1       7.424  -5.496  27.240  0.00  0.00    +0.155 C 
BRANCH  21  22
ATOM     22  C   UNL     1       6.361  -6.046  28.163  0.00  0.00    +0.309 C 
ATOM     23  O   UNL     1       5.648  -6.977  27.835  0.00  0.00    -0.251 OA
BRANCH  22  24
ATOM     24  O   UNL     1       6.189  -5.428  29.348  0.00  0.00    -0.480 OA
ATOM     25  H   UNL     1       5.316  -5.015  29.462  0.00  0.00    +0.295 HD
ENDBRANCH  22  24
ENDBRANCH  21  22
ENDBRANCH   5  21
TORSDOF 7
ENDMDL
MODEL 7
REMARK VINA RESULT:      -6.3      3.198      8.243
REMARK  Name = 
REMARK  9 active torsions:
REMARK  status: ('A' for Active; 'I' for Inactive)
REMARK    1  A    between atoms: C_1  and  C_2
REMARK    2  A    between atoms: C_2  and  C_3
REMARK    3  A    between atoms: C_2  and  C_4
REMARK    4  A    between atoms: C_6  and  O_7
REMARK    5  A    between atoms: O_7  and  C_8
REMARK    6  A    between atoms: C_12  and  C_13
REMARK    7  A    between atoms: C_13  and  C_14
REMARK    8  A    between atoms: C_14  and  O_15
REMARK    9  A    between atoms: C_22  and  O_23
REMARK                            x       y       z     vdW  Elec       q    Type
REMARK                         _______ _______ _______ _____ _____    ______ ____
ROOT
ATOM      1  C   UNL     1       8.802   1.608  24.783  0.00  0.00    +0.165 A 
ATOM      2  C   UNL     1       8.073   2.809  24.901  0.00  0.00    +0.085 A 
ATOM      3 CL   UNL     1       6.551   2.855  25.729  0.00  0.00    -0.080 Cl
ATOM      4  C   UNL     1       8.590   4.038  24.440  0.00  0.00    +0.028 A 
ATOM      5  C   UNL     1       9.842   4.094  23.817  0.00  0.00    -0.034 A 
ATOM      6  C   UNL     1      10.563   2.902  23.691  0.00  0.00    +0.028 A 
ATOM      7  C   UNL     1      10.103   1.707  24.269  0.00  0.00    +0.085 A 
ATOM      8 CL   UNL     1      11.324   0.497  24.506  0.00  0.00    -0.080 Cl
ENDROOT
BRANCH   1   9
ATOM      9  O   UNL     1       8.220   0.475  25.316  0.00  0.00    -0.453 OA
BRANCH   9  14
ATOM     10  C   UNL     1       8.134  -3.111  24.526  0.00  0.00    +0.000 A 
ATOM     11  C   UNL     1       7.706  -3.087  23.195  0.00  0.00    +0.120 A 
ATOM     12  C   UNL     1       7.310  -1.896  22.595  0.00  0.00    +0.049 A 
ATOM     13  C   UNL     1       7.350  -0.703  23.318  0.00  0.00    +0.050 A 
ATOM     14  C   UNL     1       7.949  -0.659  24.576  0.00  0.00    +0.129 A 
ATOM     15  C   UNL     1       8.304  -1.874  25.187  0.00  0.00    +0.053 A 
BRANCH  10  17
ATOM     16  C   UNL     1       9.708  -4.961  25.347  0.00  0.00    +0.012 C 
ATOM     17  C   UNL     1       8.276  -4.435  25.264  0.00  0.00    +0.017 C 
ATOM     18  C   UNL     1       7.655  -4.303  26.660  0.00  0.00    +0.012 C 
ENDBRANCH  10  17
BRANCH  11  19
ATOM     19  O   UNL     1       7.639  -4.253  22.486  0.00  0.00    -0.506 OA
ATOM     20  H   UNL     1       7.331  -4.059  21.586  0.00  0.00    +0.292 HD
ENDBRANCH  11  19
ENDBRANCH   9  14
ENDBRANCH   1   9
BRANCH   5  21
ATOM     21  C   UNL     1      10.520   5.404  23.476  0.00  0.00    +0.155 C 
BRANCH  21  22
ATOM     22  C   UNL     1      12.018   5.455  23.279  0.00  0.00    +0.309 C 
ATOM     23  O   UNL     1      12.779   5.670  24.204  0.00  0.00    -0.251 OA
BRANCH  22  24
ATOM     24  O   UNL     1      12.482   5.310  22.022  0.00  0.00    -0.480 OA
ATOM     25  H   UNL     1      12.300   6.066  21.438  0.00  0.00    +0.295 HD
ENDBRANCH  22  24
ENDBRANCH  21  22
ENDBRANCH   5  21
TORSDOF 7
ENDMDL
MODEL 8
REMARK VINA RESULT:      -6.3      3.223      7.908
REMARK  Name = 
REMARK  9 active torsions:
REMARK  status: ('A' for Active; 'I' for Inactive)
REMARK    1  A    between atoms: C_1  and  C_2
REMARK    2  A    between atoms: C_2  and  C_3
REMARK    3  A    between atoms: C_2  and  C_4
REMARK    4  A    between atoms: C_6  and  O_7
REMARK    5  A    between atoms: O_7  and  C_8
REMARK    6  A    between atoms: C_12  and  C_13
REMARK    7  A    between atoms: C_13  and  C_14
REMARK    8  A    between atoms: C_14  and  O_15
REMARK    9  A    between atoms: C_22  and  O_23
REMARK                            x       y       z     vdW  Elec       q    Type
REMARK                         _______ _______ _______ _____ _____    ______ ____
ROOT
ATOM      1  C   UNL     1       7.883   0.524  23.600  0.00  0.00    +0.165 A 
ATOM      2  C   UNL     1       8.704   1.283  22.743  0.00  0.00    +0.085 A 
ATOM      3 CL   UNL     1       9.104   0.718  21.153  0.00  0.00    -0.080 Cl
ATOM      4  C   UNL     1       9.155   2.572  23.098  0.00  0.00    +0.028 A 
ATOM      5  C   UNL     1       8.821   3.125  24.340  0.00  0.00    -0.034 A 
ATOM      6  C   UNL     1       8.013   2.369  25.196  0.00  0.00    +0.028 A 
ATOM      7  C   UNL     1       7.459   1.145  24.783  0.00  0.00    +0.085 A 
ATOM      8 CL   UNL     1       6.083   0.624  25.704  0.00  0.00    -0.080 Cl
ENDROOT
BRANCH   1   9
ATOM      9  O   UNL     1       7.459  -0.702  23.127  0.00  0.00    -0.453 OA
BRANCH   9  14
ATOM     10  C   UNL     1       7.747  -4.335  23.591  0.00  0.00    +0.000 A 
ATOM     11  C   UNL     1       8.957  -4.426  24.287  0.00  0.00    +0.120 A 
ATOM     12  C   UNL     1       9.752  -3.302  24.484  0.00  0.00    +0.049 A 
ATOM     13  C   UNL     1       9.339  -2.060  23.997  0.00  0.00    +0.050 A 
ATOM     14  C   UNL     1       8.059  -1.898  23.472  0.00  0.00    +0.129 A 
ATOM     15  C   UNL     1       7.284  -3.047  23.238  0.00  0.00    +0.053 A 
BRANCH  10  17
ATOM     16  C   UNL     1       5.614  -5.755  23.652  0.00  0.00    +0.012 C 
ATOM     17  C   UNL     1       7.035  -5.595  23.118  0.00  0.00    +0.017 C 
ATOM     18  C   UNL     1       7.058  -5.641  21.585  0.00  0.00    +0.012 C 
ENDBRANCH  10  17
BRANCH  11  19
ATOM     19  O   UNL     1       9.382  -5.640  24.746  0.00  0.00    -0.506 OA
ATOM     20  H   UNL     1       9.946  -5.505  25.524  0.00  0.00    +0.292 HD
ENDBRANCH  11  19
ENDBRANCH   9  14
ENDBRANCH   1   9
BRANCH   5  21
ATOM     21  C   UNL     1       9.118   4.568  24.691  0.00  0.00    +0.155 C 
BRANCH  21  22
ATOM     22  C   UNL     1       9.966   5.414  23.769  0.00  0.00    +0.309 C 
ATOM     23  O   UNL     1      11.180   5.445  23.863  0.00  0.00    -0.251 OA
BRANCH  22  24
ATOM     24  O   UNL     1       9.323   6.184  22.869  0.00  0.00    -0.480 OA
ATOM     25  H   UNL     1       8.436   6.468  23.146  0.00  0.00    +0.295 HD
ENDBRANCH  22  24
ENDBRANCH  21  22
ENDBRANCH   5  21
TORSDOF 7
ENDMDL
MODEL 9
REMARK VINA RESULT:      -6.2      1.976      2.860
REMARK  Name = 
REMARK  9 active torsions:
REMARK  status: ('A' for Active; 'I' for Inactive)
REMARK    1  A    between atoms: C_1  and  C_2
REMARK    2  A    between atoms: C_2  and  C_3
REMARK    3  A    between atoms: C_2  and  C_4
REMARK    4  A    between atoms: C_6  and  O_7
REMARK    5  A    between atoms: O_7  and  C_8
REMARK    6  A    between atoms: C_12  and  C_13
REMARK    7  A    between atoms: C_13  and  C_14
REMARK    8  A    between atoms: C_14  and  O_15
REMARK    9  A    between atoms: C_22  and  O_23
REMARK                            x       y       z     vdW  Elec       q    Type
REMARK                         _______ _______ _______ _____ _____    ______ ____
ROOT
ATOM      1  C   UNL     1       6.705  -2.769  23.982  0.00  0.00    +0.165 A 
ATOM      2  C   UNL     1       6.193  -2.387  25.239  0.00  0.00    +0.085 A 
ATOM      3 CL   UNL     1       5.423  -0.850  25.463  0.00  0.00    -0.080 Cl
ATOM      4  C   UNL     1       6.196  -3.269  26.340  0.00  0.00    +0.028 A 
ATOM      5  C   UNL     1       6.743  -4.552  26.221  0.00  0.00    -0.034 A 
ATOM      6  C   UNL     1       7.260  -4.930  24.977  0.00  0.00    +0.028 A 
ATOM      7  C   UNL     1       7.134  -4.097  23.852  0.00  0.00    +0.085 A 
ATOM      8 CL   UNL     1       7.309  -4.906  22.326  0.00  0.00    -0.080 Cl
ENDROOT
BRANCH   1   9
ATOM      9  O   UNL     1       6.603  -1.842  22.964  0.00  0.00    -0.453 OA
BRANCH   9  14
ATOM     10  C   UNL     1       8.084   1.468  22.372  0.00  0.00    +0.000 A 
ATOM     11  C   UNL     1       9.353   1.118  21.898  0.00  0.00    +0.120 A 
ATOM     12  C   UNL     1       9.775  -0.208  21.903  0.00  0.00    +0.049 A 
ATOM     13  C   UNL     1       8.924  -1.210  22.372  0.00  0.00    +0.050 A 
ATOM     14  C   UNL     1       7.593  -0.924  22.670  0.00  0.00    +0.129 A 
ATOM     15  C   UNL     1       7.192   0.423  22.703  0.00  0.00    +0.053 A 
BRANCH  10  17
ATOM     16  C   UNL     1       6.293   3.301  22.338  0.00  0.00    +0.012 C 
ATOM     17  C   UNL     1       7.740   2.925  22.645  0.00  0.00    +0.017 C 
ATOM     18  C   UNL     1       8.103   3.264  24.097  0.00  0.00    +0.012 C 
ENDBRANCH  10  17
BRANCH  11  19
ATOM     19  O   UNL     1      10.202   2.094  21.460  0.00  0.00    -0.506 OA
ATOM     20  H   UNL     1      10.378   2.711  22.188  0.00  0.00    +0.292 HD
ENDBRANCH  11  19
ENDBRANCH   9  14
ENDBRANCH   1   9
BRANCH   5  21
ATOM     21  C   UNL     1       6.602  -5.597  27.308  0.00  0.00    +0.155 C 
BRANCH  21  22
ATOM     22  C   UNL     1       5.379  -6.485  27.354  0.00  0.00    +0.309 C 
ATOM     23  O   UNL     1       4.409  -6.275  26.649  0.00  0.00    -0.251 OA
BRANCH  22  24
ATOM     24  O   UNL     1       5.377  -7.491  28.249  0.00  0.00    -0.480 OA
ATOM     25  H   UNL     1       5.609  -8.359  27.877  0.00  0.00    +0.295 HD
ENDBRANCH  22  24
ENDBRANCH  21  22
ENDBRANCH   5  21
TORSDOF 7
ENDMDL
