MODEL 1
REMARK VINA RESULT:      -6.6      0.000      0.000
REMARK  Name = 
REMARK  3 active torsions:
REMARK  status: ('A' for Active; 'I' for Inactive)
REMARK    1  A    between atoms: C_1  and  N_2
REMARK    2  A    between atoms: C_4  and  C_5
REMARK    3  A    between atoms: N_8  and  O_9
REMARK                            x       y       z     vdW  Elec       q    Type
REMARK                         _______ _______ _______ _____ _____    ______ ____
ROOT
ATOM      1  C   UNL     1      11.333   4.939  23.399  0.00  0.00    +0.174 C 
ATOM      2  N   UNL     1      10.145   4.260  23.855  0.00  0.00    -0.248 N 
ATOM      3  C   UNL     1       9.791   2.940  23.769  0.00  0.00    +0.178 A 
ATOM      4  N   UNL     1      10.207   2.004  22.873  0.00  0.00    -0.166 N 
ATOM      5  C   UNL     1       9.833   0.642  23.157  0.00  0.00    +0.093 A 
ATOM      6  C   UNL     1      10.163  -0.402  22.272  0.00  0.00    +0.031 A 
ATOM      7  C   UNL     1       9.992  -1.737  22.662  0.00  0.00    +0.022 A 
ATOM      8  C   UNL     1       9.523  -2.037  23.944  0.00  0.00    +0.042 A 
ATOM      9 CL   UNL     1       9.480  -3.675  24.470  0.00  0.00    -0.084 Cl
ATOM     10  C   UNL     1       9.087  -1.023  24.792  0.00  0.00    +0.034 A 
ATOM     11  C   UNL     1       9.176   0.305  24.366  0.00  0.00    +0.051 A 
ATOM     12  C   UNL     1       8.503   1.395  25.149  0.00  0.00    +0.201 A 
ATOM     13  O   UNL     1       7.691   1.139  26.032  0.00  0.00    -0.286 OA
ATOM     14  C   UNL     1       8.882   2.735  24.776  0.00  0.00    +0.090 A 
ATOM     15  C   UNL     1       8.391   4.031  25.018  0.00  0.00    +0.073 A 
ATOM     16  C   UNL     1       7.043   4.454  25.452  0.00  0.00    +0.068 C 
ATOM     17  N   UNL     1       9.242   4.965  24.569  0.00  0.00    -0.174 NA
ENDROOT
BRANCH   4  18
ATOM     18  O   UNL     1      10.322   2.395  21.547  0.00  0.00    -0.425 OA
ATOM     19  H   UNL     1      11.281   2.570  21.458  0.00  0.00    +0.326 HD
ENDBRANCH   4  18
TORSDOF 1
ENDMDL
MODEL 2
REMARK VINA RESULT:      -6.5      3.499      5.709
REMARK  Name = 
REMARK  3 active torsions:
REMARK  status: ('A' for Active; 'I' for Inactive)
REMARK    1  A    between atoms: C_1  and  N_2
REMARK    2  A    between atoms: C_4  and  C_5
REMARK    3  A    between atoms: N_8  and  O_9
REMARK                            x       y       z     vdW  Elec       q    Type
REMARK                         _______ _______ _______ _____ _____    ______ ____
ROOT
ATOM      1  C   UNL     1       6.940  -3.898  21.900  0.00  0.00    +0.174 C 
ATOM      2  N   UNL     1       7.687  -3.424  23.040  0.00  0.00    -0.248 N 
ATOM      3  C   UNL     1       8.331  -2.233  23.243  0.00  0.00    +0.178 A 
ATOM      4  N   UNL     1       8.834  -1.369  22.320  0.00  0.00    -0.166 N 
ATOM      5  C   UNL     1       9.267  -0.088  22.818  0.00  0.00    +0.093 A 
ATOM      6  C   UNL     1       9.853   0.865  21.962  0.00  0.00    +0.031 A 
ATOM      7  C   UNL     1      10.065   2.176  22.407  0.00  0.00    +0.022 A 
ATOM      8  C   UNL     1       9.666   2.552  23.693  0.00  0.00    +0.042 A 
ATOM      9 CL   UNL     1       9.774   4.202  24.167  0.00  0.00    -0.084 Cl
ATOM     10  C   UNL     1       9.189   1.600  24.590  0.00  0.00    +0.034 A 
ATOM     11  C   UNL     1       9.062   0.274  24.172  0.00  0.00    +0.051 A 
ATOM     12  C   UNL     1       8.781  -0.809  25.173  0.00  0.00    +0.201 A 
ATOM     13  O   UNL     1       8.876  -0.605  26.379  0.00  0.00    -0.286 OA
ATOM     14  C   UNL     1       8.405  -2.080  24.605  0.00  0.00    +0.090 A 
ATOM     15  C   UNL     1       8.284  -3.402  25.070  0.00  0.00    +0.073 A 
ATOM     16  C   UNL     1       8.885  -4.031  26.266  0.00  0.00    +0.068 C 
ATOM     17  N   UNL     1       7.714  -4.192  24.149  0.00  0.00    -0.174 NA
ENDROOT
BRANCH   4  18
ATOM     18  O   UNL     1       9.495  -1.912  21.229  0.00  0.00    -0.425 OA
ATOM     19  H   UNL     1      10.193  -2.454  21.649  0.00  0.00    +0.326 HD
ENDBRANCH   4  18
TORSDOF 1
ENDMDL
MODEL 3
REMARK VINA RESULT:      -6.3      3.127      4.416
REMARK  Name = 
REMARK  3 active torsions:
REMARK  status: ('A' for Active; 'I' for Inactive)
REMARK    1  A    between atoms: C_1  and  N_2
REMARK    2  A    between atoms: C_4  and  C_5
REMARK    3  A    between atoms: N_8  and  O_9
REMARK                            x       y       z     vdW  Elec       q    Type
REMARK                         _______ _______ _______ _____ _____    ______ ____
ROOT
ATOM      1  C   UNL     1       7.499   2.450  22.177  0.00  0.00    +0.174 C 
ATOM      2  N   UNL     1       8.249   1.411  22.839  0.00  0.00    -0.248 N 
ATOM      3  C   UNL     1       7.952   0.089  23.031  0.00  0.00    +0.178 A 
ATOM      4  N   UNL     1       6.731  -0.512  23.069  0.00  0.00    -0.166 N 
ATOM      5  C   UNL     1       6.731  -1.953  23.071  0.00  0.00    +0.093 A 
ATOM      6  C   UNL     1       5.529  -2.680  23.163  0.00  0.00    +0.031 A 
ATOM      7  C   UNL     1       5.523  -4.064  22.942  0.00  0.00    +0.022 A 
ATOM      8  C   UNL     1       6.707  -4.722  22.599  0.00  0.00    +0.042 A 
ATOM      9 CL   UNL     1       6.658  -6.386  22.164  0.00  0.00    -0.084 Cl
ATOM     10  C   UNL     1       7.923  -4.043  22.613  0.00  0.00    +0.034 A 
ATOM     11  C   UNL     1       7.937  -2.681  22.920  0.00  0.00    +0.051 A 
ATOM     12  C   UNL     1       9.240  -1.978  23.175  0.00  0.00    +0.201 A 
ATOM     13  O   UNL     1      10.281  -2.605  23.340  0.00  0.00    -0.286 OA
ATOM     14  C   UNL     1       9.157  -0.540  23.214  0.00  0.00    +0.090 A 
ATOM     15  C   UNL     1       9.992   0.512  23.636  0.00  0.00    +0.073 A 
ATOM     16  C   UNL     1      11.140   0.479  24.567  0.00  0.00    +0.068 C 
ATOM     17  N   UNL     1       9.492   1.703  23.279  0.00  0.00    -0.174 NA
ENDROOT
BRANCH   4  18
ATOM     18  O   UNL     1       5.714   0.150  23.740  0.00  0.00    -0.425 OA
ATOM     19  H   UNL     1       4.950   0.034  23.139  0.00  0.00    +0.326 HD
ENDBRANCH   4  18
TORSDOF 1
ENDMDL
MODEL 4
REMARK VINA RESULT:      -5.9      3.839      6.566
REMARK  Name = 
REMARK  3 active torsions:
REMARK  status: ('A' for Active; 'I' for Inactive)
REMARK    1  A    between atoms: C_1  and  N_2
REMARK    2  A    between atoms: C_4  and  C_5
REMARK    3  A    between atoms: N_8  and  O_9
REMARK                            x       y       z     vdW  Elec       q    Type
REMARK                         _______ _______ _______ _____ _____    ______ ____
ROOT
ATOM      1  C   UNL     1       8.295  -4.778  26.736  0.00  0.00    +0.174 C 
ATOM      2  N   UNL     1       8.087  -4.248  25.410  0.00  0.00    -0.248 N 
ATOM      3  C   UNL     1       8.228  -2.972  24.935  0.00  0.00    +0.178 A 
ATOM      4  N   UNL     1       8.155  -1.796  25.617  0.00  0.00    -0.166 N 
ATOM      5  C   UNL     1       8.558  -0.616  24.896  0.00  0.00    +0.093 A 
ATOM      6  C   UNL     1       8.473   0.660  25.485  0.00  0.00    +0.031 A 
ATOM      7  C   UNL     1       9.070   1.765  24.862  0.00  0.00    +0.022 A 
ATOM      8  C   UNL     1       9.778   1.597  23.669  0.00  0.00    +0.042 A 
ATOM      9 CL   UNL     1      10.649   2.924  23.005  0.00  0.00    -0.084 Cl
ATOM     10  C   UNL     1       9.779   0.368  23.015  0.00  0.00    +0.034 A 
ATOM     11  C   UNL     1       9.108  -0.711  23.594  0.00  0.00    +0.051 A 
ATOM     12  C   UNL     1       8.889  -1.973  22.810  0.00  0.00    +0.201 A 
ATOM     13  O   UNL     1       9.084  -2.014  21.599  0.00  0.00    -0.286 OA
ATOM     14  C   UNL     1       8.434  -3.100  23.585  0.00  0.00    +0.090 A 
ATOM     15  C   UNL     1       7.880  -4.363  23.307  0.00  0.00    +0.073 A 
ATOM     16  C   UNL     1       7.203  -4.839  22.081  0.00  0.00    +0.068 C 
ATOM     17  N   UNL     1       7.799  -5.113  24.415  0.00  0.00    -0.174 NA
ENDROOT
BRANCH   4  18
ATOM     18  O   UNL     1       7.164  -1.676  26.580  0.00  0.00    -0.425 OA
ATOM     19  H   UNL     1       6.372  -1.461  26.047  0.00  0.00    +0.326 HD
ENDBRANCH   4  18
TORSDOF 1
ENDMDL
MODEL 5
REMARK VINA RESULT:      -5.9      6.484      8.697
REMARK  Name = 
REMARK  3 active torsions:
REMARK  status: ('A' for Active; 'I' for Inactive)
REMARK    1  A    between atoms: C_1  and  N_2
REMARK    2  A    between atoms: C_4  and  C_5
REMARK    3  A    between atoms: N_8  and  O_9
REMARK                            x       y       z     vdW  Elec       q    Type
REMARK                         _______ _______ _______ _____ _____    ______ ____
ROOT
ATOM      1  C   UNL     1       9.034  -2.696  24.805  0.00  0.00    +0.174 C 
ATOM      2  N   UNL     1       8.252  -3.845  24.418  0.00  0.00    -0.248 N 
ATOM      3  C   UNL     1       7.456  -4.668  25.168  0.00  0.00    +0.178 A 
ATOM      4  N   UNL     1       7.521  -4.930  26.502  0.00  0.00    -0.166 N 
ATOM      5  C   UNL     1       6.418  -5.671  27.059  0.00  0.00    +0.093 A 
ATOM      6  C   UNL     1       6.404  -6.044  28.417  0.00  0.00    +0.031 A 
ATOM      7  C   UNL     1       5.238  -6.565  28.993  0.00  0.00    +0.022 A 
ATOM      8  C   UNL     1       4.074  -6.686  28.229  0.00  0.00    +0.042 A 
ATOM      9 CL   UNL     1       2.606  -7.164  28.988  0.00  0.00    -0.084 Cl
ATOM     10  C   UNL     1       4.097  -6.429  26.860  0.00  0.00    +0.034 A 
ATOM     11  C   UNL     1       5.286  -5.993  26.270  0.00  0.00    +0.051 A 
ATOM     12  C   UNL     1       5.410  -5.936  24.775  0.00  0.00    +0.201 A 
ATOM     13  O   UNL     1       4.579  -6.467  24.045  0.00  0.00    -0.286 OA
ATOM     14  C   UNL     1       6.565  -5.226  24.287  0.00  0.00    +0.090 A 
ATOM     15  C   UNL     1       7.232  -5.102  23.054  0.00  0.00    +0.073 A 
ATOM     16  C   UNL     1       7.188  -5.991  21.873  0.00  0.00    +0.068 C 
ATOM     17  N   UNL     1       8.177  -4.153  23.106  0.00  0.00    -0.174 NA
ENDROOT
BRANCH   4  18
ATOM     18  O   UNL     1       8.779  -5.098  27.061  0.00  0.00    -0.425 OA
ATOM     19  H   UNL     1       8.625  -4.885  28.004  0.00  0.00    +0.326 HD
ENDBRANCH   4  18
TORSDOF 1
ENDMDL
MODEL 6
REMARK VINA RESULT:      -5.9      4.646      6.768
REMARK  Name = 
REMARK  3 active torsions:
REMARK  status: ('A' for Active; 'I' for Inactive)
REMARK    1  A    between atoms: C_1  and  N_2
REMARK    2  A    between atoms: C_4  and  C_5
REMARK    3  A    between atoms: N_8  and  O_9
REMARK                            x       y       z     vdW  Elec       q    Type
REMARK                         _______ _______ _______ _____ _____    ______ ____
ROOT
ATOM      1  C   UNL     1       4.590  -5.083  23.321  0.00  0.00    +0.174 C 
ATOM      2  N   UNL     1       5.701  -4.788  24.193  0.00  0.00    -0.248 N 
ATOM      3  C   UNL     1       6.743  -3.914  24.036  0.00  0.00    +0.178 A 
ATOM      4  N   UNL     1       7.278  -3.427  22.884  0.00  0.00    -0.166 N 
ATOM      5  C   UNL     1       8.229  -2.354  23.027  0.00  0.00    +0.093 A 
ATOM      6  C   UNL     1       8.886  -1.810  21.907  0.00  0.00    +0.031 A 
ATOM      7  C   UNL     1       9.634  -0.631  22.033  0.00  0.00    +0.022 A 
ATOM      8  C   UNL     1       9.704   0.026  23.265  0.00  0.00    +0.042 A 
ATOM      9 CL   UNL     1      10.480   1.558  23.367  0.00  0.00    -0.084 Cl
ATOM     10  C   UNL     1       9.156  -0.554  24.406  0.00  0.00    +0.034 A 
ATOM     11  C   UNL     1       8.486  -1.775  24.294  0.00  0.00    +0.051 A 
ATOM     12  C   UNL     1       8.095  -2.536  25.528  0.00  0.00    +0.201 A 
ATOM     13  O   UNL     1       8.536  -2.234  26.632  0.00  0.00    -0.286 OA
ATOM     14  C   UNL     1       7.184  -3.631  25.304  0.00  0.00    +0.090 A 
ATOM     15  C   UNL     1       6.730  -4.739  26.042  0.00  0.00    +0.073 A 
ATOM     16  C   UNL     1       7.342  -5.393  27.218  0.00  0.00    +0.068 C 
ATOM     17  N   UNL     1       5.724  -5.363  25.414  0.00  0.00    -0.174 NA
ENDROOT
BRANCH   4  18
ATOM     18  O   UNL     1       7.436  -4.313  21.827  0.00  0.00    -0.425 OA
ATOM     19  H   UNL     1       6.635  -4.150  21.290  0.00  0.00    +0.326 HD
ENDBRANCH   4  18
TORSDOF 1
ENDMDL
MODEL 7
REMARK VINA RESULT:      -5.9      4.815      6.789
REMARK  Name = 
REMARK  3 active torsions:
REMARK  status: ('A' for Active; 'I' for Inactive)
REMARK    1  A    between atoms: C_1  and  N_2
REMARK    2  A    between atoms: C_4  and  C_5
REMARK    3  A    between atoms: N_8  and  O_9
REMARK                            x       y       z     vdW  Elec       q    Type
REMARK                         _______ _______ _______ _____ _____    ______ ____
ROOT
ATOM      1  C   UNL     1       6.206  -5.984  21.822  0.00  0.00    +0.174 C 
ATOM      2  N   UNL     1       5.863  -5.004  22.823  0.00  0.00    -0.248 N 
ATOM      3  C   UNL     1       6.594  -3.963  23.330  0.00  0.00    +0.178 A 
ATOM      4  N   UNL     1       7.946  -3.820  23.388  0.00  0.00    -0.166 N 
ATOM      5  C   UNL     1       8.433  -2.522  23.779  0.00  0.00    +0.093 A 
ATOM      6  C   UNL     1       9.812  -2.276  23.924  0.00  0.00    +0.031 A 
ATOM      7  C   UNL     1      10.281  -0.966  24.087  0.00  0.00    +0.022 A 
ATOM      8  C   UNL     1       9.383   0.105  24.074  0.00  0.00    +0.042 A 
ATOM      9 CL   UNL     1       9.984   1.717  24.103  0.00  0.00    -0.084 Cl
ATOM     10  C   UNL     1       8.010  -0.125  24.044  0.00  0.00    +0.034 A 
ATOM     11  C   UNL     1       7.541  -1.438  23.971  0.00  0.00    +0.051 A 
ATOM     12  C   UNL     1       6.083  -1.732  24.176  0.00  0.00    +0.201 A 
ATOM     13  O   UNL     1       5.318  -0.884  24.623  0.00  0.00    -0.286 OA
ATOM     14  C   UNL     1       5.675  -3.066  23.814  0.00  0.00    +0.090 A 
ATOM     15  C   UNL     1       4.542  -3.873  24.030  0.00  0.00    +0.073 A 
ATOM     16  C   UNL     1       3.490  -3.751  25.062  0.00  0.00    +0.068 C 
ATOM     17  N   UNL     1       4.604  -5.001  23.308  0.00  0.00    -0.174 NA
ENDROOT
BRANCH   4  18
ATOM     18  O   UNL     1       8.692  -4.938  23.732  0.00  0.00    -0.425 OA
ATOM     19  H   UNL     1       8.236  -5.260  24.536  0.00  0.00    +0.326 HD
ENDBRANCH   4  18
TORSDOF 1
ENDMDL
MODEL 8
REMARK VINA RESULT:      -5.8      2.620      4.202
REMARK  Name = 
REMARK  3 active torsions:
REMARK  status: ('A' for Active; 'I' for Inactive)
REMARK    1  A    between atoms: C_1  and  N_2
REMARK    2  A    between atoms: C_4  and  C_5
REMARK    3  A    between atoms: N_8  and  O_9
REMARK                            x       y       z     vdW  Elec       q    Type
REMARK                         _______ _______ _______ _____ _____    ______ ____
ROOT
ATOM      1  C   UNL     1       7.244   1.875  26.359  0.00  0.00    +0.174 C 
ATOM      2  N   UNL     1       8.048   1.355  25.280  0.00  0.00    -0.248 N 
ATOM      3  C   UNL     1       8.202   0.071  24.830  0.00  0.00    +0.178 A 
ATOM      4  N   UNL     1       8.024  -1.095  25.507  0.00  0.00    -0.166 N 
ATOM      5  C   UNL     1       8.048  -2.300  24.717  0.00  0.00    +0.093 A 
ATOM      6  C   UNL     1       7.928  -3.567  25.319  0.00  0.00    +0.031 A 
ATOM      7  C   UNL     1       7.731  -4.707  24.527  0.00  0.00    +0.022 A 
ATOM      8  C   UNL     1       7.621  -4.585  23.140  0.00  0.00    +0.042 A 
ATOM      9 CL   UNL     1       7.209  -5.964  22.196  0.00  0.00    -0.084 Cl
ATOM     10  C   UNL     1       7.848  -3.360  22.518  0.00  0.00    +0.034 A 
ATOM     11  C   UNL     1       8.132  -2.241  23.304  0.00  0.00    +0.051 A 
ATOM     12  C   UNL     1       8.611  -0.971  22.662  0.00  0.00    +0.201 A 
ATOM     13  O   UNL     1       8.974  -0.945  21.491  0.00  0.00    -0.286 OA
ATOM     14  C   UNL     1       8.613   0.183  23.526  0.00  0.00    +0.090 A 
ATOM     15  C   UNL     1       9.165   1.477  23.487  0.00  0.00    +0.073 A 
ATOM     16  C   UNL     1      10.292   1.989  22.677  0.00  0.00    +0.068 C 
ATOM     17  N   UNL     1       8.705   2.233  24.493  0.00  0.00    -0.174 NA
ENDROOT
BRANCH   4  18
ATOM     18  O   UNL     1       8.487  -1.153  26.814  0.00  0.00    -0.425 OA
ATOM     19  H   UNL     1       9.079  -1.932  26.796  0.00  0.00    +0.326 HD
ENDBRANCH   4  18
TORSDOF 1
ENDMDL
MODEL 9
REMARK VINA RESULT:      -5.7      3.094      5.817
REMARK  Name = 
REMARK  3 active torsions:
REMARK  status: ('A' for Active; 'I' for Inactive)
REMARK    1  A    between atoms: C_1  and  N_2
REMARK    2  A    between atoms: C_4  and  C_5
REMARK    3  A    between atoms: N_8  and  O_9
REMARK                            x       y       z     vdW  Elec       q    Type
REMARK                         _______ _______ _______ _____ _____    ______ ____
ROOT
ATOM      1  C   UNL     1       8.691  -1.708  26.577  0.00  0.00    +0.174 C 
ATOM      2  N   UNL     1       8.823  -1.088  25.281  0.00  0.00    -0.248 N 
ATOM      3  C   UNL     1       8.737   0.228  24.916  0.00  0.00    +0.178 A 
ATOM      4  N   UNL     1       8.080   1.243  25.540  0.00  0.00    -0.166 N 
ATOM      5  C   UNL     1       8.342   2.571  25.046  0.00  0.00    +0.093 A 
ATOM      6  C   UNL     1       7.678   3.691  25.580  0.00  0.00    +0.031 A 
ATOM      7  C   UNL     1       8.100   4.986  25.248  0.00  0.00    +0.022 A 
ATOM      8  C   UNL     1       9.203   5.169  24.410  0.00  0.00    +0.042 A 
ATOM      9 CL   UNL     1       9.816   6.755  24.148  0.00  0.00    -0.084 Cl
ATOM     10  C   UNL     1       9.803   4.079  23.784  0.00  0.00    +0.034 A 
ATOM     11  C   UNL     1       9.323   2.794  24.048  0.00  0.00    +0.051 A 
ATOM     12  C   UNL     1       9.785   1.632  23.218  0.00  0.00    +0.201 A 
ATOM     13  O   UNL     1      10.402   1.799  22.171  0.00  0.00    -0.286 OA
ATOM     14  C   UNL     1       9.440   0.334  23.743  0.00  0.00    +0.090 A 
ATOM     15  C   UNL     1       9.425  -0.985  23.255  0.00  0.00    +0.073 A 
ATOM     16  C   UNL     1       9.404  -1.465  21.856  0.00  0.00    +0.068 C 
ATOM     17  N   UNL     1       9.180  -1.864  24.236  0.00  0.00    -0.174 NA
ENDROOT
BRANCH   4  18
ATOM     18  O   UNL     1       6.822   0.968  26.057  0.00  0.00    -0.425 OA
ATOM     19  H   UNL     1       6.652   1.743  26.630  0.00  0.00    +0.326 HD
ENDBRANCH   4  18
TORSDOF 1
ENDMDL
