MODEL 1
REMARK VINA RESULT:      -7.0      0.000      0.000
REMARK  Name = 
REMARK  10 active torsions:
REMARK  status: ('A' for Active; 'I' for Inactive)
REMARK    1  A    between atoms: C_5  and  C_6
REMARK    2  A    between atoms: C_6  and  O_7
REMARK    3  A    between atoms: O_7  and  C_8
REMARK    4  A    between atoms: C_11  and  C_27
REMARK    5  A    between atoms: C_15  and  N_16
REMARK    6  A    between atoms: C_15  and  O_25
REMARK    7  A    between atoms: C_17  and  C_19
REMARK    8  A    between atoms: C_19  and  C_20
REMARK    9  A    between atoms: O_25  and  C_26
REMARK   10  A    between atoms: C_27  and  O_28
REMARK                            x       y       z     vdW  Elec       q    Type
REMARK                         _______ _______ _______ _____ _____    ______ ____
ROOT
ATOM      1  C   UNL     1       8.117  -1.441  25.819  0.00  0.00    +0.199 C 
ATOM      2  C   UNL     1       8.915  -0.622  24.704  0.00  0.00    +0.242 C 
ATOM      3  C   UNL     1       9.433  -2.072  24.308  0.00  0.00    +0.275 C 
ATOM      4  O   UNL     1      10.103  -2.584  23.438  0.00  0.00    -0.270 OA
ATOM      5  N   UNL     1       8.828  -2.640  25.378  0.00  0.00    -0.244 N 
ATOM      6  C   UNL     1       8.459  -3.940  25.651  0.00  0.00    +0.125 C 
ATOM      7  C   UNL     1       7.278  -4.203  26.282  0.00  0.00    +0.006 C 
ATOM      8  C   UNL     1       6.270  -3.129  26.636  0.00  0.00    +0.107 C 
ATOM      9  S   UNL     1       6.337  -1.718  25.523  0.00  0.00    -0.128 S 
ENDROOT
BRANCH   2  10
ATOM     10  N   UNL     1       8.069   0.047  23.676  0.00  0.00    -0.278 N 
ATOM     11  H   UNL     1       8.009  -0.332  22.737  0.00  0.00    +0.152 HD
ATOM     12  C   UNL     1       7.388   1.209  23.974  0.00  0.00    +0.220 C 
ATOM     13  O   UNL     1       7.502   1.788  25.052  0.00  0.00    -0.275 OA
BRANCH  12  14
ATOM     14  C   UNL     1       6.455   1.696  22.884  0.00  0.00    +0.138 C 
BRANCH  14  15
ATOM     15  C   UNL     1       6.532   3.183  22.790  0.00  0.00    -0.001 A 
ATOM     16  S   UNL     1       5.249   4.155  23.376  0.00  0.00    -0.101 S 
ATOM     17  C   UNL     1       6.081   5.595  22.984  0.00  0.00    +0.045 A 
ATOM     18  C   UNL     1       7.300   5.345  22.394  0.00  0.00    +0.008 A 
ATOM     19  C   UNL     1       7.555   3.951  22.271  0.00  0.00    +0.011 A 
ENDBRANCH  14  15
ENDBRANCH  12  14
ENDBRANCH   2  10
BRANCH   2  20
ATOM     20  O   UNL     1       9.999   0.225  25.183  0.00  0.00    -0.349 OA
ATOM     21  C   UNL     1      10.934   0.670  24.204  0.00  0.00    +0.197 C 
ENDBRANCH   2  20
BRANCH   6  22
ATOM     22  C   UNL     1       9.365  -5.089  25.224  0.00  0.00    +0.351 C 
ATOM     23  O   UNL     1       9.207  -5.742  24.207  0.00  0.00    -0.244 OA
BRANCH  22  24
ATOM     24  O   UNL     1      10.322  -5.440  26.106  0.00  0.00    -0.476 OA
ATOM     25  H   UNL     1      10.122  -6.246  26.627  0.00  0.00    +0.295 HD
ENDBRANCH  22  24
ENDBRANCH   6  22
BRANCH   7  26
ATOM     26  C   UNL     1       6.763  -5.605  26.606  0.00  0.00    +0.268 C 
BRANCH  26  27
ATOM     27  O   UNL     1       7.233  -6.031  27.901  0.00  0.00    -0.446 OA
BRANCH  27  28
ATOM     28  C   UNL     1       6.281  -6.251  28.836  0.00  0.00    +0.398 C 
ATOM     29  O   UNL     1       6.030  -5.554  29.805  0.00  0.00    -0.227 OA
ATOM     30  N   UNL     1       5.638  -7.409  28.574  0.00  0.00    -0.295 N 
ATOM     31  H   UNL     1       4.891  -7.700  29.187  0.00  0.00    +0.148 HD
ATOM     32  H   UNL     1       5.856  -7.936  27.744  0.00  0.00    +0.148 HD
ENDBRANCH  27  28
ENDBRANCH  26  27
ENDBRANCH   7  26
TORSDOF 9
ENDMDL
MODEL 2
REMARK VINA RESULT:      -7.0      2.458      3.271
REMARK  Name = 
REMARK  10 active torsions:
REMARK  status: ('A' for Active; 'I' for Inactive)
REMARK    1  A    between atoms: C_5  and  C_6
REMARK    2  A    between atoms: C_6  and  O_7
REMARK    3  A    between atoms: O_7  and  C_8
REMARK    4  A    between atoms: C_11  and  C_27
REMARK    5  A    between atoms: C_15  and  N_16
REMARK    6  A    between atoms: C_15  and  O_25
REMARK    7  A    between atoms: C_17  and  C_19
REMARK    8  A    between atoms: C_19  and  C_20
REMARK    9  A    between atoms: O_25  and  C_26
REMARK   10  A    between atoms: C_27  and  O_28
REMARK                            x       y       z     vdW  Elec       q    Type
REMARK                         _______ _______ _______ _____ _____    ______ ____
ROOT
ATOM      1  C   UNL     1       7.385  -1.748  25.134  0.00  0.00    +0.199 C 
ATOM      2  C   UNL     1       8.726  -0.967  24.755  0.00  0.00    +0.242 C 
ATOM      3  C   UNL     1       9.253  -2.439  24.468  0.00  0.00    +0.275 C 
ATOM      4  O   UNL     1      10.244  -2.970  24.014  0.00  0.00    -0.270 OA
ATOM      5  N   UNL     1       8.119  -2.998  24.951  0.00  0.00    -0.244 N 
ATOM      6  C   UNL     1       7.555  -4.245  24.777  0.00  0.00    +0.125 C 
ATOM      7  C   UNL     1       6.203  -4.375  24.638  0.00  0.00    +0.006 C 
ATOM      8  C   UNL     1       5.259  -3.193  24.572  0.00  0.00    +0.107 C 
ATOM      9  S   UNL     1       6.037  -1.716  23.904  0.00  0.00    -0.128 S 
ENDROOT
BRANCH   2  10
ATOM     10  N   UNL     1       8.635  -0.086  23.558  0.00  0.00    -0.278 N 
ATOM     11  H   UNL     1       7.741   0.071  23.105  0.00  0.00    +0.152 HD
ATOM     12  C   UNL     1       9.767   0.496  23.025  0.00  0.00    +0.220 C 
ATOM     13  O   UNL     1      10.897   0.262  23.449  0.00  0.00    -0.275 OA
BRANCH  12  14
ATOM     14  C   UNL     1       9.507   1.480  21.902  0.00  0.00    +0.138 C 
BRANCH  14  15
ATOM     15  C   UNL     1       8.639   2.586  22.401  0.00  0.00    -0.001 A 
ATOM     16  S   UNL     1       9.177   3.606  23.667  0.00  0.00    -0.101 S 
ATOM     17  C   UNL     1       7.755   4.550  23.592  0.00  0.00    +0.045 A 
ATOM     18  C   UNL     1       6.873   4.085  22.642  0.00  0.00    +0.008 A 
ATOM     19  C   UNL     1       7.380   2.942  21.961  0.00  0.00    +0.011 A 
ENDBRANCH  14  15
ENDBRANCH  12  14
ENDBRANCH   2  10
BRANCH   2  20
ATOM     20  O   UNL     1       9.441  -0.345  25.863  0.00  0.00    -0.349 OA
ATOM     21  C   UNL     1       8.855  -0.490  27.154  0.00  0.00    +0.197 C 
ENDBRANCH   2  20
BRANCH   6  22
ATOM     22  C   UNL     1       8.448  -5.478  24.716  0.00  0.00    +0.351 C 
ATOM     23  O   UNL     1       8.809  -6.010  23.681  0.00  0.00    -0.244 OA
BRANCH  22  24
ATOM     24  O   UNL     1       8.747  -6.045  25.902  0.00  0.00    -0.476 OA
ATOM     25  H   UNL     1       7.970  -6.356  26.413  0.00  0.00    +0.295 HD
ENDBRANCH  22  24
ENDBRANCH   6  22
BRANCH   7  26
ATOM     26  C   UNL     1       5.481  -5.703  24.414  0.00  0.00    +0.268 C 
BRANCH  26  27
ATOM     27  O   UNL     1       4.820  -5.712  23.132  0.00  0.00    -0.446 OA
BRANCH  27  28
ATOM     28  C   UNL     1       5.627  -5.677  22.047  0.00  0.00    +0.398 C 
ATOM     29  O   UNL     1       5.687  -4.795  21.206  0.00  0.00    -0.227 OA
ATOM     30  N   UNL     1       6.364  -6.806  21.986  0.00  0.00    -0.295 N 
ATOM     31  H   UNL     1       7.022  -6.917  21.229  0.00  0.00    +0.148 HD
ATOM     32  H   UNL     1       6.307  -7.493  22.720  0.00  0.00    +0.148 HD
ENDBRANCH  27  28
ENDBRANCH  26  27
ENDBRANCH   7  26
TORSDOF 9
ENDMDL
MODEL 3
REMARK VINA RESULT:      -6.9      2.620      7.632
REMARK  Name = 
REMARK  10 active torsions:
REMARK  status: ('A' for Active; 'I' for Inactive)
REMARK    1  A    between atoms: C_5  and  C_6
REMARK    2  A    between atoms: C_6  and  O_7
REMARK    3  A    between atoms: O_7  and  C_8
REMARK    4  A    between atoms: C_11  and  C_27
REMARK    5  A    between atoms: C_15  and  N_16
REMARK    6  A    between atoms: C_15  and  O_25
REMARK    7  A    between atoms: C_17  and  C_19
REMARK    8  A    between atoms: C_19  and  C_20
REMARK    9  A    between atoms: O_25  and  C_26
REMARK   10  A    between atoms: C_27  and  O_28
REMARK                            x       y       z     vdW  Elec       q    Type
REMARK                         _______ _______ _______ _____ _____    ______ ____
ROOT
ATOM      1  C   UNL     1       8.748  -2.972  24.208  0.00  0.00    +0.199 C 
ATOM      2  C   UNL     1       8.183  -3.305  25.664  0.00  0.00    +0.242 C 
ATOM      3  C   UNL     1       8.682  -1.826  25.967  0.00  0.00    +0.275 C 
ATOM      4  O   UNL     1       8.637  -1.027  26.877  0.00  0.00    -0.270 OA
ATOM      5  N   UNL     1       9.255  -1.711  24.746  0.00  0.00    -0.244 N 
ATOM      6  C   UNL     1       9.635  -0.613  24.002  0.00  0.00    +0.125 C 
ATOM      7  C   UNL     1       9.438  -0.596  22.651  0.00  0.00    +0.006 C 
ATOM      8  C   UNL     1       8.725  -1.702  21.903  0.00  0.00    +0.107 C 
ATOM      9  S   UNL     1       7.520  -2.567  22.920  0.00  0.00    -0.128 S 
ENDROOT
BRANCH   2  10
ATOM     10  N   UNL     1       6.709  -3.502  25.747  0.00  0.00    -0.278 N 
ATOM     11  H   UNL     1       6.107  -3.177  24.999  0.00  0.00    +0.152 HD
ATOM     12  C   UNL     1       6.140  -4.090  26.858  0.00  0.00    +0.220 C 
ATOM     13  O   UNL     1       6.792  -4.405  27.851  0.00  0.00    -0.275 OA
BRANCH  12  14
ATOM     14  C   UNL     1       4.653  -4.358  26.743  0.00  0.00    +0.138 C 
BRANCH  14  15
ATOM     15  C   UNL     1       4.390  -5.194  25.535  0.00  0.00    -0.001 A 
ATOM     16  S   UNL     1       3.584  -4.527  24.179  0.00  0.00    -0.101 S 
ATOM     17  C   UNL     1       3.730  -5.984  23.299  0.00  0.00    +0.045 A 
ATOM     18  C   UNL     1       4.356  -6.970  24.029  0.00  0.00    +0.008 A 
ATOM     19  C   UNL     1       4.728  -6.516  25.326  0.00  0.00    +0.011 A 
ENDBRANCH  14  15
ENDBRANCH  12  14
ENDBRANCH   2  10
BRANCH   2  20
ATOM     20  O   UNL     1       8.931  -4.293  26.431  0.00  0.00    -0.349 OA
ATOM     21  C   UNL     1       9.710  -5.219  25.679  0.00  0.00    +0.197 C 
ENDBRANCH   2  20
BRANCH   6  22
ATOM     22  C   UNL     1      10.256   0.593  24.695  0.00  0.00    +0.351 C 
ATOM     23  O   UNL     1      11.448   0.712  24.923  0.00  0.00    -0.244 OA
BRANCH  22  24
ATOM     24  O   UNL     1       9.388   1.512  25.163  0.00  0.00    -0.476 OA
ATOM     25  H   UNL     1       8.537   1.555  24.678  0.00  0.00    +0.295 HD
ENDBRANCH  22  24
ENDBRANCH   6  22
BRANCH   7  26
ATOM     26  C   UNL     1       9.797   0.578  21.740  0.00  0.00    +0.268 C 
BRANCH  26  27
ATOM     27  O   UNL     1       8.608   1.154  21.161  0.00  0.00    -0.446 OA
BRANCH  27  28
ATOM     28  C   UNL     1       7.997   2.116  21.891  0.00  0.00    +0.398 C 
ATOM     29  O   UNL     1       6.800   2.236  22.089  0.00  0.00    -0.227 OA
ATOM     30  N   UNL     1       8.915   2.986  22.362  0.00  0.00    -0.295 N 
ATOM     31  H   UNL     1       8.605   3.758  22.934  0.00  0.00    +0.148 HD
ATOM     32  H   UNL     1       9.897   2.830  22.201  0.00  0.00    +0.148 HD
ENDBRANCH  27  28
ENDBRANCH  26  27
ENDBRANCH   7  26
TORSDOF 9
ENDMDL
MODEL 4
REMARK VINA RESULT:      -6.8      2.645      8.337
REMARK  Name = 
REMARK  10 active torsions:
REMARK  status: ('A' for Active; 'I' for Inactive)
REMARK    1  A    between atoms: C_5  and  C_6
REMARK    2  A    between atoms: C_6  and  O_7
REMARK    3  A    between atoms: O_7  and  C_8
REMARK    4  A    between atoms: C_11  and  C_27
REMARK    5  A    between atoms: C_15  and  N_16
REMARK    6  A    between atoms: C_15  and  O_25
REMARK    7  A    between atoms: C_17  and  C_19
REMARK    8  A    between atoms: C_19  and  C_20
REMARK    9  A    between atoms: O_25  and  C_26
REMARK   10  A    between atoms: C_27  and  O_28
REMARK                            x       y       z     vdW  Elec       q    Type
REMARK                         _______ _______ _______ _____ _____    ______ ____
ROOT
ATOM      1  C   UNL     1       7.196  -0.686  23.478  0.00  0.00    +0.199 C 
ATOM      2  C   UNL     1       8.035  -2.040  23.604  0.00  0.00    +0.242 C 
ATOM      3  C   UNL     1       9.265  -1.045  23.455  0.00  0.00    +0.275 C 
ATOM      4  O   UNL     1      10.476  -1.093  23.507  0.00  0.00    -0.270 OA
ATOM      5  N   UNL     1       8.453   0.011  23.214  0.00  0.00    -0.244 N 
ATOM      6  C   UNL     1       8.653   1.372  23.306  0.00  0.00    +0.125 C 
ATOM      7  C   UNL     1       7.667   2.181  23.791  0.00  0.00    +0.006 C 
ATOM      8  C   UNL     1       6.356   1.655  24.336  0.00  0.00    +0.107 C 
ATOM      9  S   UNL     1       6.501  -0.001  25.020  0.00  0.00    -0.128 S 
ENDROOT
BRANCH   2  10
ATOM     10  N   UNL     1       7.938  -2.730  24.920  0.00  0.00    -0.278 N 
ATOM     11  H   UNL     1       7.268  -2.418  25.614  0.00  0.00    +0.152 HD
ATOM     12  C   UNL     1       8.784  -3.776  25.229  0.00  0.00    +0.220 C 
ATOM     13  O   UNL     1       9.695  -4.136  24.486  0.00  0.00    -0.275 OA
BRANCH  12  14
ATOM     14  C   UNL     1       8.477  -4.476  26.537  0.00  0.00    +0.138 C 
BRANCH  14  15
ATOM     15  C   UNL     1       7.161  -5.171  26.433  0.00  0.00    -0.001 A 
ATOM     16  S   UNL     1       6.273  -5.560  27.845  0.00  0.00    -0.101 S 
ATOM     17  C   UNL     1       4.988  -6.215  26.929  0.00  0.00    +0.045 A 
ATOM     18  C   UNL     1       5.238  -6.166  25.576  0.00  0.00    +0.008 A 
ATOM     19  C   UNL     1       6.500  -5.573  25.290  0.00  0.00    +0.011 A 
ENDBRANCH  14  15
ENDBRANCH  12  14
ENDBRANCH   2  10
BRANCH   2  20
ATOM     20  O   UNL     1       7.944  -2.958  22.475  0.00  0.00    -0.349 OA
ATOM     21  C   UNL     1       6.639  -3.423  22.141  0.00  0.00    +0.197 C 
ENDBRANCH   2  20
BRANCH   6  22
ATOM     22  C   UNL     1       9.989   1.971  22.886  0.00  0.00    +0.351 C 
ATOM     23  O   UNL     1      10.893   2.238  23.659  0.00  0.00    -0.244 OA
BRANCH  22  24
ATOM     24  O   UNL     1      10.098   2.309  21.585  0.00  0.00    -0.476 OA
ATOM     25  H   UNL     1      10.267   1.556  20.980  0.00  0.00    +0.295 HD
ENDBRANCH  22  24
ENDBRANCH   6  22
BRANCH   7  26
ATOM     26  C   UNL     1       7.795   3.695  23.959  0.00  0.00    +0.268 C 
BRANCH  26  27
ATOM     27  O   UNL     1       7.948   4.337  22.677  0.00  0.00    -0.446 OA
BRANCH  27  28
ATOM     28  C   UNL     1       6.963   5.193  22.319  0.00  0.00    +0.398 C 
ATOM     29  O   UNL     1       5.793   5.147  22.660  0.00  0.00    -0.227 OA
ATOM     30  N   UNL     1       7.449   6.123  21.471  0.00  0.00    -0.295 N 
ATOM     31  H   UNL     1       6.827   6.838  21.124  0.00  0.00    +0.148 HD
ATOM     32  H   UNL     1       8.430   6.143  21.243  0.00  0.00    +0.148 HD
ENDBRANCH  27  28
ENDBRANCH  26  27
ENDBRANCH   7  26
TORSDOF 9
ENDMDL
MODEL 5
REMARK VINA RESULT:      -6.8      2.745      3.850
REMARK  Name = 
REMARK  10 active torsions:
REMARK  status: ('A' for Active; 'I' for Inactive)
REMARK    1  A    between atoms: C_5  and  C_6
REMARK    2  A    between atoms: C_6  and  O_7
REMARK    3  A    between atoms: O_7  and  C_8
REMARK    4  A    between atoms: C_11  and  C_27
REMARK    5  A    between atoms: C_15  and  N_16
REMARK    6  A    between atoms: C_15  and  O_25
REMARK    7  A    between atoms: C_17  and  C_19
REMARK    8  A    between atoms: C_19  and  C_20
REMARK    9  A    between atoms: O_25  and  C_26
REMARK   10  A    between atoms: C_27  and  O_28
REMARK                            x       y       z     vdW  Elec       q    Type
REMARK                         _______ _______ _______ _____ _____    ______ ____
ROOT
ATOM      1  C   UNL     1       7.705  -3.692  25.581  0.00  0.00    +0.199 C 
ATOM      2  C   UNL     1       8.868  -3.355  24.538  0.00  0.00    +0.242 C 
ATOM      3  C   UNL     1       7.774  -3.831  23.487  0.00  0.00    +0.275 C 
ATOM      4  O   UNL     1       7.643  -3.883  22.282  0.00  0.00    -0.270 OA
ATOM      5  N   UNL     1       6.922  -4.218  24.464  0.00  0.00    -0.244 N 
ATOM      6  C   UNL     1       5.561  -4.442  24.471  0.00  0.00    +0.125 C 
ATOM      7  C   UNL     1       4.805  -4.054  25.539  0.00  0.00    +0.006 C 
ATOM      8  C   UNL     1       5.367  -3.287  26.718  0.00  0.00    +0.107 C 
ATOM      9  S   UNL     1       6.788  -2.277  26.278  0.00  0.00    -0.128 S 
ENDROOT
BRANCH   2  10
ATOM     10  N   UNL     1       9.245  -1.917  24.447  0.00  0.00    -0.278 N 
ATOM     11  H   UNL     1       8.847  -1.241  25.089  0.00  0.00    +0.152 HD
ATOM     12  C   UNL     1      10.110  -1.478  23.464  0.00  0.00    +0.220 C 
ATOM     13  O   UNL     1      10.542  -2.216  22.582  0.00  0.00    -0.275 OA
BRANCH  12  14
ATOM     14  C   UNL     1      10.518  -0.024  23.581  0.00  0.00    +0.138 C 
BRANCH  14  15
ATOM     15  C   UNL     1       9.442   0.842  23.017  0.00  0.00    -0.001 A 
ATOM     16  S   UNL     1       8.491   1.824  24.049  0.00  0.00    -0.101 S 
ATOM     17  C   UNL     1       7.626   2.478  22.728  0.00  0.00    +0.045 A 
ATOM     18  C   UNL     1       8.031   1.942  21.526  0.00  0.00    +0.008 A 
ATOM     19  C   UNL     1       9.074   0.988  21.694  0.00  0.00    +0.011 A 
ENDBRANCH  14  15
ENDBRANCH  12  14
ENDBRANCH   2  10
BRANCH   2  20
ATOM     20  O   UNL     1      10.022  -4.244  24.555  0.00  0.00    -0.349 OA
ATOM     21  C   UNL     1      10.035  -5.243  25.571  0.00  0.00    +0.197 C 
ENDBRANCH   2  20
BRANCH   6  22
ATOM     22  C   UNL     1       4.898  -5.106  23.271  0.00  0.00    +0.351 C 
ATOM     23  O   UNL     1       4.407  -4.495  22.337  0.00  0.00    -0.244 OA
BRANCH  22  24
ATOM     24  O   UNL     1       4.774  -6.447  23.336  0.00  0.00    -0.476 OA
ATOM     25  H   UNL     1       4.222  -6.841  22.628  0.00  0.00    +0.295 HD
ENDBRANCH  22  24
ENDBRANCH   6  22
BRANCH   7  26
ATOM     26  C   UNL     1       3.290  -4.231  25.635  0.00  0.00    +0.268 C 
BRANCH  26  27
ATOM     27  O   UNL     1       2.939  -5.629  25.602  0.00  0.00    -0.446 OA
BRANCH  27  28
ATOM     28  C   UNL     1       3.322  -6.364  26.672  0.00  0.00    +0.398 C 
ATOM     29  O   UNL     1       3.098  -6.121  27.846  0.00  0.00    -0.227 OA
ATOM     30  N   UNL     1       4.047  -7.426  26.263  0.00  0.00    -0.295 N 
ATOM     31  H   UNL     1       4.396  -8.072  26.955  0.00  0.00    +0.148 HD
ATOM     32  H   UNL     1       4.179  -7.606  25.281  0.00  0.00    +0.148 HD
ENDBRANCH  27  28
ENDBRANCH  26  27
ENDBRANCH   7  26
TORSDOF 9
ENDMDL
MODEL 6
REMARK VINA RESULT:      -6.7      1.934      2.211
REMARK  Name = 
REMARK  10 active torsions:
REMARK  status: ('A' for Active; 'I' for Inactive)
REMARK    1  A    between atoms: C_5  and  C_6
REMARK    2  A    between atoms: C_6  and  O_7
REMARK    3  A    between atoms: O_7  and  C_8
REMARK    4  A    between atoms: C_11  and  C_27
REMARK    5  A    between atoms: C_15  and  N_16
REMARK    6  A    between atoms: C_15  and  O_25
REMARK    7  A    between atoms: C_17  and  C_19
REMARK    8  A    between atoms: C_19  and  C_20
REMARK    9  A    between atoms: O_25  and  C_26
REMARK   10  A    between atoms: C_27  and  O_28
REMARK                            x       y       z     vdW  Elec       q    Type
REMARK                         _______ _______ _______ _____ _____    ______ ____
ROOT
ATOM      1  C   UNL     1       7.844  -0.876  24.939  0.00  0.00    +0.199 C 
ATOM      2  C   UNL     1       8.393   0.004  23.725  0.00  0.00    +0.242 C 
ATOM      3  C   UNL     1       8.214  -1.361  22.930  0.00  0.00    +0.275 C 
ATOM      4  O   UNL     1       8.300  -1.758  21.787  0.00  0.00    -0.270 OA
ATOM      5  N   UNL     1       7.899  -2.041  24.057  0.00  0.00    -0.244 N 
ATOM      6  C   UNL     1       7.248  -3.239  24.265  0.00  0.00    +0.125 C 
ATOM      7  C   UNL     1       6.372  -3.375  25.303  0.00  0.00    +0.006 C 
ATOM      8  C   UNL     1       5.987  -2.232  26.219  0.00  0.00    +0.107 C 
ATOM      9  S   UNL     1       6.100  -0.628  25.415  0.00  0.00    -0.128 S 
ENDROOT
BRANCH   2  10
ATOM     10  N   UNL     1       7.500   1.111  23.284  0.00  0.00    -0.278 N 
ATOM     11  H   UNL     1       6.637   1.301  23.782  0.00  0.00    +0.152 HD
ATOM     12  C   UNL     1       7.813   1.867  22.173  0.00  0.00    +0.220 C 
ATOM     13  O   UNL     1       8.780   1.624  21.455  0.00  0.00    -0.275 OA
BRANCH  12  14
ATOM     14  C   UNL     1       6.895   3.048  21.929  0.00  0.00    +0.138 C 
BRANCH  14  15
ATOM     15  C   UNL     1       7.535   4.292  22.448  0.00  0.00    -0.001 A 
ATOM     16  S   UNL     1       8.740   4.204  23.662  0.00  0.00    -0.101 S 
ATOM     17  C   UNL     1       8.970   5.897  23.641  0.00  0.00    +0.045 A 
ATOM     18  C   UNL     1       8.129   6.523  22.748  0.00  0.00    +0.008 A 
ATOM     19  C   UNL     1       7.291   5.596  22.067  0.00  0.00    +0.011 A 
ENDBRANCH  14  15
ENDBRANCH  12  14
ENDBRANCH   2  10
BRANCH   2  20
ATOM     20  O   UNL     1       9.793   0.401  23.802  0.00  0.00    -0.349 OA
ATOM     21  C   UNL     1      10.409   0.299  25.083  0.00  0.00    +0.197 C 
ENDBRANCH   2  20
BRANCH   6  22
ATOM     22  C   UNL     1       7.493  -4.407  23.318  0.00  0.00    +0.351 C 
ATOM     23  O   UNL     1       6.832  -4.626  22.317  0.00  0.00    -0.244 OA
BRANCH  22  24
ATOM     24  O   UNL     1       8.439  -5.287  23.704  0.00  0.00    -0.476 OA
ATOM     25  H   UNL     1       8.902  -5.051  24.535  0.00  0.00    +0.295 HD
ENDBRANCH  22  24
ENDBRANCH   6  22
BRANCH   7  26
ATOM     26  C   UNL     1       5.581  -4.648  25.605  0.00  0.00    +0.268 C 
BRANCH  26  27
ATOM     27  O   UNL     1       6.469  -5.722  25.976  0.00  0.00    -0.446 OA
BRANCH  27  28
ATOM     28  C   UNL     1       7.204  -5.525  27.095  0.00  0.00    +0.398 C 
ATOM     29  O   UNL     1       6.787  -5.243  28.206  0.00  0.00    -0.227 OA
ATOM     30  N   UNL     1       8.517  -5.648  26.809  0.00  0.00    -0.295 N 
ATOM     31  H   UNL     1       9.190  -5.535  27.553  0.00  0.00    +0.148 HD
ATOM     32  H   UNL     1       8.816  -5.915  25.884  0.00  0.00    +0.148 HD
ENDBRANCH  27  28
ENDBRANCH  26  27
ENDBRANCH   7  26
TORSDOF 9
ENDMDL
MODEL 7
REMARK VINA RESULT:      -6.6      2.451      2.788
REMARK  Name = 
REMARK  10 active torsions:
REMARK  status: ('A' for Active; 'I' for Inactive)
REMARK    1  A    between atoms: C_5  and  C_6
REMARK    2  A    between atoms: C_6  and  O_7
REMARK    3  A    between atoms: O_7  and  C_8
REMARK    4  A    between atoms: C_11  and  C_27
REMARK    5  A    between atoms: C_15  and  N_16
REMARK    6  A    between atoms: C_15  and  O_25
REMARK    7  A    between atoms: C_17  and  C_19
REMARK    8  A    between atoms: C_19  and  C_20
REMARK    9  A    between atoms: O_25  and  C_26
REMARK   10  A    between atoms: C_27  and  O_28
REMARK                            x       y       z     vdW  Elec       q    Type
REMARK                         _______ _______ _______ _____ _____    ______ ____
ROOT
ATOM      1  C   UNL     1       8.193  -1.536  24.953  0.00  0.00    +0.199 C 
ATOM      2  C   UNL     1       8.755  -0.645  23.752  0.00  0.00    +0.242 C 
ATOM      3  C   UNL     1       8.537  -1.989  22.932  0.00  0.00    +0.275 C 
ATOM      4  O   UNL     1       8.607  -2.365  21.781  0.00  0.00    -0.270 OA
ATOM      5  N   UNL     1       8.214  -2.683  24.048  0.00  0.00    -0.244 N 
ATOM      6  C   UNL     1       7.536  -3.869  24.236  0.00  0.00    +0.125 C 
ATOM      7  C   UNL     1       6.663  -4.005  25.277  0.00  0.00    +0.006 C 
ATOM      8  C   UNL     1       6.312  -2.873  26.218  0.00  0.00    +0.107 C 
ATOM      9  S   UNL     1       6.458  -1.255  25.446  0.00  0.00    -0.128 S 
ENDROOT
BRANCH   2  10
ATOM     10  N   UNL     1       7.886   0.492  23.340  0.00  0.00    -0.278 N 
ATOM     11  H   UNL     1       7.061   0.729  23.882  0.00  0.00    +0.152 HD
ATOM     12  C   UNL     1       8.166   1.213  22.198  0.00  0.00    +0.220 C 
ATOM     13  O   UNL     1       9.079   0.915  21.431  0.00  0.00    -0.275 OA
BRANCH  12  14
ATOM     14  C   UNL     1       7.287   2.428  21.982  0.00  0.00    +0.138 C 
BRANCH  14  15
ATOM     15  C   UNL     1       7.903   3.613  22.646  0.00  0.00    -0.001 A 
ATOM     16  S   UNL     1       7.244   5.177  22.413  0.00  0.00    -0.101 S 
ATOM     17  C   UNL     1       8.388   5.882  23.468  0.00  0.00    +0.045 A 
ATOM     18  C   UNL     1       9.273   4.953  23.969  0.00  0.00    +0.008 A 
ATOM     19  C   UNL     1       9.000   3.643  23.484  0.00  0.00    +0.011 A 
ENDBRANCH  14  15
ENDBRANCH  12  14
ENDBRANCH   2  10
BRANCH   2  20
ATOM     20  O   UNL     1      10.164  -0.283  23.828  0.00  0.00    -0.349 OA
ATOM     21  C   UNL     1      10.561   0.478  24.966  0.00  0.00    +0.197 C 
ENDBRANCH   2  20
BRANCH   6  22
ATOM     22  C   UNL     1       7.746  -5.024  23.265  0.00  0.00    +0.351 C 
ATOM     23  O   UNL     1       8.578  -5.902  23.416  0.00  0.00    -0.244 OA
BRANCH  22  24
ATOM     24  O   UNL     1       7.021  -4.975  22.129  0.00  0.00    -0.476 OA
ATOM     25  H   UNL     1       6.203  -5.517  22.143  0.00  0.00    +0.295 HD
ENDBRANCH  22  24
ENDBRANCH   6  22
BRANCH   7  26
ATOM     26  C   UNL     1       5.844  -5.265  25.559  0.00  0.00    +0.268 C 
BRANCH  26  27
ATOM     27  O   UNL     1       4.635  -5.271  24.773  0.00  0.00    -0.446 OA
BRANCH  27  28
ATOM     28  C   UNL     1       4.385  -6.402  24.075  0.00  0.00    +0.398 C 
ATOM     29  O   UNL     1       4.309  -7.535  24.518  0.00  0.00    -0.227 OA
ATOM     30  N   UNL     1       4.262  -6.113  22.762  0.00  0.00    -0.295 N 
ATOM     31  H   UNL     1       4.065  -6.862  22.115  0.00  0.00    +0.148 HD
ATOM     32  H   UNL     1       4.299  -5.158  22.444  0.00  0.00    +0.148 HD
ENDBRANCH  27  28
ENDBRANCH  26  27
ENDBRANCH   7  26
TORSDOF 9
ENDMDL
MODEL 8
REMARK VINA RESULT:      -6.5      3.451      7.438
REMARK  Name = 
REMARK  10 active torsions:
REMARK  status: ('A' for Active; 'I' for Inactive)
REMARK    1  A    between atoms: C_5  and  C_6
REMARK    2  A    between atoms: C_6  and  O_7
REMARK    3  A    between atoms: O_7  and  C_8
REMARK    4  A    between atoms: C_11  and  C_27
REMARK    5  A    between atoms: C_15  and  N_16
REMARK    6  A    between atoms: C_15  and  O_25
REMARK    7  A    between atoms: C_17  and  C_19
REMARK    8  A    between atoms: C_19  and  C_20
REMARK    9  A    between atoms: O_25  and  C_26
REMARK   10  A    between atoms: C_27  and  O_28
REMARK                            x       y       z     vdW  Elec       q    Type
REMARK                         _______ _______ _______ _____ _____    ______ ____
ROOT
ATOM      1  C   UNL     1       5.916  -2.665  22.977  0.00  0.00    +0.199 C 
ATOM      2  C   UNL     1       5.846  -4.255  22.840  0.00  0.00    +0.242 C 
ATOM      3  C   UNL     1       7.427  -4.122  22.930  0.00  0.00    +0.275 C 
ATOM      4  O   UNL     1       8.392  -4.854  23.002  0.00  0.00    -0.270 OA
ATOM      5  N   UNL     1       7.371  -2.771  22.893  0.00  0.00    -0.244 N 
ATOM      6  C   UNL     1       8.272  -1.796  23.270  0.00  0.00    +0.125 C 
ATOM      7  C   UNL     1       7.837  -0.659  23.888  0.00  0.00    +0.006 C 
ATOM      8  C   UNL     1       6.392  -0.429  24.280  0.00  0.00    +0.107 C 
ATOM      9  S   UNL     1       5.508  -1.959  24.609  0.00  0.00    -0.128 S 
ENDROOT
BRANCH   2  10
ATOM     10  N   UNL     1       5.207  -4.966  23.982  0.00  0.00    -0.278 N 
ATOM     11  H   UNL     1       5.772  -5.315  24.748  0.00  0.00    +0.152 HD
ATOM     12  C   UNL     1       3.846  -5.195  23.995  0.00  0.00    +0.220 C 
ATOM     13  O   UNL     1       3.114  -4.904  23.051  0.00  0.00    -0.275 OA
BRANCH  12  14
ATOM     14  C   UNL     1       3.316  -5.796  25.280  0.00  0.00    +0.138 C 
BRANCH  14  15
ATOM     15  C   UNL     1       3.359  -4.771  26.364  0.00  0.00    -0.001 A 
ATOM     16  S   UNL     1       2.273  -3.446  26.347  0.00  0.00    -0.101 S 
ATOM     17  C   UNL     1       2.887  -2.847  27.824  0.00  0.00    +0.045 A 
ATOM     18  C   UNL     1       3.917  -3.621  28.311  0.00  0.00    +0.008 A 
ATOM     19  C   UNL     1       4.197  -4.727  27.460  0.00  0.00    +0.011 A 
ENDBRANCH  14  15
ENDBRANCH  12  14
ENDBRANCH   2  10
BRANCH   2  20
ATOM     20  O   UNL     1       5.422  -4.769  21.543  0.00  0.00    -0.349 OA
ATOM     21  C   UNL     1       6.077  -5.949  21.087  0.00  0.00    +0.197 C 
ENDBRANCH   2  20
BRANCH   6  22
ATOM     22  C   UNL     1       9.760  -2.002  23.016  0.00  0.00    +0.351 C 
ATOM     23  O   UNL     1      10.365  -1.520  22.073  0.00  0.00    -0.244 OA
BRANCH  22  24
ATOM     24  O   UNL     1      10.384  -2.860  23.847  0.00  0.00    -0.476 OA
ATOM     25  H   UNL     1      10.953  -3.521  23.399  0.00  0.00    +0.295 HD
ENDBRANCH  22  24
ENDBRANCH   6  22
BRANCH   7  26
ATOM     26  C   UNL     1       8.751   0.467  24.369  0.00  0.00    +0.268 C 
BRANCH  26  27
ATOM     27  O   UNL     1       8.720   1.576  23.447  0.00  0.00    -0.446 OA
BRANCH  27  28
ATOM     28  C   UNL     1       9.917   1.982  22.965  0.00  0.00    +0.398 C 
ATOM     29  O   UNL     1      10.826   2.493  23.598  0.00  0.00    -0.227 OA
ATOM     30  N   UNL     1       9.968   1.779  21.632  0.00  0.00    -0.295 N 
ATOM     31  H   UNL     1      10.809   2.028  21.134  0.00  0.00    +0.148 HD
ATOM     32  H   UNL     1       9.206   1.323  21.156  0.00  0.00    +0.148 HD
ENDBRANCH  27  28
ENDBRANCH  26  27
ENDBRANCH   7  26
TORSDOF 9
ENDMDL
MODEL 9
REMARK VINA RESULT:      -6.4      3.155      4.419
REMARK  Name = 
REMARK  10 active torsions:
REMARK  status: ('A' for Active; 'I' for Inactive)
REMARK    1  A    between atoms: C_5  and  C_6
REMARK    2  A    between atoms: C_6  and  O_7
REMARK    3  A    between atoms: O_7  and  C_8
REMARK    4  A    between atoms: C_11  and  C_27
REMARK    5  A    between atoms: C_15  and  N_16
REMARK    6  A    between atoms: C_15  and  O_25
REMARK    7  A    between atoms: C_17  and  C_19
REMARK    8  A    between atoms: C_19  and  C_20
REMARK    9  A    between atoms: O_25  and  C_26
REMARK   10  A    between atoms: C_27  and  O_28
REMARK                            x       y       z     vdW  Elec       q    Type
REMARK                         _______ _______ _______ _____ _____    ______ ____
ROOT
ATOM      1  C   UNL     1       7.518  -4.758  24.707  0.00  0.00    +0.199 C 
ATOM      2  C   UNL     1       7.755  -3.870  23.400  0.00  0.00    +0.242 C 
ATOM      3  C   UNL     1       6.404  -3.182  23.878  0.00  0.00    +0.275 C 
ATOM      4  O   UNL     1       5.711  -2.239  23.562  0.00  0.00    -0.270 OA
ATOM      5  N   UNL     1       6.230  -4.086  24.871  0.00  0.00    -0.244 N 
ATOM      6  C   UNL     1       5.479  -4.058  26.027  0.00  0.00    +0.125 C 
ATOM      7  C   UNL     1       5.976  -4.585  27.184  0.00  0.00    +0.006 C 
ATOM      8  C   UNL     1       7.380  -5.136  27.307  0.00  0.00    +0.107 C 
ATOM      9  S   UNL     1       8.536  -4.361  26.169  0.00  0.00    -0.128 S 
ENDROOT
BRANCH   2  10
ATOM     10  N   UNL     1       8.956  -2.991  23.436  0.00  0.00    -0.278 N 
ATOM     11  H   UNL     1       9.635  -3.081  24.184  0.00  0.00    +0.152 HD
ATOM     12  C   UNL     1       9.143  -2.016  22.476  0.00  0.00    +0.220 C 
ATOM     13  O   UNL     1       8.310  -1.771  21.607  0.00  0.00    -0.275 OA
BRANCH  12  14
ATOM     14  C   UNL     1      10.475  -1.297  22.552  0.00  0.00    +0.138 C 
BRANCH  14  15
ATOM     15  C   UNL     1      10.246   0.141  22.876  0.00  0.00    -0.001 A 
ATOM     16  S   UNL     1      10.428   0.706  24.483  0.00  0.00    -0.101 S 
ATOM     17  C   UNL     1      10.084   2.314  24.019  0.00  0.00    +0.045 A 
ATOM     18  C   UNL     1       9.809   2.419  22.674  0.00  0.00    +0.008 A 
ATOM     19  C   UNL     1       9.892   1.161  22.015  0.00  0.00    +0.011 A 
ENDBRANCH  14  15
ENDBRANCH  12  14
ENDBRANCH   2  10
BRANCH   2  20
ATOM     20  O   UNL     1       7.590  -4.552  22.123  0.00  0.00    -0.349 OA
ATOM     21  C   UNL     1       7.260  -5.937  22.184  0.00  0.00    +0.197 C 
ENDBRANCH   2  20
BRANCH   6  22
ATOM     22  C   UNL     1       4.097  -3.416  26.015  0.00  0.00    +0.351 C 
ATOM     23  O   UNL     1       3.056  -4.037  25.884  0.00  0.00    -0.244 OA
BRANCH  22  24
ATOM     24  O   UNL     1       4.076  -2.068  26.049  0.00  0.00    -0.476 OA
ATOM     25  H   UNL     1       3.704  -1.646  25.246  0.00  0.00    +0.295 HD
ENDBRANCH  22  24
ENDBRANCH   6  22
BRANCH   7  26
ATOM     26  C   UNL     1       5.237  -4.581  28.522  0.00  0.00    +0.268 C 
BRANCH  26  27
ATOM     27  O   UNL     1       4.178  -5.560  28.521  0.00  0.00    -0.446 OA
BRANCH  27  28
ATOM     28  C   UNL     1       4.528  -6.814  28.153  0.00  0.00    +0.398 C 
ATOM     29  O   UNL     1       5.367  -7.524  28.679  0.00  0.00    -0.227 OA
ATOM     30  N   UNL     1       3.827  -7.183  27.060  0.00  0.00    -0.295 N 
ATOM     31  H   UNL     1       3.977  -8.104  26.674  0.00  0.00    +0.148 HD
ATOM     32  H   UNL     1       3.119  -6.577  26.678  0.00  0.00    +0.148 HD
ENDBRANCH  27  28
ENDBRANCH  26  27
ENDBRANCH   7  26
TORSDOF 9
ENDMDL
