MODEL 1
REMARK VINA RESULT:      -5.3      0.000      0.000
REMARK  Name = 
REMARK  9 active torsions:
REMARK  status: ('A' for Active; 'I' for Inactive)
REMARK    1  A    between atoms: N_1  and  C_2
REMARK    2  A    between atoms: C_2  and  C_4
REMARK    3  A    between atoms: C_2  and  C_15
REMARK    4  A    between atoms: C_4  and  C_5
REMARK    5  A    between atoms: C_5  and  C_6
REMARK    6  A    between atoms: C_6  and  C_7
REMARK    7  A    between atoms: C_7  and  N_8
REMARK    8  A    between atoms: C_9  and  N_10
REMARK    9  A    between atoms: C_15  and  O_16
REMARK                            x       y       z     vdW  Elec       q    Type
REMARK                         _______ _______ _______ _____ _____    ______ ____
ROOT
ATOM      1  C   UNK     1       9.529   3.795  23.829  0.00  0.00    +0.037 C 
ENDROOT
BRANCH   1   2
ATOM      2  C   UNK     1      10.412   2.551  23.679  0.00  0.00    +0.005 C 
BRANCH   2   3
ATOM      3  C   UNK     1       9.611   1.259  23.470  0.00  0.00    +0.030 C 
BRANCH   3   4
ATOM      4  C   UNK     1       9.793   0.612  22.089  0.00  0.00    +0.161 C 
BRANCH   4   5
ATOM      5  N   UNK     1       8.983   1.377  21.090  0.00  0.00    -0.318 NA
ATOM      6  H   UNK     1       9.120   0.975  20.157  0.00  0.00    +0.119 HD
ATOM      7  H   UNK     1       7.991   1.209  21.287  0.00  0.00    +0.119 HD
ENDBRANCH   4   5
BRANCH   4   8
ATOM      8  C   UNK     1       9.303  -0.853  22.072  0.00  0.00    +0.322 C 
ATOM      9  O   UNK     1       8.260  -1.261  22.562  0.00  0.00    -0.249 OA
BRANCH   8  10
ATOM     10  O   UNK     1      10.165  -1.657  21.402  0.00  0.00    -0.480 OA
ATOM     11  H   UNK     1      11.012  -1.148  21.330  0.00  0.00    +0.295 HD
ENDBRANCH   8  10
ENDBRANCH   4   8
ENDBRANCH   3   4
ENDBRANCH   2   3
ENDBRANCH   1   2
BRANCH   1  12
ATOM     12  C   UNK     1      10.317   5.097  23.680  0.00  0.00    +0.195 C 
BRANCH  12  13
ATOM     13  N   UNK     1      11.652   4.828  23.192  0.00  0.00    -0.279 N 
ATOM     14  H   UNK     1      11.688   4.111  22.471  0.00  0.00    +0.258 HD
ATOM     15  C   UNK     1      12.810   5.400  23.536  0.00  0.00    +0.347 C 
ATOM     16  N   UNK     1      13.963   5.185  23.057  0.00  0.00    -0.132 NA
ATOM     17  H   UNK     1      13.914   4.474  22.317  0.00  0.00    +0.306 HD
BRANCH  15  18
ATOM     18  N   UNK     1      12.888   6.354  24.523  0.00  0.00    -0.392 NA
ATOM     19  H   UNK     1      12.016   6.799  24.782  0.00  0.00    +0.216 HD
ATOM     20  H   UNK     1      13.373   5.891  25.294  0.00  0.00    +0.216 HD
ATOM     21  H   UNK     1      13.586   7.026  24.197  0.00  0.00    +0.216 HD
ENDBRANCH  15  18
ENDBRANCH  12  13
ENDBRANCH   1  12
TORSDOF 9
ENDMDL
MODEL 2
REMARK VINA RESULT:      -5.1      4.693      7.229
REMARK  Name = 
REMARK  9 active torsions:
REMARK  status: ('A' for Active; 'I' for Inactive)
REMARK    1  A    between atoms: N_1  and  C_2
REMARK    2  A    between atoms: C_2  and  C_4
REMARK    3  A    between atoms: C_2  and  C_15
REMARK    4  A    between atoms: C_4  and  C_5
REMARK    5  A    between atoms: C_5  and  C_6
REMARK    6  A    between atoms: C_6  and  C_7
REMARK    7  A    between atoms: C_7  and  N_8
REMARK    8  A    between atoms: C_9  and  N_10
REMARK    9  A    between atoms: C_15  and  O_16
REMARK                            x       y       z     vdW  Elec       q    Type
REMARK                         _______ _______ _______ _____ _____    ______ ____
ROOT
ATOM      1  C   UNK     1       8.868  -1.533  24.520  0.00  0.00    +0.037 C 
ENDROOT
BRANCH   1   2
ATOM      2  C   UNK     1      10.053  -0.563  24.583  0.00  0.00    +0.005 C 
BRANCH   2   3
ATOM      3  C   UNK     1      10.391   0.071  23.226  0.00  0.00    +0.030 C 
BRANCH   3   4
ATOM      4  C   UNK     1       9.237   0.064  22.213  0.00  0.00    +0.161 C 
BRANCH   4   5
ATOM      5  N   UNK     1       9.607  -0.832  21.072  0.00  0.00    -0.318 NA
ATOM      6  H   UNK     1      10.188  -0.315  20.404  0.00  0.00    +0.119 HD
ATOM      7  H   UNK     1      10.233  -1.562  21.429  0.00  0.00    +0.119 HD
ENDBRANCH   4   5
BRANCH   4   8
ATOM      8  C   UNK     1       8.967   1.472  21.639  0.00  0.00    +0.322 C 
ATOM      9  O   UNK     1       7.873   1.910  21.314  0.00  0.00    -0.249 OA
BRANCH   8  10
ATOM     10  O   UNK     1      10.105   2.205  21.566  0.00  0.00    -0.480 OA
ATOM     11  H   UNK     1      10.598   1.865  20.777  0.00  0.00    +0.295 HD
ENDBRANCH   8  10
ENDBRANCH   4   8
ENDBRANCH   3   4
ENDBRANCH   2   3
ENDBRANCH   1   2
BRANCH   1  12
ATOM     12  C   UNK     1       9.309  -2.991  24.376  0.00  0.00    +0.195 C 
BRANCH  12  13
ATOM     13  N   UNK     1       8.678  -3.813  25.386  0.00  0.00    -0.279 N 
ATOM     14  H   UNK     1       7.836  -3.401  25.782  0.00  0.00    +0.258 HD
ATOM     15  C   UNK     1       9.031  -5.020  25.836  0.00  0.00    +0.347 C 
ATOM     16  N   UNK     1       8.434  -5.746  26.685  0.00  0.00    -0.132 NA
ATOM     17  H   UNK     1       7.580  -5.278  27.016  0.00  0.00    +0.306 HD
BRANCH  15  18
ATOM     18  N   UNK     1      10.170  -5.657  25.401  0.00  0.00    -0.392 NA
ATOM     19  H   UNK     1      10.800  -5.983  26.123  0.00  0.00    +0.216 HD
ATOM     20  H   UNK     1       9.835  -6.386  24.769  0.00  0.00    +0.216 HD
ATOM     21  H   UNK     1      10.620  -5.001  24.759  0.00  0.00    +0.216 HD
ENDBRANCH  15  18
ENDBRANCH  12  13
ENDBRANCH   1  12
TORSDOF 9
ENDMDL
MODEL 3
REMARK VINA RESULT:      -5.1      1.128      1.339
REMARK  Name = 
REMARK  9 active torsions:
REMARK  status: ('A' for Active; 'I' for Inactive)
REMARK    1  A    between atoms: N_1  and  C_2
REMARK    2  A    between atoms: C_2  and  C_4
REMARK    3  A    between atoms: C_2  and  C_15
REMARK    4  A    between atoms: C_4  and  C_5
REMARK    5  A    between atoms: C_5  and  C_6
REMARK    6  A    between atoms: C_6  and  C_7
REMARK    7  A    between atoms: C_7  and  N_8
REMARK    8  A    between atoms: C_9  and  N_10
REMARK    9  A    between atoms: C_15  and  O_16
REMARK                            x       y       z     vdW  Elec       q    Type
REMARK                         _______ _______ _______ _____ _____    ______ ____
ROOT
ATOM      1  C   UNK     1       9.447   4.960  24.449  0.00  0.00    +0.037 C 
ENDROOT
BRANCH   1   2
ATOM      2  C   UNK     1       8.928   3.664  23.816  0.00  0.00    +0.005 C 
BRANCH   2   3
ATOM      3  C   UNK     1       9.721   2.421  24.243  0.00  0.00    +0.030 C 
BRANCH   3   4
ATOM      4  C   UNK     1      10.357   1.641  23.083  0.00  0.00    +0.161 C 
BRANCH   4   5
ATOM      5  N   UNK     1      10.214   2.446  21.828  0.00  0.00    -0.318 NA
ATOM      6  H   UNK     1       9.933   3.403  22.065  0.00  0.00    +0.119 HD
ATOM      7  H   UNK     1      11.145   2.557  21.412  0.00  0.00    +0.119 HD
ENDBRANCH   4   5
BRANCH   4   8
ATOM      8  C   UNK     1       9.660   0.281  22.853  0.00  0.00    +0.322 C 
ATOM      9  O   UNK     1       8.676   0.095  22.153  0.00  0.00    -0.249 OA
BRANCH   8  10
ATOM     10  O   UNK     1      10.300  -0.721  23.506  0.00  0.00    -0.480 OA
ATOM     11  H   UNK     1       9.932  -1.564  23.138  0.00  0.00    +0.295 HD
ENDBRANCH   8  10
ENDBRANCH   4   8
ENDBRANCH   3   4
ENDBRANCH   2   3
ENDBRANCH   1   2
BRANCH   1  12
ATOM     12  C   UNK     1      10.160   5.862  23.440  0.00  0.00    +0.195 C 
BRANCH  12  13
ATOM     13  N   UNK     1      11.434   5.289  23.062  0.00  0.00    -0.279 N 
ATOM     14  H   UNK     1      11.373   4.625  22.294  0.00  0.00    +0.258 HD
ATOM     15  C   UNK     1      12.651   5.532  23.557  0.00  0.00    +0.347 C 
ATOM     16  N   UNK     1      13.762   5.058  23.175  0.00  0.00    -0.132 NA
ATOM     17  H   UNK     1      13.622   4.421  22.380  0.00  0.00    +0.306 HD
BRANCH  15  18
ATOM     18  N   UNK     1      12.851   6.382  24.619  0.00  0.00    -0.392 NA
ATOM     19  H   UNK     1      12.959   7.363  24.390  0.00  0.00    +0.216 HD
ATOM     20  H   UNK     1      12.084   6.179  25.263  0.00  0.00    +0.216 HD
ATOM     21  H   UNK     1      13.661   6.009  25.118  0.00  0.00    +0.216 HD
ENDBRANCH  15  18
ENDBRANCH  12  13
ENDBRANCH   1  12
TORSDOF 9
ENDMDL
MODEL 4
REMARK VINA RESULT:      -5.0      4.576      7.309
REMARK  Name = 
REMARK  9 active torsions:
REMARK  status: ('A' for Active; 'I' for Inactive)
REMARK    1  A    between atoms: N_1  and  C_2
REMARK    2  A    between atoms: C_2  and  C_4
REMARK    3  A    between atoms: C_2  and  C_15
REMARK    4  A    between atoms: C_4  and  C_5
REMARK    5  A    between atoms: C_5  and  C_6
REMARK    6  A    between atoms: C_6  and  C_7
REMARK    7  A    between atoms: C_7  and  N_8
REMARK    8  A    between atoms: C_9  and  N_10
REMARK    9  A    between atoms: C_15  and  O_16
REMARK                            x       y       z     vdW  Elec       q    Type
REMARK                         _______ _______ _______ _____ _____    ______ ____
ROOT
ATOM      1  C   UNK     1       8.552  -2.006  23.426  0.00  0.00    +0.037 C 
ENDROOT
BRANCH   1   2
ATOM      2  C   UNK     1       9.062  -1.641  22.028  0.00  0.00    +0.005 C 
BRANCH   2   3
ATOM      3  C   UNK     1      10.126  -0.534  22.040  0.00  0.00    +0.030 C 
BRANCH   3   4
ATOM      4  C   UNK     1       9.651   0.802  22.629  0.00  0.00    +0.161 C 
BRANCH   4   5
ATOM      5  N   UNK     1       9.807   1.867  21.589  0.00  0.00    -0.318 NA
ATOM      6  H   UNK     1       9.143   1.701  20.826  0.00  0.00    +0.119 HD
ATOM      7  H   UNK     1       9.498   2.757  21.995  0.00  0.00    +0.119 HD
ENDBRANCH   4   5
BRANCH   4   8
ATOM      8  C   UNK     1      10.487   1.217  23.860  0.00  0.00    +0.322 C 
ATOM      9  O   UNK     1      10.789   0.489  24.794  0.00  0.00    -0.249 OA
BRANCH   8  10
ATOM     10  O   UNK     1      10.891   2.508  23.773  0.00  0.00    -0.480 OA
ATOM     11  H   UNK     1      11.649   2.600  24.405  0.00  0.00    +0.295 HD
ENDBRANCH   8  10
ENDBRANCH   4   8
ENDBRANCH   3   4
ENDBRANCH   2   3
ENDBRANCH   1   2
BRANCH   1  12
ATOM     12  C   UNK     1       9.510  -2.932  24.178  0.00  0.00    +0.195 C 
BRANCH  12  13
ATOM     13  N   UNK     1       8.780  -3.771  25.104  0.00  0.00    -0.279 N 
ATOM     14  H   UNK     1       7.860  -3.410  25.347  0.00  0.00    +0.258 HD
ATOM     15  C   UNK     1       9.135  -4.940  25.646  0.00  0.00    +0.347 C 
ATOM     16  N   UNK     1       8.458  -5.685  26.415  0.00  0.00    -0.132 NA
ATOM     17  H   UNK     1       7.534  -5.270  26.589  0.00  0.00    +0.306 HD
BRANCH  15  18
ATOM     18  N   UNK     1      10.368  -5.505  25.420  0.00  0.00    -0.392 NA
ATOM     19  H   UNK     1      11.104  -4.870  25.137  0.00  0.00    +0.216 HD
ATOM     20  H   UNK     1      10.570  -6.037  26.268  0.00  0.00    +0.216 HD
ATOM     21  H   UNK     1      10.206  -6.244  24.732  0.00  0.00    +0.216 HD
ENDBRANCH  15  18
ENDBRANCH  12  13
ENDBRANCH   1  12
TORSDOF 9
ENDMDL
MODEL 5
REMARK VINA RESULT:      -4.9      4.353      6.202
REMARK  Name = 
REMARK  9 active torsions:
REMARK  status: ('A' for Active; 'I' for Inactive)
REMARK    1  A    between atoms: N_1  and  C_2
REMARK    2  A    between atoms: C_2  and  C_4
REMARK    3  A    between atoms: C_2  and  C_15
REMARK    4  A    between atoms: C_4  and  C_5
REMARK    5  A    between atoms: C_5  and  C_6
REMARK    6  A    between atoms: C_6  and  C_7
REMARK    7  A    between atoms: C_7  and  N_8
REMARK    8  A    between atoms: C_9  and  N_10
REMARK    9  A    between atoms: C_15  and  O_16
REMARK                            x       y       z     vdW  Elec       q    Type
REMARK                         _______ _______ _______ _____ _____    ______ ____
ROOT
ATOM      1  C   UNK     1      10.087  -2.163  23.080  0.00  0.00    +0.037 C 
ENDROOT
BRANCH   1   2
ATOM      2  C   UNK     1       9.387  -2.293  24.438  0.00  0.00    +0.005 C 
BRANCH   2   3
ATOM      3  C   UNK     1       8.753  -3.672  24.664  0.00  0.00    +0.030 C 
BRANCH   3   4
ATOM      4  C   UNK     1       9.130  -4.338  25.995  0.00  0.00    +0.161 C 
BRANCH   4   5
ATOM      5  N   UNK     1       9.872  -5.605  25.704  0.00  0.00    -0.318 NA
ATOM      6  H   UNK     1      10.558  -5.437  24.960  0.00  0.00    +0.119 HD
ATOM      7  H   UNK     1      10.448  -5.833  26.522  0.00  0.00    +0.119 HD
ENDBRANCH   4   5
BRANCH   4   8
ATOM      8  C   UNK     1       7.882  -4.703  26.830  0.00  0.00    +0.322 C 
ATOM      9  O   UNK     1       6.875  -4.019  26.941  0.00  0.00    -0.249 OA
BRANCH   8  10
ATOM     10  O   UNK     1       8.015  -5.918  27.416  0.00  0.00    -0.480 OA
ATOM     11  H   UNK     1       7.133  -6.125  27.816  0.00  0.00    +0.295 HD
ENDBRANCH   8  10
ENDBRANCH   4   8
ENDBRANCH   3   4
ENDBRANCH   2   3
ENDBRANCH   1   2
BRANCH   1  12
ATOM     12  C   UNK     1       9.411  -1.140  22.166  0.00  0.00    +0.195 C 
BRANCH  12  13
ATOM     13  N   UNK     1      10.051   0.152  22.290  0.00  0.00    -0.279 N 
ATOM     14  H   UNK     1      10.907   0.134  22.840  0.00  0.00    +0.258 HD
ATOM     15  C   UNK     1       9.690   1.329  21.770  0.00  0.00    +0.347 C 
ATOM     16  N   UNK     1      10.295   2.439  21.848  0.00  0.00    -0.132 NA
ATOM     17  H   UNK     1      11.162   2.334  22.391  0.00  0.00    +0.306 HD
BRANCH  15  18
ATOM     18  N   UNK     1       8.533   1.481  21.042  0.00  0.00    -0.392 NA
ATOM     19  H   UNK     1       7.807   2.039  21.473  0.00  0.00    +0.216 HD
ATOM     20  H   UNK     1       8.843   1.819  20.129  0.00  0.00    +0.216 HD
ATOM     21  H   UNK     1       8.219   0.532  20.829  0.00  0.00    +0.216 HD
ENDBRANCH  15  18
ENDBRANCH  12  13
ENDBRANCH   1  12
TORSDOF 9
ENDMDL
MODEL 6
REMARK VINA RESULT:      -4.9      6.466      7.498
REMARK  Name = 
REMARK  9 active torsions:
REMARK  status: ('A' for Active; 'I' for Inactive)
REMARK    1  A    between atoms: N_1  and  C_2
REMARK    2  A    between atoms: C_2  and  C_4
REMARK    3  A    between atoms: C_2  and  C_15
REMARK    4  A    between atoms: C_4  and  C_5
REMARK    5  A    between atoms: C_5  and  C_6
REMARK    6  A    between atoms: C_6  and  C_7
REMARK    7  A    between atoms: C_7  and  N_8
REMARK    8  A    between atoms: C_9  and  N_10
REMARK    9  A    between atoms: C_15  and  O_16
REMARK                            x       y       z     vdW  Elec       q    Type
REMARK                         _______ _______ _______ _____ _____    ______ ____
ROOT
ATOM      1  C   UNK     1       7.417  -1.613  25.666  0.00  0.00    +0.037 C 
ENDROOT
BRANCH   1   2
ATOM      2  C   UNK     1       6.603  -1.899  24.399  0.00  0.00    +0.005 C 
BRANCH   2   3
ATOM      3  C   UNK     1       7.220  -1.292  23.131  0.00  0.00    +0.030 C 
BRANCH   3   4
ATOM      4  C   UNK     1       8.083  -2.265  22.314  0.00  0.00    +0.161 C 
BRANCH   4   5
ATOM      5  N   UNK     1       7.758  -3.664  22.735  0.00  0.00    -0.318 NA
ATOM      6  H   UNK     1       7.995  -4.314  21.978  0.00  0.00    +0.119 HD
ATOM      7  H   UNK     1       8.397  -3.926  23.493  0.00  0.00    +0.119 HD
ENDBRANCH   4   5
BRANCH   4   8
ATOM      8  C   UNK     1       9.592  -2.037  22.555  0.00  0.00    +0.322 C 
ATOM      9  O   UNK     1      10.200  -2.323  23.575  0.00  0.00    -0.249 OA
BRANCH   8  10
ATOM     10  O   UNK     1      10.193  -1.501  21.464  0.00  0.00    -0.480 OA
ATOM     11  H   UNK     1       9.991  -2.113  20.713  0.00  0.00    +0.295 HD
ENDBRANCH   8  10
ENDBRANCH   4   8
ENDBRANCH   3   4
ENDBRANCH   2   3
ENDBRANCH   1   2
BRANCH   1  12
ATOM     12  C   UNK     1       7.753  -2.884  26.448  0.00  0.00    +0.195 C 
BRANCH  12  13
ATOM     13  N   UNK     1       8.796  -3.630  25.778  0.00  0.00    -0.279 N 
ATOM     14  H   UNK     1       9.371  -3.064  25.158  0.00  0.00    +0.258 HD
ATOM     15  C   UNK     1       9.111  -4.924  25.883  0.00  0.00    +0.347 C 
ATOM     16  N   UNK     1      10.063  -5.547  25.325  0.00  0.00    -0.132 NA
ATOM     17  H   UNK     1      10.615  -4.905  24.742  0.00  0.00    +0.306 HD
BRANCH  15  18
ATOM     18  N   UNK     1       8.382  -5.792  26.661  0.00  0.00    -0.392 NA
ATOM     19  H   UNK     1       8.323  -6.746  26.327  0.00  0.00    +0.216 HD
ATOM     20  H   UNK     1       8.776  -5.695  27.599  0.00  0.00    +0.216 HD
ATOM     21  H   UNK     1       7.462  -5.359  26.763  0.00  0.00    +0.216 HD
ENDBRANCH  15  18
ENDBRANCH  12  13
ENDBRANCH   1  12
TORSDOF 9
ENDMDL
MODEL 7
REMARK VINA RESULT:      -4.9      4.685      7.211
REMARK  Name = 
REMARK  9 active torsions:
REMARK  status: ('A' for Active; 'I' for Inactive)
REMARK    1  A    between atoms: N_1  and  C_2
REMARK    2  A    between atoms: C_2  and  C_4
REMARK    3  A    between atoms: C_2  and  C_15
REMARK    4  A    between atoms: C_4  and  C_5
REMARK    5  A    between atoms: C_5  and  C_6
REMARK    6  A    between atoms: C_6  and  C_7
REMARK    7  A    between atoms: C_7  and  N_8
REMARK    8  A    between atoms: C_9  and  N_10
REMARK    9  A    between atoms: C_15  and  O_16
REMARK                            x       y       z     vdW  Elec       q    Type
REMARK                         _______ _______ _______ _____ _____    ______ ____
ROOT
ATOM      1  C   UNK     1       8.527  -1.456  24.570  0.00  0.00    +0.037 C 
ENDROOT
BRANCH   1   2
ATOM      2  C   UNK     1       9.301  -0.355  25.303  0.00  0.00    +0.005 C 
BRANCH   2   3
ATOM      3  C   UNK     1      10.535   0.134  24.533  0.00  0.00    +0.030 C 
BRANCH   3   4
ATOM      4  C   UNK     1      10.338   1.463  23.788  0.00  0.00    +0.161 C 
BRANCH   4   5
ATOM      5  N   UNK     1       9.120   2.142  24.334  0.00  0.00    -0.318 NA
ATOM      6  H   UNK     1       9.247   3.159  24.293  0.00  0.00    +0.119 HD
ATOM      7  H   UNK     1       8.341   1.964  23.691  0.00  0.00    +0.119 HD
ENDBRANCH   4   5
BRANCH   4   8
ATOM      8  C   UNK     1      10.119   1.247  22.274  0.00  0.00    +0.322 C 
ATOM      9  O   UNK     1       9.845   0.183  21.739  0.00  0.00    -0.249 OA
BRANCH   8  10
ATOM     10  O   UNK     1      10.233   2.409  21.585  0.00  0.00    -0.480 OA
ATOM     11  H   UNK     1      10.500   3.094  22.249  0.00  0.00    +0.295 HD
ENDBRANCH   8  10
ENDBRANCH   4   8
ENDBRANCH   3   4
ENDBRANCH   2   3
ENDBRANCH   1   2
BRANCH   1  12
ATOM     12  C   UNK     1       9.265  -2.796  24.573  0.00  0.00    +0.195 C 
BRANCH  12  13
ATOM     13  N   UNK     1       8.671  -3.698  25.536  0.00  0.00    -0.279 N 
ATOM     14  H   UNK     1       7.841  -3.325  25.990  0.00  0.00    +0.258 HD
ATOM     15  C   UNK     1       9.046  -4.934  25.879  0.00  0.00    +0.347 C 
ATOM     16  N   UNK     1       8.480  -5.728  26.688  0.00  0.00    -0.132 NA
ATOM     17  H   UNK     1       7.635  -5.294  27.081  0.00  0.00    +0.306 HD
BRANCH  15  18
ATOM     18  N   UNK     1      10.172  -5.527  25.360  0.00  0.00    -0.392 NA
ATOM     19  H   UNK     1      10.283  -5.468  24.355  0.00  0.00    +0.216 HD
ATOM     20  H   UNK     1      10.946  -5.129  25.895  0.00  0.00    +0.216 HD
ATOM     21  H   UNK     1      10.150  -6.493  25.692  0.00  0.00    +0.216 HD
ENDBRANCH  15  18
ENDBRANCH  12  13
ENDBRANCH   1  12
TORSDOF 9
ENDMDL
MODEL 8
REMARK VINA RESULT:      -4.9      4.669      7.169
REMARK  Name = 
REMARK  9 active torsions:
REMARK  status: ('A' for Active; 'I' for Inactive)
REMARK    1  A    between atoms: N_1  and  C_2
REMARK    2  A    between atoms: C_2  and  C_4
REMARK    3  A    between atoms: C_2  and  C_15
REMARK    4  A    between atoms: C_4  and  C_5
REMARK    5  A    between atoms: C_5  and  C_6
REMARK    6  A    between atoms: C_6  and  C_7
REMARK    7  A    between atoms: C_7  and  N_8
REMARK    8  A    between atoms: C_9  and  N_10
REMARK    9  A    between atoms: C_15  and  O_16
REMARK                            x       y       z     vdW  Elec       q    Type
REMARK                         _______ _______ _______ _____ _____    ______ ____
ROOT
ATOM      1  C   UNK     1       8.109  -1.660  26.001  0.00  0.00    +0.037 C 
ENDROOT
BRANCH   1   2
ATOM      2  C   UNK     1       8.403  -0.653  24.884  0.00  0.00    +0.005 C 
BRANCH   2   3
ATOM      3  C   UNK     1       9.880  -0.242  24.810  0.00  0.00    +0.030 C 
BRANCH   3   4
ATOM      4  C   UNK     1      10.464  -0.213  23.390  0.00  0.00    +0.161 C 
BRANCH   4   5
ATOM      5  N   UNK     1       9.688   0.772  22.572  0.00  0.00    -0.318 NA
ATOM      6  H   UNK     1       9.955   1.726  22.839  0.00  0.00    +0.119 HD
ATOM      7  H   UNK     1       9.998   0.694  21.598  0.00  0.00    +0.119 HD
ENDBRANCH   4   5
BRANCH   4   8
ATOM      8  C   UNK     1      10.358  -1.589  22.696  0.00  0.00    +0.322 C 
ATOM      9  O   UNK     1      10.480  -2.674  23.245  0.00  0.00    -0.249 OA
BRANCH   8  10
ATOM     10  O   UNK     1      10.072  -1.459  21.377  0.00  0.00    -0.480 OA
ATOM     11  H   UNK     1       9.782  -2.356  21.071  0.00  0.00    +0.295 HD
ENDBRANCH   8  10
ENDBRANCH   4   8
ENDBRANCH   3   4
ENDBRANCH   2   3
ENDBRANCH   1   2
BRANCH   1  12
ATOM     12  C   UNK     1       7.585  -2.994  25.467  0.00  0.00    +0.195 C 
BRANCH  12  13
ATOM     13  N   UNK     1       8.685  -3.857  25.094  0.00  0.00    -0.279 N 
ATOM     14  H   UNK     1       9.222  -3.517  24.300  0.00  0.00    +0.258 HD
ATOM     15  C   UNK     1       9.092  -4.999  25.657  0.00  0.00    +0.347 C 
ATOM     16  N   UNK     1      10.091  -5.713  25.346  0.00  0.00    -0.132 NA
ATOM     17  H   UNK     1      10.600  -5.290  24.559  0.00  0.00    +0.306 HD
BRANCH  15  18
ATOM     18  N   UNK     1       8.421  -5.574  26.710  0.00  0.00    -0.392 NA
ATOM     19  H   UNK     1       8.940  -6.257  27.248  0.00  0.00    +0.216 HD
ATOM     20  H   UNK     1       8.068  -4.785  27.255  0.00  0.00    +0.216 HD
ATOM     21  H   UNK     1       7.566  -5.963  26.308  0.00  0.00    +0.216 HD
ENDBRANCH  15  18
ENDBRANCH  12  13
ENDBRANCH   1  12
TORSDOF 9
ENDMDL
MODEL 9
REMARK VINA RESULT:      -4.8      7.148      8.349
REMARK  Name = 
REMARK  9 active torsions:
REMARK  status: ('A' for Active; 'I' for Inactive)
REMARK    1  A    between atoms: N_1  and  C_2
REMARK    2  A    between atoms: C_2  and  C_4
REMARK    3  A    between atoms: C_2  and  C_15
REMARK    4  A    between atoms: C_4  and  C_5
REMARK    5  A    between atoms: C_5  and  C_6
REMARK    6  A    between atoms: C_6  and  C_7
REMARK    7  A    between atoms: C_7  and  N_8
REMARK    8  A    between atoms: C_9  and  N_10
REMARK    9  A    between atoms: C_15  and  O_16
REMARK                            x       y       z     vdW  Elec       q    Type
REMARK                         _______ _______ _______ _____ _____    ______ ____
ROOT
ATOM      1  C   UNK     1       8.320  -2.455  23.001  0.00  0.00    +0.037 C 
ENDROOT
BRANCH   1   2
ATOM      2  C   UNK     1       6.881  -2.445  23.528  0.00  0.00    +0.005 C 
BRANCH   2   3
ATOM      3  C   UNK     1       5.888  -3.152  22.596  0.00  0.00    +0.030 C 
BRANCH   3   4
ATOM      4  C   UNK     1       5.507  -4.575  23.030  0.00  0.00    +0.161 C 
BRANCH   4   5
ATOM      5  N   UNK     1       5.722  -4.700  24.506  0.00  0.00    -0.318 NA
ATOM      6  H   UNK     1       4.816  -4.784  24.979  0.00  0.00    +0.119 HD
ATOM      7  H   UNK     1       6.180  -5.600  24.688  0.00  0.00    +0.119 HD
ENDBRANCH   4   5
BRANCH   4   8
ATOM      8  C   UNK     1       6.382  -5.642  22.334  0.00  0.00    +0.322 C 
ATOM      9  O   UNK     1       7.568  -5.841  22.551  0.00  0.00    -0.249 OA
BRANCH   8  10
ATOM     10  O   UNK     1       5.660  -6.380  21.456  0.00  0.00    -0.480 OA
ATOM     11  H   UNK     1       4.890  -6.736  21.967  0.00  0.00    +0.295 HD
ENDBRANCH   8  10
ENDBRANCH   4   8
ENDBRANCH   3   4
ENDBRANCH   2   3
ENDBRANCH   1   2
BRANCH   1  12
ATOM     12  C   UNK     1       9.308  -3.061  23.999  0.00  0.00    +0.195 C 
BRANCH  12  13
ATOM     13  N   UNK     1       8.615  -3.905  24.948  0.00  0.00    -0.279 N 
ATOM     14  H   UNK     1       7.663  -3.605  25.145  0.00  0.00    +0.258 HD
ATOM     15  C   UNK     1       9.040  -5.012  25.564  0.00  0.00    +0.347 C 
ATOM     16  N   UNK     1       8.397  -5.767  26.352  0.00  0.00    -0.132 NA
ATOM     17  H   UNK     1       7.439  -5.417  26.477  0.00  0.00    +0.306 HD
BRANCH  15  18
ATOM     18  N   UNK     1      10.319  -5.491  25.404  0.00  0.00    -0.392 NA
ATOM     19  H   UNK     1      11.048  -4.986  25.893  0.00  0.00    +0.216 HD
ATOM     20  H   UNK     1      10.258  -6.482  25.641  0.00  0.00    +0.216 HD
ATOM     21  H   UNK     1      10.476  -5.516  24.394  0.00  0.00    +0.216 HD
ENDBRANCH  15  18
ENDBRANCH  12  13
ENDBRANCH   1  12
TORSDOF 9
ENDMDL
