MODEL 1
REMARK VINA RESULT:      -6.8      0.000      0.000
REMARK  Name = 
REMARK  4 active torsions:
REMARK  status: ('A' for Active; 'I' for Inactive)
REMARK    1  A    between atoms: N_1  and  C_2
REMARK    2  A    between atoms: C_3  and  N_4
REMARK    3  A    between atoms: N_5  and  C_6
REMARK    4  A    between atoms: C_9  and  O_10
REMARK                            x       y       z     vdW  Elec       q    Type
REMARK                         _______ _______ _______ _____ _____    ______ ____
ROOT
ATOM      1  C   UNL     1       9.074  -4.914  26.151  0.00  0.00    +0.141 A 
ATOM      2  N   UNL     1       8.327  -5.769  26.916  0.00  0.00    -0.261 N 
ATOM      3  H   UNL     1       8.548  -6.725  27.163  0.00  0.00    +0.190 HD
ATOM      4  N   UNL     1       7.179  -5.240  27.381  0.00  0.00    -0.155 NA
ATOM      5  C   UNL     1       7.184  -3.998  26.894  0.00  0.00    +0.167 A 
ATOM      6  N   UNL     1       6.179  -3.134  27.117  0.00  0.00    -0.340 N 
ATOM      7  H   UNL     1       5.537  -3.353  27.869  0.00  0.00    +0.144 HD
ATOM      8  H   UNL     1       6.342  -2.144  26.964  0.00  0.00    +0.144 HD
ATOM      9  C   UNL     1       8.361  -3.735  26.145  0.00  0.00    +0.166 A 
ENDROOT
BRANCH   1  10
ATOM     10  N   UNL     1      10.248  -5.279  25.593  0.00  0.00    -0.342 N 
ATOM     11  H   UNL     1      11.136  -4.827  25.789  0.00  0.00    +0.144 HD
ATOM     12  H   UNL     1      10.333  -6.192  25.147  0.00  0.00    +0.144 HD
ENDBRANCH   1  10
BRANCH   9  13
ATOM     13  N   UNL     1       8.788  -2.574  25.486  0.00  0.00    -0.142 NA
ATOM     14  N   UNL     1       9.106  -2.749  24.292  0.00  0.00    -0.149 NA
BRANCH  14  15
ATOM     15  C   UNL     1       9.412  -1.532  23.647  0.00  0.00    +0.086 A 
ATOM     16  C   UNL     1       9.173  -1.436  22.270  0.00  0.00    +0.033 A 
ATOM     17  C   UNL     1       9.459  -0.260  21.572  0.00  0.00    +0.047 A 
ATOM     18  C   UNL     1       9.988   0.829  22.251  0.00  0.00    +0.117 A 
ATOM     19  C   UNL     1      10.254   0.758  23.614  0.00  0.00    +0.047 A 
ATOM     20  C   UNL     1       9.972  -0.425  24.305  0.00  0.00    +0.033 A 
BRANCH  18  21
ATOM     21  O   UNL     1      10.235   1.964  21.537  0.00  0.00    -0.507 OA
ATOM     22  H   UNL     1      11.131   2.276  21.746  0.00  0.00    +0.292 HD
ENDBRANCH  18  21
ENDBRANCH  14  15
ENDBRANCH   9  13
TORSDOF 4
ENDMDL
MODEL 2
REMARK VINA RESULT:      -6.3      0.226      1.953
REMARK  Name = 
REMARK  4 active torsions:
REMARK  status: ('A' for Active; 'I' for Inactive)
REMARK    1  A    between atoms: N_1  and  C_2
REMARK    2  A    between atoms: C_3  and  N_4
REMARK    3  A    between atoms: N_5  and  C_6
REMARK    4  A    between atoms: C_9  and  O_10
REMARK                            x       y       z     vdW  Elec       q    Type
REMARK                         _______ _______ _______ _____ _____    ______ ____
ROOT
ATOM      1  C   UNL     1       7.114  -3.727  26.685  0.00  0.00    +0.141 A 
ATOM      2  N   UNL     1       7.058  -5.028  27.107  0.00  0.00    -0.261 N 
ATOM      3  H   UNL     1       6.315  -5.473  27.631  0.00  0.00    +0.190 HD
ATOM      4  N   UNL     1       8.127  -5.771  26.762  0.00  0.00    -0.155 NA
ATOM      5  C   UNL     1       8.904  -4.916  26.095  0.00  0.00    +0.167 A 
ATOM      6  N   UNL     1      10.099  -5.270  25.594  0.00  0.00    -0.340 N 
ATOM      7  H   UNL     1      10.291  -6.260  25.509  0.00  0.00    +0.144 HD
ATOM      8  H   UNL     1      10.523  -4.685  24.881  0.00  0.00    +0.144 HD
ATOM      9  C   UNL     1       8.301  -3.634  25.992  0.00  0.00    +0.166 A 
ENDROOT
BRANCH   1  10
ATOM     10  N   UNL     1       6.135  -2.836  26.951  0.00  0.00    -0.342 N 
ATOM     11  H   UNL     1       5.198  -2.886  26.563  0.00  0.00    +0.144 HD
ATOM     12  H   UNL     1       6.220  -2.220  27.759  0.00  0.00    +0.144 HD
ENDBRANCH   1  10
BRANCH   9  13
ATOM     13  N   UNL     1       8.744  -2.461  25.366  0.00  0.00    -0.142 NA
ATOM     14  N   UNL     1       9.116  -2.618  24.184  0.00  0.00    -0.149 NA
BRANCH  14  15
ATOM     15  C   UNL     1       9.438  -1.391  23.568  0.00  0.00    +0.086 A 
ATOM     16  C   UNL     1       9.154  -1.243  22.204  0.00  0.00    +0.033 A 
ATOM     17  C   UNL     1       9.452  -0.054  21.534  0.00  0.00    +0.047 A 
ATOM     18  C   UNL     1      10.039   0.996  22.228  0.00  0.00    +0.117 A 
ATOM     19  C   UNL     1      10.350   0.872  23.577  0.00  0.00    +0.047 A 
ATOM     20  C   UNL     1      10.055  -0.324  24.240  0.00  0.00    +0.033 A 
BRANCH  18  21
ATOM     21  O   UNL     1      10.296   2.146  21.542  0.00  0.00    -0.507 OA
ATOM     22  H   UNL     1      10.821   2.736  22.107  0.00  0.00    +0.292 HD
ENDBRANCH  18  21
ENDBRANCH  14  15
ENDBRANCH   9  13
TORSDOF 4
ENDMDL
MODEL 3
REMARK VINA RESULT:      -6.1      3.613      6.326
REMARK  Name = 
REMARK  4 active torsions:
REMARK  status: ('A' for Active; 'I' for Inactive)
REMARK    1  A    between atoms: N_1  and  C_2
REMARK    2  A    between atoms: C_3  and  N_4
REMARK    3  A    between atoms: N_5  and  C_6
REMARK    4  A    between atoms: C_9  and  O_10
REMARK                            x       y       z     vdW  Elec       q    Type
REMARK                         _______ _______ _______ _____ _____    ______ ____
ROOT
ATOM      1  C   UNL     1       9.562   0.136  22.019  0.00  0.00    +0.141 A 
ATOM      2  N   UNL     1       9.870   1.419  21.654  0.00  0.00    -0.261 N 
ATOM      3  H   UNL     1      10.147   1.748  20.738  0.00  0.00    +0.190 HD
ATOM      4  N   UNL     1       9.776   2.318  22.652  0.00  0.00    -0.155 NA
ATOM      5  C   UNL     1       9.397   1.587  23.701  0.00  0.00    +0.167 A 
ATOM      6  N   UNL     1       9.212   2.120  24.920  0.00  0.00    -0.340 N 
ATOM      7  H   UNL     1       9.118   3.127  24.977  0.00  0.00    +0.144 HD
ATOM      8  H   UNL     1       8.676   1.598  25.607  0.00  0.00    +0.144 HD
ATOM      9  C   UNL     1       9.218   0.223  23.350  0.00  0.00    +0.166 A 
ENDROOT
BRANCH   1  10
ATOM     10  N   UNL     1       9.613  -0.897  21.150  0.00  0.00    -0.342 N 
ATOM     11  H   UNL     1       9.738  -0.792  20.148  0.00  0.00    +0.144 HD
ATOM     12  H   UNL     1       9.789  -1.839  21.497  0.00  0.00    +0.144 HD
ENDBRANCH   1  10
BRANCH   9  13
ATOM     13  N   UNL     1       8.809  -0.876  24.119  0.00  0.00    -0.142 NA
ATOM     14  N   UNL     1       9.461  -1.920  23.911  0.00  0.00    -0.149 NA
BRANCH  14  15
ATOM     15  C   UNL     1       9.088  -2.956  24.793  0.00  0.00    +0.086 A 
ATOM     16  C   UNL     1       8.110  -2.681  25.758  0.00  0.00    +0.033 A 
ATOM     17  C   UNL     1       7.699  -3.663  26.662  0.00  0.00    +0.047 A 
ATOM     18  C   UNL     1       8.267  -4.929  26.606  0.00  0.00    +0.117 A 
ATOM     19  C   UNL     1       9.254  -5.225  25.673  0.00  0.00    +0.047 A 
ATOM     20  C   UNL     1       9.666  -4.236  24.774  0.00  0.00    +0.033 A 
BRANCH  18  21
ATOM     21  O   UNL     1       7.825  -5.863  27.495  0.00  0.00    -0.507 OA
ATOM     22  H   UNL     1       8.426  -5.879  28.258  0.00  0.00    +0.292 HD
ENDBRANCH  18  21
ENDBRANCH  14  15
ENDBRANCH   9  13
TORSDOF 4
ENDMDL
MODEL 4
REMARK VINA RESULT:      -5.8      3.937      6.078
REMARK  Name = 
REMARK  4 active torsions:
REMARK  status: ('A' for Active; 'I' for Inactive)
REMARK    1  A    between atoms: N_1  and  C_2
REMARK    2  A    between atoms: C_3  and  N_4
REMARK    3  A    between atoms: N_5  and  C_6
REMARK    4  A    between atoms: C_9  and  O_10
REMARK                            x       y       z     vdW  Elec       q    Type
REMARK                         _______ _______ _______ _____ _____    ______ ____
ROOT
ATOM      1  C   UNL     1       9.810  -0.719  22.881  0.00  0.00    +0.141 A 
ATOM      2  N   UNL     1      10.612   0.269  23.385  0.00  0.00    -0.261 N 
ATOM      3  H   UNL     1      11.269   0.847  22.877  0.00  0.00    +0.190 HD
ATOM      4  N   UNL     1      10.477   0.471  24.709  0.00  0.00    -0.155 NA
ATOM      5  C   UNL     1       9.557  -0.423  25.074  0.00  0.00    +0.167 A 
ATOM      6  N   UNL     1       9.151  -0.560  26.347  0.00  0.00    -0.340 N 
ATOM      7  H   UNL     1       9.367   0.196  26.986  0.00  0.00    +0.144 HD
ATOM      8  H   UNL     1       8.280  -1.046  26.534  0.00  0.00    +0.144 HD
ATOM      9  C   UNL     1       9.085  -1.169  23.962  0.00  0.00    +0.166 A 
ENDROOT
BRANCH   1  10
ATOM     10  N   UNL     1       9.821  -1.066  21.575  0.00  0.00    -0.342 N 
ATOM     11  H   UNL     1      10.353  -1.844  21.197  0.00  0.00    +0.144 HD
ATOM     12  H   UNL     1       9.090  -0.719  20.955  0.00  0.00    +0.144 HD
ENDBRANCH   1  10
BRANCH   9  13
ATOM     13  N   UNL     1       8.117  -2.180  23.881  0.00  0.00    -0.142 NA
ATOM     14  N   UNL     1       8.498  -3.211  23.289  0.00  0.00    -0.149 NA
BRANCH  14  15
ATOM     15  C   UNL     1       7.529  -4.234  23.340  0.00  0.00    +0.086 A 
ATOM     16  C   UNL     1       6.923  -4.508  24.573  0.00  0.00    +0.033 A 
ATOM     17  C   UNL     1       5.958  -5.512  24.692  0.00  0.00    +0.047 A 
ATOM     18  C   UNL     1       5.595  -6.249  23.573  0.00  0.00    +0.117 A 
ATOM     19  C   UNL     1       6.192  -6.013  22.340  0.00  0.00    +0.047 A 
ATOM     20  C   UNL     1       7.162  -5.012  22.229  0.00  0.00    +0.033 A 
BRANCH  18  21
ATOM     21  O   UNL     1       4.636  -7.206  23.727  0.00  0.00    -0.507 OA
ATOM     22  H   UNL     1       5.068  -8.049  23.946  0.00  0.00    +0.292 HD
ENDBRANCH  18  21
ENDBRANCH  14  15
ENDBRANCH   9  13
TORSDOF 4
ENDMDL
MODEL 5
REMARK VINA RESULT:      -5.8      2.237      2.979
REMARK  Name = 
REMARK  4 active torsions:
REMARK  status: ('A' for Active; 'I' for Inactive)
REMARK    1  A    between atoms: N_1  and  C_2
REMARK    2  A    between atoms: C_3  and  N_4
REMARK    3  A    between atoms: N_5  and  C_6
REMARK    4  A    between atoms: C_9  and  O_10
REMARK                            x       y       z     vdW  Elec       q    Type
REMARK                         _______ _______ _______ _____ _____    ______ ____
ROOT
ATOM      1  C   UNL     1       8.505  -4.324  24.109  0.00  0.00    +0.141 A 
ATOM      2  N   UNL     1       7.814  -5.458  23.778  0.00  0.00    -0.261 N 
ATOM      3  H   UNL     1       7.947  -6.390  24.149  0.00  0.00    +0.190 HD
ATOM      4  N   UNL     1       6.852  -5.272  22.854  0.00  0.00    -0.155 NA
ATOM      5  C   UNL     1       6.928  -3.970  22.576  0.00  0.00    +0.167 A 
ATOM      6  N   UNL     1       6.135  -3.381  21.666  0.00  0.00    -0.340 N 
ATOM      7  H   UNL     1       5.306  -3.886  21.377  0.00  0.00    +0.144 HD
ATOM      8  H   UNL     1       6.039  -2.370  21.681  0.00  0.00    +0.144 HD
ATOM      9  C   UNL     1       7.924  -3.326  23.358  0.00  0.00    +0.166 A 
ENDROOT
BRANCH   1  10
ATOM     10  N   UNL     1       9.512  -4.326  25.009  0.00  0.00    -0.342 N 
ATOM     11  H   UNL     1      10.455  -4.003  24.810  0.00  0.00    +0.144 HD
ATOM     12  H   UNL     1       9.301  -4.410  26.002  0.00  0.00    +0.144 HD
ENDBRANCH   1  10
BRANCH   9  13
ATOM     13  N   UNL     1       8.322  -1.983  23.410  0.00  0.00    -0.142 NA
ATOM     14  N   UNL     1       9.499  -1.782  23.046  0.00  0.00    -0.149 NA
BRANCH  14  15
ATOM     15  C   UNL     1       9.807  -0.406  23.006  0.00  0.00    +0.086 A 
ATOM     16  C   UNL     1      10.251   0.206  24.186  0.00  0.00    +0.033 A 
ATOM     17  C   UNL     1      10.569   1.566  24.213  0.00  0.00    +0.047 A 
ATOM     18  C   UNL     1      10.442   2.324  23.056  0.00  0.00    +0.117 A 
ATOM     19  C   UNL     1       9.985   1.749  21.875  0.00  0.00    +0.047 A 
ATOM     20  C   UNL     1       9.663   0.388  21.857  0.00  0.00    +0.033 A 
BRANCH  18  21
ATOM     21  O   UNL     1      10.780   3.643  23.121  0.00  0.00    -0.507 OA
ATOM     22  H   UNL     1      11.430   3.833  22.424  0.00  0.00    +0.292 HD
ENDBRANCH  18  21
ENDBRANCH  14  15
ENDBRANCH   9  13
TORSDOF 4
ENDMDL
MODEL 6
REMARK VINA RESULT:      -5.7      3.885      6.070
REMARK  Name = 
REMARK  4 active torsions:
REMARK  status: ('A' for Active; 'I' for Inactive)
REMARK    1  A    between atoms: N_1  and  C_2
REMARK    2  A    between atoms: C_3  and  N_4
REMARK    3  A    between atoms: N_5  and  C_6
REMARK    4  A    between atoms: C_9  and  O_10
REMARK                            x       y       z     vdW  Elec       q    Type
REMARK                         _______ _______ _______ _____ _____    ______ ____
ROOT
ATOM      1  C   UNL     1       9.413  -0.429  25.405  0.00  0.00    +0.141 A 
ATOM      2  N   UNL     1      10.443   0.398  25.046  0.00  0.00    -0.261 N 
ATOM      3  H   UNL     1      10.923   1.072  25.629  0.00  0.00    +0.190 HD
ATOM      4  N   UNL     1      10.840   0.268  23.766  0.00  0.00    -0.155 NA
ATOM      5  C   UNL     1      10.033  -0.677  23.280  0.00  0.00    +0.167 A 
ATOM      6  N   UNL     1      10.093  -1.087  22.002  0.00  0.00    -0.340 N 
ATOM      7  H   UNL     1      10.928  -0.852  21.479  0.00  0.00    +0.144 HD
ATOM      8  H   UNL     1       9.662  -1.971  21.751  0.00  0.00    +0.144 HD
ATOM      9  C   UNL     1       9.145  -1.166  24.274  0.00  0.00    +0.166 A 
ENDROOT
BRANCH   1  10
ATOM     10  N   UNL     1       8.880  -0.425  26.646  0.00  0.00    -0.342 N 
ATOM     11  H   UNL     1       9.411  -0.249  27.494  0.00  0.00    +0.144 HD
ATOM     12  H   UNL     1       7.870  -0.342  26.761  0.00  0.00    +0.144 HD
ENDBRANCH   1  10
BRANCH   9  13
ATOM     13  N   UNL     1       8.159  -2.162  24.212  0.00  0.00    -0.142 NA
ATOM     14  N   UNL     1       8.489  -3.171  23.556  0.00  0.00    -0.149 NA
BRANCH  14  15
ATOM     15  C   UNL     1       7.511  -4.185  23.625  0.00  0.00    +0.086 A 
ATOM     16  C   UNL     1       7.256  -4.936  22.470  0.00  0.00    +0.033 A 
ATOM     17  C   UNL     1       6.296  -5.952  22.472  0.00  0.00    +0.047 A 
ATOM     18  C   UNL     1       5.585  -6.221  23.634  0.00  0.00    +0.117 A 
ATOM     19  C   UNL     1       5.802  -5.480  24.790  0.00  0.00    +0.047 A 
ATOM     20  C   UNL     1       6.760  -4.460  24.779  0.00  0.00    +0.033 A 
BRANCH  18  21
ATOM     21  O   UNL     1       4.672  -7.232  23.599  0.00  0.00    -0.507 OA
ATOM     22  H   UNL     1       4.035  -7.054  22.888  0.00  0.00    +0.292 HD
ENDBRANCH  18  21
ENDBRANCH  14  15
ENDBRANCH   9  13
TORSDOF 4
ENDMDL
MODEL 7
REMARK VINA RESULT:      -5.7      3.633      6.502
REMARK  Name = 
REMARK  4 active torsions:
REMARK  status: ('A' for Active; 'I' for Inactive)
REMARK    1  A    between atoms: N_1  and  C_2
REMARK    2  A    between atoms: C_3  and  N_4
REMARK    3  A    between atoms: N_5  and  C_6
REMARK    4  A    between atoms: C_9  and  O_10
REMARK                            x       y       z     vdW  Elec       q    Type
REMARK                         _______ _______ _______ _____ _____    ______ ____
ROOT
ATOM      1  C   UNL     1       9.237   1.650  23.955  0.00  0.00    +0.141 A 
ATOM      2  N   UNL     1       9.626   2.307  22.819  0.00  0.00    -0.261 N 
ATOM      3  H   UNL     1       9.701   3.307  22.682  0.00  0.00    +0.190 HD
ATOM      4  N   UNL     1       9.941   1.498  21.789  0.00  0.00    -0.155 NA
ATOM      5  C   UNL     1       9.746   0.273  22.279  0.00  0.00    +0.167 A 
ATOM      6  N   UNL     1       9.933  -0.835  21.542  0.00  0.00    -0.340 N 
ATOM      7  H   UNL     1      10.468  -0.738  20.687  0.00  0.00    +0.144 HD
ATOM      8  H   UNL     1      10.035  -1.727  22.016  0.00  0.00    +0.144 HD
ATOM      9  C   UNL     1       9.336   0.313  23.638  0.00  0.00    +0.166 A 
ENDROOT
BRANCH   1  10
ATOM     10  N   UNL     1       8.873   2.301  25.080  0.00  0.00    -0.342 N 
ATOM     11  H   UNL     1       8.419   1.858  25.873  0.00  0.00    +0.144 HD
ATOM     12  H   UNL     1       9.275   3.215  25.287  0.00  0.00    +0.144 HD
ENDBRANCH   1  10
BRANCH   9  13
ATOM     13  N   UNL     1       9.048  -0.722  24.539  0.00  0.00    -0.142 NA
ATOM     14  N   UNL     1       8.375  -1.654  24.052  0.00  0.00    -0.149 NA
BRANCH  14  15
ATOM     15  C   UNL     1       8.216  -2.718  24.964  0.00  0.00    +0.086 A 
ATOM     16  C   UNL     1       9.111  -3.793  24.888  0.00  0.00    +0.033 A 
ATOM     17  C   UNL     1       9.005  -4.879  25.760  0.00  0.00    +0.047 A 
ATOM     18  C   UNL     1       7.998  -4.896  26.716  0.00  0.00    +0.117 A 
ATOM     19  C   UNL     1       7.082  -3.853  26.803  0.00  0.00    +0.047 A 
ATOM     20  C   UNL     1       7.190  -2.771  25.922  0.00  0.00    +0.033 A 
BRANCH  18  21
ATOM     21  O   UNL     1       7.941  -5.965  27.559  0.00  0.00    -0.507 OA
ATOM     22  H   UNL     1       8.649  -6.587  27.324  0.00  0.00    +0.292 HD
ENDBRANCH  18  21
ENDBRANCH  14  15
ENDBRANCH   9  13
TORSDOF 4
ENDMDL
MODEL 8
REMARK VINA RESULT:      -5.6      3.118      3.406
REMARK  Name = 
REMARK  4 active torsions:
REMARK  status: ('A' for Active; 'I' for Inactive)
REMARK    1  A    between atoms: N_1  and  C_2
REMARK    2  A    between atoms: C_3  and  N_4
REMARK    3  A    between atoms: N_5  and  C_6
REMARK    4  A    between atoms: C_9  and  O_10
REMARK                            x       y       z     vdW  Elec       q    Type
REMARK                         _______ _______ _______ _____ _____    ______ ____
ROOT
ATOM      1  C   UNL     1       5.914  -5.465  22.057  0.00  0.00    +0.141 A 
ATOM      2  N   UNL     1       5.432  -6.500  22.812  0.00  0.00    -0.261 N 
ATOM      3  H   UNL     1       5.245  -7.448  22.508  0.00  0.00    +0.190 HD
ATOM      4  N   UNL     1       5.200  -6.187  24.100  0.00  0.00    -0.155 NA
ATOM      5  C   UNL     1       5.541  -4.899  24.179  0.00  0.00    +0.167 A 
ATOM      6  N   UNL     1       5.431  -4.194  25.317  0.00  0.00    -0.340 N 
ATOM      7  H   UNL     1       5.325  -4.716  26.178  0.00  0.00    +0.144 HD
ATOM      8  H   UNL     1       5.941  -3.321  25.403  0.00  0.00    +0.144 HD
ATOM      9  C   UNL     1       6.024  -4.411  22.936  0.00  0.00    +0.166 A 
ENDROOT
BRANCH   1  10
ATOM     10  N   UNL     1       6.192  -5.595  20.742  0.00  0.00    -0.342 N 
ATOM     11  H   UNL     1       5.898  -4.934  20.029  0.00  0.00    +0.144 HD
ATOM     12  H   UNL     1       6.932  -6.230  20.443  0.00  0.00    +0.144 HD
ENDBRANCH   1  10
BRANCH   9  13
ATOM     13  N   UNL     1       6.506  -3.145  22.574  0.00  0.00    -0.142 NA
ATOM     14  N   UNL     1       7.525  -2.786  23.200  0.00  0.00    -0.149 NA
BRANCH  14  15
ATOM     15  C   UNL     1       8.034  -1.563  22.715  0.00  0.00    +0.086 A 
ATOM     16  C   UNL     1       7.274  -0.404  22.920  0.00  0.00    +0.033 A 
ATOM     17  C   UNL     1       7.720   0.838  22.461  0.00  0.00    +0.047 A 
ATOM     18  C   UNL     1       8.933   0.926  21.791  0.00  0.00    +0.117 A 
ATOM     19  C   UNL     1       9.700  -0.210  21.555  0.00  0.00    +0.047 A 
ATOM     20  C   UNL     1       9.244  -1.451  22.011  0.00  0.00    +0.033 A 
BRANCH  18  21
ATOM     21  O   UNL     1       9.342   2.159  21.376  0.00  0.00    -0.507 OA
ATOM     22  H   UNL     1       9.729   2.078  20.489  0.00  0.00    +0.292 HD
ENDBRANCH  18  21
ENDBRANCH  14  15
ENDBRANCH   9  13
TORSDOF 4
ENDMDL
MODEL 9
REMARK VINA RESULT:      -5.6      3.233      3.914
REMARK  Name = 
REMARK  4 active torsions:
REMARK  status: ('A' for Active; 'I' for Inactive)
REMARK    1  A    between atoms: N_1  and  C_2
REMARK    2  A    between atoms: C_3  and  N_4
REMARK    3  A    between atoms: N_5  and  C_6
REMARK    4  A    between atoms: C_9  and  O_10
REMARK                            x       y       z     vdW  Elec       q    Type
REMARK                         _______ _______ _______ _____ _____    ______ ____
ROOT
ATOM      1  C   UNL     1       5.137  -6.601  26.195  0.00  0.00    +0.141 A 
ATOM      2  N   UNL     1       4.137  -7.511  25.979  0.00  0.00    -0.261 N 
ATOM      3  H   UNL     1       3.714  -8.133  26.656  0.00  0.00    +0.190 HD
ATOM      4  N   UNL     1       3.687  -7.550  24.711  0.00  0.00    -0.155 NA
ATOM      5  C   UNL     1       4.426  -6.633  24.085  0.00  0.00    +0.167 A 
ATOM      6  N   UNL     1       4.296  -6.378  22.772  0.00  0.00    -0.340 N 
ATOM      7  H   UNL     1       3.456  -6.711  22.316  0.00  0.00    +0.144 HD
ATOM      8  H   UNL     1       4.672  -5.511  22.402  0.00  0.00    +0.144 HD
ATOM      9  C   UNL     1       5.325  -5.990  24.976  0.00  0.00    +0.166 A 
ENDROOT
BRANCH   1  10
ATOM     10  N   UNL     1       5.716  -6.435  27.404  0.00  0.00    -0.342 N 
ATOM     11  H   UNL     1       6.654  -6.750  27.635  0.00  0.00    +0.144 HD
ATOM     12  H   UNL     1       5.331  -5.754  28.058  0.00  0.00    +0.144 HD
ENDBRANCH   1  10
BRANCH   9  13
ATOM     13  N   UNL     1       6.255  -4.964  24.757  0.00  0.00    -0.142 NA
ATOM     14  N   UNL     1       7.096  -5.215  23.869  0.00  0.00    -0.149 NA
BRANCH  14  15
ATOM     15  C   UNL     1       7.931  -4.108  23.609  0.00  0.00    +0.086 A 
ATOM     16  C   UNL     1       7.605  -3.275  22.531  0.00  0.00    +0.033 A 
ATOM     17  C   UNL     1       8.393  -2.164  22.218  0.00  0.00    +0.047 A 
ATOM     18  C   UNL     1       9.515  -1.882  22.986  0.00  0.00    +0.117 A 
ATOM     19  C   UNL     1       9.875  -2.701  24.050  0.00  0.00    +0.047 A 
ATOM     20  C   UNL     1       9.085  -3.815  24.353  0.00  0.00    +0.033 A 
BRANCH  18  21
ATOM     21  O   UNL     1      10.246  -0.778  22.659  0.00  0.00    -0.507 OA
ATOM     22  H   UNL     1       9.945  -0.448  21.797  0.00  0.00    +0.292 HD
ENDBRANCH  18  21
ENDBRANCH  14  15
ENDBRANCH   9  13
TORSDOF 4
ENDMDL
