MODEL 1
REMARK VINA RESULT:      -4.1      0.000      0.000
REMARK  Name = 
REMARK  7 active torsions:
REMARK  status: ('A' for Active; 'I' for Inactive)
REMARK    1  A    between atoms: C_1  and  N_2
REMARK    2  A    between atoms: C_3  and  C_5
REMARK    3  A    between atoms: C_5  and  C_6
REMARK    4  A    between atoms: C_6  and  C_7
REMARK    5  A    between atoms: C_7  and  N_9
REMARK    6  A    between atoms: C_7  and  C_10
REMARK    7  A    between atoms: C_10  and  O_11
REMARK                            x       y       z     vdW  Elec       q    Type
REMARK                         _______ _______ _______ _____ _____    ______ ____
ROOT
ATOM      1  C   UNK     1       8.956  -4.637  26.461  0.00  0.00    +0.161 C 
ENDROOT
BRANCH   1   2
ATOM      2  N   UNK     1       9.899  -5.505  25.696  0.00  0.00    -0.318 NA
ATOM      3  H   UNK     1      10.749  -4.959  25.522  0.00  0.00    +0.119 HD
ATOM      4  H   UNK     1      10.215  -6.250  26.328  0.00  0.00    +0.119 HD
ENDBRANCH   1   2
BRANCH   1   5
ATOM      5  C   UNK     1       7.640  -5.402  26.666  0.00  0.00    +0.322 C 
ATOM      6  O   UNK     1       6.730  -5.476  25.858  0.00  0.00    -0.249 OA
BRANCH   5   7
ATOM      7  O   UNK     1       7.630  -6.039  27.869  0.00  0.00    -0.480 OA
ATOM      8  H   UNK     1       6.684  -6.265  28.048  0.00  0.00    +0.295 HD
ENDBRANCH   5   7
ENDBRANCH   1   5
BRANCH   1   9
ATOM      9  C   UNK     1       8.703  -3.307  25.745  0.00  0.00    +0.039 C 
BRANCH   9  10
ATOM     10  C   UNK     1       9.231  -3.247  24.306  0.00  0.00    +0.098 C 
BRANCH  10  14
ATOM     11  C   UNK     1       6.795  -5.255  22.237  0.00  0.00    +0.128 C 
ATOM     12  N   UNK     1       7.840  -4.833  23.131  0.00  0.00    -0.318 N 
ATOM     13  H   UNK     1       8.257  -5.513  23.750  0.00  0.00    +0.148 HD
ATOM     14  C   UNK     1       8.131  -3.496  23.288  0.00  0.00    +0.213 C 
ATOM     15  O   UNK     1       7.578  -2.602  22.660  0.00  0.00    -0.276 OA
ENDBRANCH  10  14
ENDBRANCH   9  10
ENDBRANCH   1   9
TORSDOF 6
ENDMDL
MODEL 2
REMARK VINA RESULT:      -4.1      3.975      6.015
REMARK  Name = 
REMARK  7 active torsions:
REMARK  status: ('A' for Active; 'I' for Inactive)
REMARK    1  A    between atoms: C_1  and  N_2
REMARK    2  A    between atoms: C_3  and  C_5
REMARK    3  A    between atoms: C_5  and  C_6
REMARK    4  A    between atoms: C_6  and  C_7
REMARK    5  A    between atoms: C_7  and  N_9
REMARK    6  A    between atoms: C_7  and  C_10
REMARK    7  A    between atoms: C_10  and  O_11
REMARK                            x       y       z     vdW  Elec       q    Type
REMARK                         _______ _______ _______ _____ _____    ______ ____
ROOT
ATOM      1  C   UNK     1       9.772   1.345  23.616  0.00  0.00    +0.161 C 
ENDROOT
BRANCH   1   2
ATOM      2  N   UNK     1       8.326   1.328  23.985  0.00  0.00    -0.318 NA
ATOM      3  H   UNK     1       7.833   1.945  23.331  0.00  0.00    +0.119 HD
ATOM      4  H   UNK     1       7.961   0.394  23.759  0.00  0.00    +0.119 HD
ENDBRANCH   1   2
BRANCH   1   5
ATOM      5  C   UNK     1       9.891   1.220  22.090  0.00  0.00    +0.322 C 
ATOM      6  O   UNK     1       9.611   0.230  21.437  0.00  0.00    -0.249 OA
BRANCH   5   7
ATOM      7  O   UNK     1      10.315   2.390  21.537  0.00  0.00    -0.480 OA
ATOM      8  H   UNK     1       9.529   2.991  21.539  0.00  0.00    +0.295 HD
ENDBRANCH   5   7
ENDBRANCH   1   5
BRANCH   1   9
ATOM      9  C   UNK     1      10.548   0.224  24.313  0.00  0.00    +0.039 C 
BRANCH   9  10
ATOM     10  C   UNK     1       9.669  -0.850  24.966  0.00  0.00    +0.098 C 
BRANCH  10  14
ATOM     11  C   UNK     1       7.844  -2.866  22.348  0.00  0.00    +0.128 C 
ATOM     12  N   UNK     1       8.234  -1.877  23.317  0.00  0.00    -0.318 N 
ATOM     13  H   UNK     1       7.719  -1.010  23.365  0.00  0.00    +0.148 HD
ATOM     14  C   UNK     1       9.406  -2.015  24.028  0.00  0.00    +0.213 C 
ATOM     15  O   UNK     1      10.149  -2.984  23.930  0.00  0.00    -0.276 OA
ENDBRANCH  10  14
ENDBRANCH   9  10
ENDBRANCH   1   9
TORSDOF 6
ENDMDL
MODEL 3
REMARK VINA RESULT:      -4.1      4.021      5.916
REMARK  Name = 
REMARK  7 active torsions:
REMARK  status: ('A' for Active; 'I' for Inactive)
REMARK    1  A    between atoms: C_1  and  N_2
REMARK    2  A    between atoms: C_3  and  C_5
REMARK    3  A    between atoms: C_5  and  C_6
REMARK    4  A    between atoms: C_6  and  C_7
REMARK    5  A    between atoms: C_7  and  N_9
REMARK    6  A    between atoms: C_7  and  C_10
REMARK    7  A    between atoms: C_10  and  O_11
REMARK                            x       y       z     vdW  Elec       q    Type
REMARK                         _______ _______ _______ _____ _____    ______ ____
ROOT
ATOM      1  C   UNK     1       8.806   1.139  21.511  0.00  0.00    +0.161 C 
ENDROOT
BRANCH   1   2
ATOM      2  N   UNK     1       9.867   2.177  21.668  0.00  0.00    -0.318 NA
ATOM      3  H   UNK     1      10.024   2.309  22.673  0.00  0.00    +0.119 HD
ATOM      4  H   UNK     1      10.750   1.769  21.336  0.00  0.00    +0.119 HD
ENDBRANCH   1   2
BRANCH   1   5
ATOM      5  C   UNK     1       7.862   1.216  22.720  0.00  0.00    +0.322 C 
ATOM      6  O   UNK     1       8.007   1.945  23.687  0.00  0.00    -0.249 OA
BRANCH   5   7
ATOM      7  O   UNK     1       6.796   0.385  22.559  0.00  0.00    -0.480 OA
ATOM      8  H   UNK     1       6.362   0.663  21.714  0.00  0.00    +0.295 HD
ENDBRANCH   5   7
ENDBRANCH   1   5
BRANCH   1   9
ATOM      9  C   UNK     1       9.403  -0.265  21.379  0.00  0.00    +0.039 C 
BRANCH   9  10
ATOM     10  C   UNK     1      10.106  -0.781  22.641  0.00  0.00    +0.098 C 
BRANCH  10  14
ATOM     11  C   UNK     1       7.640  -3.630  22.879  0.00  0.00    +0.128 C 
ATOM     12  N   UNK     1       8.297  -2.381  22.599  0.00  0.00    -0.318 N 
ATOM     13  H   UNK     1       7.882  -1.751  21.928  0.00  0.00    +0.148 HD
ATOM     14  C   UNK     1       9.564  -2.131  23.078  0.00  0.00    +0.213 C 
ATOM     15  O   UNK     1      10.182  -2.905  23.799  0.00  0.00    -0.276 OA
ENDBRANCH  10  14
ENDBRANCH   9  10
ENDBRANCH   1   9
TORSDOF 6
ENDMDL
MODEL 4
REMARK VINA RESULT:      -4.0      2.772      3.453
REMARK  Name = 
REMARK  7 active torsions:
REMARK  status: ('A' for Active; 'I' for Inactive)
REMARK    1  A    between atoms: C_1  and  N_2
REMARK    2  A    between atoms: C_3  and  C_5
REMARK    3  A    between atoms: C_5  and  C_6
REMARK    4  A    between atoms: C_6  and  C_7
REMARK    5  A    between atoms: C_7  and  N_9
REMARK    6  A    between atoms: C_7  and  C_10
REMARK    7  A    between atoms: C_10  and  O_11
REMARK                            x       y       z     vdW  Elec       q    Type
REMARK                         _______ _______ _______ _____ _____    ______ ____
ROOT
ATOM      1  C   UNK     1       8.068  -4.761  26.041  0.00  0.00    +0.161 C 
ENDROOT
BRANCH   1   2
ATOM      2  N   UNK     1       8.173  -5.647  27.237  0.00  0.00    -0.318 NA
ATOM      3  H   UNK     1       7.256  -6.083  27.380  0.00  0.00    +0.119 HD
ATOM      4  H   UNK     1       8.780  -6.437  26.984  0.00  0.00    +0.119 HD
ENDBRANCH   1   2
BRANCH   1   5
ATOM      5  C   UNK     1       8.961  -5.330  24.929  0.00  0.00    +0.322 C 
ATOM      6  O   UNK     1       8.632  -5.484  23.765  0.00  0.00    -0.249 OA
BRANCH   5   7
ATOM      7  O   UNK     1      10.208  -5.608  25.400  0.00  0.00    -0.480 OA
ATOM      8  H   UNK     1      10.305  -5.084  26.233  0.00  0.00    +0.295 HD
ENDBRANCH   5   7
ENDBRANCH   1   5
BRANCH   1   9
ATOM      9  C   UNK     1       8.464  -3.318  26.369  0.00  0.00    +0.039 C 
BRANCH   9  10
ATOM     10  C   UNK     1       8.095  -2.294  25.288  0.00  0.00    +0.098 C 
BRANCH  10  14
ATOM     11  C   UNK     1      10.685   0.408  24.795  0.00  0.00    +0.128 C 
ATOM     12  N   UNK     1       9.541  -0.362  25.207  0.00  0.00    -0.318 N 
ATOM     13  H   UNK     1       8.982  -0.029  25.980  0.00  0.00    +0.148 HD
ATOM     14  C   UNK     1       9.324  -1.624  24.700  0.00  0.00    +0.213 C 
ATOM     15  O   UNK     1      10.034  -2.145  23.849  0.00  0.00    -0.276 OA
ENDBRANCH  10  14
ENDBRANCH   9  10
ENDBRANCH   1   9
TORSDOF 6
ENDMDL
MODEL 5
REMARK VINA RESULT:      -4.0      2.027      2.786
REMARK  Name = 
REMARK  7 active torsions:
REMARK  status: ('A' for Active; 'I' for Inactive)
REMARK    1  A    between atoms: C_1  and  N_2
REMARK    2  A    between atoms: C_3  and  C_5
REMARK    3  A    between atoms: C_5  and  C_6
REMARK    4  A    between atoms: C_6  and  C_7
REMARK    5  A    between atoms: C_7  and  N_9
REMARK    6  A    between atoms: C_7  and  C_10
REMARK    7  A    between atoms: C_10  and  O_11
REMARK                            x       y       z     vdW  Elec       q    Type
REMARK                         _______ _______ _______ _____ _____    ______ ____
ROOT
ATOM      1  C   UNK     1       8.823  -4.750  25.351  0.00  0.00    +0.161 C 
ENDROOT
BRANCH   1   2
ATOM      2  N   UNK     1       9.993  -5.676  25.331  0.00  0.00    -0.318 NA
ATOM      3  H   UNK     1      10.094  -6.025  24.372  0.00  0.00    +0.119 HD
ATOM      4  H   UNK     1      10.838  -5.110  25.473  0.00  0.00    +0.119 HD
ENDBRANCH   1   2
BRANCH   1   5
ATOM      5  C   UNK     1       7.688  -5.408  26.150  0.00  0.00    +0.322 C 
ATOM      6  O   UNK     1       6.559  -5.615  25.739  0.00  0.00    -0.249 OA
BRANCH   5   7
ATOM      7  O   UNK     1       8.118  -5.782  27.387  0.00  0.00    -0.480 OA
ATOM      8  H   UNK     1       7.605  -5.232  28.029  0.00  0.00    +0.295 HD
ENDBRANCH   5   7
ENDBRANCH   1   5
BRANCH   1   9
ATOM      9  C   UNK     1       8.355  -4.398  23.936  0.00  0.00    +0.039 C 
BRANCH   9  10
ATOM     10  C   UNK     1       8.126  -2.901  23.692  0.00  0.00    +0.098 C 
BRANCH  10  14
ATOM     11  C   UNK     1      10.489  -0.046  24.405  0.00  0.00    +0.128 C 
ATOM     12  N   UNK     1       9.338  -0.902  24.294  0.00  0.00    -0.318 N 
ATOM     13  H   UNK     1       8.502  -0.663  24.807  0.00  0.00    +0.148 HD
ATOM     14  C   UNK     1       9.431  -2.125  23.669  0.00  0.00    +0.213 C 
ATOM     15  O   UNK     1      10.451  -2.537  23.131  0.00  0.00    -0.276 OA
ENDBRANCH  10  14
ENDBRANCH   9  10
ENDBRANCH   1   9
TORSDOF 6
ENDMDL
MODEL 6
REMARK VINA RESULT:      -4.0      2.327      2.825
REMARK  Name = 
REMARK  7 active torsions:
REMARK  status: ('A' for Active; 'I' for Inactive)
REMARK    1  A    between atoms: C_1  and  N_2
REMARK    2  A    between atoms: C_3  and  C_5
REMARK    3  A    between atoms: C_5  and  C_6
REMARK    4  A    between atoms: C_6  and  C_7
REMARK    5  A    between atoms: C_7  and  N_9
REMARK    6  A    between atoms: C_7  and  C_10
REMARK    7  A    between atoms: C_10  and  O_11
REMARK                            x       y       z     vdW  Elec       q    Type
REMARK                         _______ _______ _______ _____ _____    ______ ____
ROOT
ATOM      1  C   UNK     1       7.638  -5.591  25.825  0.00  0.00    +0.161 C 
ENDROOT
BRANCH   1   2
ATOM      2  N   UNK     1       7.944  -5.528  27.285  0.00  0.00    -0.318 NA
ATOM      3  H   UNK     1       8.602  -6.287  27.495  0.00  0.00    +0.119 HD
ATOM      4  H   UNK     1       8.496  -4.677  27.449  0.00  0.00    +0.119 HD
ENDBRANCH   1   2
BRANCH   1   5
ATOM      5  C   UNK     1       8.903  -5.206  25.042  0.00  0.00    +0.322 C 
ATOM      6  O   UNK     1       8.925  -4.572  24.001  0.00  0.00    -0.249 OA
BRANCH   5   7
ATOM      7  O   UNK     1      10.023  -5.632  25.688  0.00  0.00    -0.480 OA
ATOM      8  H   UNK     1      10.169  -6.564  25.391  0.00  0.00    +0.295 HD
ENDBRANCH   5   7
ENDBRANCH   1   5
BRANCH   1   9
ATOM      9  C   UNK     1       6.470  -4.673  25.452  0.00  0.00    +0.039 C 
BRANCH   9  10
ATOM     10  C   UNK     1       5.316  -5.373  24.724  0.00  0.00    +0.098 C 
BRANCH  10  14
ATOM     11  C   UNK     1       6.442  -5.680  21.134  0.00  0.00    +0.128 C 
ATOM     12  N   UNK     1       6.306  -5.793  22.562  0.00  0.00    -0.318 N 
ATOM     13  H   UNK     1       6.834  -6.504  23.047  0.00  0.00    +0.148 HD
ATOM     14  C   UNK     1       5.331  -5.088  23.233  0.00  0.00    +0.213 C 
ATOM     15  O   UNK     1       4.569  -4.298  22.689  0.00  0.00    -0.276 OA
ENDBRANCH  10  14
ENDBRANCH   9  10
ENDBRANCH   1   9
TORSDOF 6
ENDMDL
MODEL 7
REMARK VINA RESULT:      -3.9      4.372      6.202
REMARK  Name = 
REMARK  7 active torsions:
REMARK  status: ('A' for Active; 'I' for Inactive)
REMARK    1  A    between atoms: C_1  and  N_2
REMARK    2  A    between atoms: C_3  and  C_5
REMARK    3  A    between atoms: C_5  and  C_6
REMARK    4  A    between atoms: C_6  and  C_7
REMARK    5  A    between atoms: C_7  and  N_9
REMARK    6  A    between atoms: C_7  and  C_10
REMARK    7  A    between atoms: C_10  and  O_11
REMARK                            x       y       z     vdW  Elec       q    Type
REMARK                         _______ _______ _______ _____ _____    ______ ____
ROOT
ATOM      1  C   UNK     1       9.606   1.048  22.644  0.00  0.00    +0.161 C 
ENDROOT
BRANCH   1   2
ATOM      2  N   UNK     1       9.646   1.977  21.476  0.00  0.00    -0.318 NA
ATOM      3  H   UNK     1       8.853   2.622  21.567  0.00  0.00    +0.119 HD
ATOM      4  H   UNK     1      10.467   2.584  21.592  0.00  0.00    +0.119 HD
ENDBRANCH   1   2
BRANCH   1   5
ATOM      5  C   UNK     1      10.322   1.717  23.827  0.00  0.00    +0.322 C 
ATOM      6  O   UNK     1      11.025   2.710  23.760  0.00  0.00    -0.249 OA
BRANCH   5   7
ATOM      7  O   UNK     1      10.033   1.077  24.994  0.00  0.00    -0.480 OA
ATOM      8  H   UNK     1      10.394   0.161  24.897  0.00  0.00    +0.295 HD
ENDBRANCH   5   7
ENDBRANCH   1   5
BRANCH   1   9
ATOM      9  C   UNK     1      10.249  -0.303  22.315  0.00  0.00    +0.039 C 
BRANCH   9  10
ATOM     10  C   UNK     1       9.296  -1.501  22.406  0.00  0.00    +0.098 C 
BRANCH  10  14
ATOM     11  C   UNK     1       8.521  -2.239  26.026  0.00  0.00    +0.128 C 
ATOM     12  N   UNK     1       8.582  -1.668  24.706  0.00  0.00    -0.318 N 
ATOM     13  H   UNK     1       7.909  -0.961  24.449  0.00  0.00    +0.148 HD
ATOM     14  C   UNK     1       9.404  -2.211  23.744  0.00  0.00    +0.213 C 
ATOM     15  O   UNK     1      10.160  -3.153  23.949  0.00  0.00    -0.276 OA
ENDBRANCH  10  14
ENDBRANCH   9  10
ENDBRANCH   1   9
TORSDOF 6
ENDMDL
MODEL 8
REMARK VINA RESULT:      -3.9      5.511      6.743
REMARK  Name = 
REMARK  7 active torsions:
REMARK  status: ('A' for Active; 'I' for Inactive)
REMARK    1  A    between atoms: C_1  and  N_2
REMARK    2  A    between atoms: C_3  and  C_5
REMARK    3  A    between atoms: C_5  and  C_6
REMARK    4  A    between atoms: C_6  and  C_7
REMARK    5  A    between atoms: C_7  and  N_9
REMARK    6  A    between atoms: C_7  and  C_10
REMARK    7  A    between atoms: C_10  and  O_11
REMARK                            x       y       z     vdW  Elec       q    Type
REMARK                         _______ _______ _______ _____ _____    ______ ____
ROOT
ATOM      1  C   UNK     1       9.751  -0.270  23.299  0.00  0.00    +0.161 C 
ENDROOT
BRANCH   1   2
ATOM      2  N   UNK     1      10.698   0.180  24.362  0.00  0.00    -0.318 NA
ATOM      3  H   UNK     1      11.524  -0.426  24.316  0.00  0.00    +0.119 HD
ATOM      4  H   UNK     1      11.058   1.102  24.084  0.00  0.00    +0.119 HD
ENDBRANCH   1   2
BRANCH   1   5
ATOM      5  C   UNK     1      10.164  -1.676  22.838  0.00  0.00    +0.322 C 
ATOM      6  O   UNK     1      10.285  -2.651  23.559  0.00  0.00    -0.249 OA
BRANCH   5   7
ATOM      7  O   UNK     1      10.342  -1.713  21.488  0.00  0.00    -0.480 OA
ATOM      8  H   UNK     1      10.780  -0.858  21.249  0.00  0.00    +0.295 HD
ENDBRANCH   5   7
ENDBRANCH   1   5
BRANCH   1   9
ATOM      9  C   UNK     1       9.724   0.702  22.116  0.00  0.00    +0.039 C 
BRANCH   9  10
ATOM     10  C   UNK     1      10.203   2.121  22.445  0.00  0.00    +0.098 C 
BRANCH  10  14
ATOM     11  C   UNK     1       7.201   4.397  22.684  0.00  0.00    +0.128 C 
ATOM     12  N   UNK     1       8.309   3.603  22.224  0.00  0.00    -0.318 N 
ATOM     13  H   UNK     1       8.398   3.415  21.236  0.00  0.00    +0.148 HD
ATOM     14  C   UNK     1       9.119   2.942  23.121  0.00  0.00    +0.213 C 
ATOM     15  O   UNK     1       8.994   3.023  24.337  0.00  0.00    -0.276 OA
ENDBRANCH  10  14
ENDBRANCH   9  10
ENDBRANCH   1   9
TORSDOF 6
ENDMDL
MODEL 9
REMARK VINA RESULT:      -3.9      4.844      6.791
REMARK  Name = 
REMARK  7 active torsions:
REMARK  status: ('A' for Active; 'I' for Inactive)
REMARK    1  A    between atoms: C_1  and  N_2
REMARK    2  A    between atoms: C_3  and  C_5
REMARK    3  A    between atoms: C_5  and  C_6
REMARK    4  A    between atoms: C_6  and  C_7
REMARK    5  A    between atoms: C_7  and  N_9
REMARK    6  A    between atoms: C_7  and  C_10
REMARK    7  A    between atoms: C_10  and  O_11
REMARK                            x       y       z     vdW  Elec       q    Type
REMARK                         _______ _______ _______ _____ _____    ______ ____
ROOT
ATOM      1  C   UNK     1      10.524   2.199  22.944  0.00  0.00    +0.161 C 
ENDROOT
BRANCH   1   2
ATOM      2  N   UNK     1       9.833   3.472  23.304  0.00  0.00    -0.318 NA
ATOM      3  H   UNK     1      10.490   4.034  23.856  0.00  0.00    +0.119 HD
ATOM      4  H   UNK     1       9.717   4.016  22.440  0.00  0.00    +0.119 HD
ENDBRANCH   1   2
BRANCH   1   5
ATOM      5  C   UNK     1       9.698   1.480  21.866  0.00  0.00    +0.322 C 
ATOM      6  O   UNK     1       9.838   0.319  21.524  0.00  0.00    -0.249 OA
BRANCH   5   7
ATOM      7  O   UNK     1       8.738   2.303  21.360  0.00  0.00    -0.480 OA
ATOM      8  H   UNK     1       8.829   3.158  21.849  0.00  0.00    +0.295 HD
ENDBRANCH   5   7
ENDBRANCH   1   5
BRANCH   1   9
ATOM      9  C   UNK     1      10.722   1.297  24.166  0.00  0.00    +0.039 C 
BRANCH   9  10
ATOM     10  C   UNK     1       9.426   0.905  24.886  0.00  0.00    +0.098 C 
BRANCH  10  14
ATOM     11  C   UNK     1       9.797  -2.754  24.034  0.00  0.00    +0.128 C 
ATOM     12  N   UNK     1       9.781  -1.315  24.006  0.00  0.00    -0.318 N 
ATOM     13  H   UNK     1      10.245  -0.837  23.247  0.00  0.00    +0.148 HD
ATOM     14  C   UNK     1       9.322  -0.596  25.087  0.00  0.00    +0.213 C 
ATOM     15  O   UNK     1       8.859  -1.112  26.097  0.00  0.00    -0.276 OA
ENDBRANCH  10  14
ENDBRANCH   9  10
ENDBRANCH   1   9
TORSDOF 6
ENDMDL
