MODEL 1
REMARK VINA RESULT:      -6.8      0.000      0.000
REMARK  Name = 
REMARK  16 active torsions:
REMARK  status: ('A' for Active; 'I' for Inactive)
REMARK    1  A    between atoms: C_1  and  O_2
REMARK    2  A    between atoms: O_2  and  C_3
REMARK    3  A    between atoms: C_3  and  C_4
REMARK    4  A    between atoms: C_4  and  O_6
REMARK    5  A    between atoms: O_6  and  C_7
REMARK    6  A    between atoms: C_7  and  C_8
REMARK    7  A    between atoms: C_8  and  C_9
REMARK    8  A    between atoms: C_9  and  N_10
REMARK    9  A    between atoms: N_10  and  C_11
REMARK   10  A    between atoms: N_10  and  C_12
REMARK   11  A    between atoms: C_12  and  C_13
REMARK   12  A    between atoms: C_13  and  C_14
REMARK   13  A    between atoms: C_14  and  C_15
REMARK   14  A    between atoms: C_33  and  C_35
REMARK   15  A    between atoms: C_35  and  C_36
REMARK   16  A    between atoms: C_35  and  C_37
REMARK                            x       y       z     vdW  Elec       q    Type
REMARK                         _______ _______ _______ _____ _____    ______ ____
ROOT
ATOM      1  C   UNL     1       5.822  -3.759  24.387  0.00  0.00    +0.122 C 
ATOM      2  C   UNL     1       7.219  -3.576  25.121  0.00  0.00    +0.066 C 
ATOM      3  C   UNL     1       8.116  -2.652  24.289  0.00  0.00    -0.037 A 
ATOM      4  C   UNL     1       9.045  -1.814  24.935  0.00  0.00    +0.007 A 
ATOM      5  C   UNL     1       9.936  -1.035  24.200  0.00  0.00    +0.038 A 
ATOM      6  C   UNL     1       9.875  -1.055  22.816  0.00  0.00    +0.124 A 
ATOM      7  C   UNL     1       8.935  -1.836  22.155  0.00  0.00    +0.042 A 
ATOM      8  F   UNL     1      10.722  -0.300  22.106  0.00  0.00    -0.205 F 
ATOM      9  C   UNL     1       8.050  -2.648  22.883  0.00  0.00    -0.041 A 
ATOM     10  C   UNL     1       7.001  -3.413  22.123  0.00  0.00    +0.039 C 
ATOM     11  C   UNL     1       6.114  -4.323  22.975  0.00  0.00    +0.053 C 
ENDROOT
BRANCH   2  12
ATOM     12  C   UNL     1       8.017  -4.907  25.463  0.00  0.00    -0.006 C 
ATOM     13  C   UNL     1       7.911  -5.357  26.925  0.00  0.00    +0.008 C 
ATOM     14  C   UNL     1       9.524  -4.804  25.156  0.00  0.00    +0.008 C 
ENDBRANCH   2  12
BRANCH   1  15
ATOM     15  O   UNL     1       4.989  -4.611  25.244  0.00  0.00    -0.456 OA
BRANCH  15  16
ATOM     16  C   UNL     1       4.352  -5.756  24.853  0.00  0.00    +0.334 C 
ATOM     17  O   UNL     1       4.837  -6.878  24.830  0.00  0.00    -0.248 OA
BRANCH  16  18
ATOM     18  C   UNL     1       2.911  -5.417  24.467  0.00  0.00    +0.279 C 
BRANCH  18  20
ATOM     19  C   UNL     1       1.510  -6.133  22.697  0.00  0.00    +0.194 C 
ATOM     20  O   UNL     1       2.712  -5.467  23.053  0.00  0.00    -0.372 OA
ENDBRANCH  18  20
ENDBRANCH  16  18
ENDBRANCH  15  16
ENDBRANCH   1  15
BRANCH   1  21
ATOM     21  C   UNL     1       5.058  -2.384  24.313  0.00  0.00    +0.064 C 
BRANCH  21  22
ATOM     22  C   UNL     1       5.203  -1.545  25.601  0.00  0.00    +0.088 C 
BRANCH  22  23
ATOM     23  N   UNL     1       5.262  -0.077  25.424  0.00  0.00    -0.305 NA
ATOM     24  C   UNL     1       5.878   0.587  26.582  0.00  0.00    +0.104 C 
BRANCH  23  25
ATOM     25  C   UNL     1       6.040   0.279  24.211  0.00  0.00    +0.084 C 
BRANCH  25  26
ATOM     26  C   UNL     1       7.138   1.324  24.454  0.00  0.00    +0.023 C 
BRANCH  26  27
ATOM     27  C   UNL     1       7.737   1.833  23.143  0.00  0.00    +0.075 C 
BRANCH  27  28
ATOM     28  C   UNL     1       8.727   2.918  23.400  0.00  0.00    +0.108 A 
ATOM     29  N   UNL     1      10.036   2.841  22.984  0.00  0.00    -0.342 N 
ATOM     30  H   UNL     1      10.452   2.076  22.473  0.00  0.00    +0.167 HD
ATOM     31  C   UNL     1      10.685   3.977  23.394  0.00  0.00    +0.066 A 
ATOM     32  C   UNL     1       9.701   4.720  24.035  0.00  0.00    +0.089 A 
ATOM     33  C   UNL     1      10.030   5.966  24.586  0.00  0.00    +0.030 A 
ATOM     34  C   UNL     1      11.353   6.417  24.486  0.00  0.00    +0.002 A 
ATOM     35  C   UNL     1      12.323   5.645  23.840  0.00  0.00    +0.002 A 
ATOM     36  C   UNL     1      12.009   4.406  23.270  0.00  0.00    +0.028 A 
ATOM     37  N   UNL     1       8.498   4.056  24.022  0.00  0.00    -0.232 NA
ENDBRANCH  27  28
ENDBRANCH  26  27
ENDBRANCH  25  26
ENDBRANCH  23  25
ENDBRANCH  22  23
ENDBRANCH  21  22
ENDBRANCH   1  21
TORSDOF 12
ENDMDL
MODEL 2
REMARK VINA RESULT:      -6.7      1.749      2.485
REMARK  Name = 
REMARK  16 active torsions:
REMARK  status: ('A' for Active; 'I' for Inactive)
REMARK    1  A    between atoms: C_1  and  O_2
REMARK    2  A    between atoms: O_2  and  C_3
REMARK    3  A    between atoms: C_3  and  C_4
REMARK    4  A    between atoms: C_4  and  O_6
REMARK    5  A    between atoms: O_6  and  C_7
REMARK    6  A    between atoms: C_7  and  C_8
REMARK    7  A    between atoms: C_8  and  C_9
REMARK    8  A    between atoms: C_9  and  N_10
REMARK    9  A    between atoms: N_10  and  C_11
REMARK   10  A    between atoms: N_10  and  C_12
REMARK   11  A    between atoms: C_12  and  C_13
REMARK   12  A    between atoms: C_13  and  C_14
REMARK   13  A    between atoms: C_14  and  C_15
REMARK   14  A    between atoms: C_33  and  C_35
REMARK   15  A    between atoms: C_35  and  C_36
REMARK   16  A    between atoms: C_35  and  C_37
REMARK                            x       y       z     vdW  Elec       q    Type
REMARK                         _______ _______ _______ _____ _____    ______ ____
ROOT
ATOM      1  C   UNL     1       5.600  -3.987  24.632  0.00  0.00    +0.122 C 
ATOM      2  C   UNL     1       7.045  -3.844  25.277  0.00  0.00    +0.066 C 
ATOM      3  C   UNL     1       7.943  -3.029  24.341  0.00  0.00    -0.037 A 
ATOM      4  C   UNL     1       8.953  -2.209  24.881  0.00  0.00    +0.007 A 
ATOM      5  C   UNL     1       9.844  -1.532  24.050  0.00  0.00    +0.038 A 
ATOM      6  C   UNL     1       9.702  -1.633  22.676  0.00  0.00    +0.124 A 
ATOM      7  C   UNL     1       8.684  -2.395  22.118  0.00  0.00    +0.042 A 
ATOM      8  F   UNL     1      10.549  -0.975  21.874  0.00  0.00    -0.205 F 
ATOM      9  C   UNL     1       7.797  -3.107  22.943  0.00  0.00    -0.041 A 
ATOM     10  C   UNL     1       6.664  -3.852  22.291  0.00  0.00    +0.039 C 
ATOM     11  C   UNL     1       5.778  -4.653  23.246  0.00  0.00    +0.053 C 
ENDROOT
BRANCH   2  12
ATOM     12  C   UNL     1       7.784  -5.197  25.661  0.00  0.00    -0.006 C 
ATOM     13  C   UNL     1       7.728  -5.555  27.151  0.00  0.00    +0.008 C 
ATOM     14  C   UNL     1       9.276  -5.200  25.276  0.00  0.00    +0.008 C 
ENDBRANCH   2  12
BRANCH   1  15
ATOM     15  O   UNL     1       4.770  -4.734  25.586  0.00  0.00    -0.456 OA
BRANCH  15  16
ATOM     16  C   UNL     1       4.091  -5.890  25.318  0.00  0.00    +0.334 C 
ATOM     17  O   UNL     1       4.564  -7.017  25.311  0.00  0.00    -0.248 OA
BRANCH  16  18
ATOM     18  C   UNL     1       2.623  -5.555  25.049  0.00  0.00    +0.279 C 
BRANCH  18  20
ATOM     19  C   UNL     1       1.978  -6.408  22.937  0.00  0.00    +0.194 C 
ATOM     20  O   UNL     1       2.387  -5.264  23.671  0.00  0.00    -0.372 OA
ENDBRANCH  18  20
ENDBRANCH  16  18
ENDBRANCH  15  16
ENDBRANCH   1  15
BRANCH   1  21
ATOM     21  C   UNL     1       4.912  -2.576  24.511  0.00  0.00    +0.064 C 
BRANCH  21  22
ATOM     22  C   UNL     1       5.009  -1.745  25.809  0.00  0.00    +0.088 C 
BRANCH  22  23
ATOM     23  N   UNL     1       3.765  -1.085  26.260  0.00  0.00    -0.305 NA
ATOM     24  C   UNL     1       2.816  -2.047  26.840  0.00  0.00    +0.104 C 
BRANCH  23  25
ATOM     25  C   UNL     1       4.056  -0.043  27.276  0.00  0.00    +0.084 C 
BRANCH  25  26
ATOM     26  C   UNL     1       4.644   1.251  26.697  0.00  0.00    +0.023 C 
BRANCH  26  27
ATOM     27  C   UNL     1       6.132   1.392  27.018  0.00  0.00    +0.075 C 
BRANCH  27  28
ATOM     28  C   UNL     1       6.934   1.504  25.766  0.00  0.00    +0.108 A 
ATOM     29  N   UNL     1       8.264   1.856  25.767  0.00  0.00    -0.342 N 
ATOM     30  H   UNL     1       8.823   2.062  26.583  0.00  0.00    +0.167 HD
ATOM     31  C   UNL     1       8.700   1.895  24.467  0.00  0.00    +0.066 A 
ATOM     32  C   UNL     1       7.585   1.527  23.723  0.00  0.00    +0.089 A 
ATOM     33  C   UNL     1       7.683   1.462  22.327  0.00  0.00    +0.030 A 
ATOM     34  C   UNL     1       8.904   1.788  21.722  0.00  0.00    +0.002 A 
ATOM     35  C   UNL     1      10.007   2.159  22.496  0.00  0.00    +0.002 A 
ATOM     36  C   UNL     1       9.933   2.214  23.893  0.00  0.00    +0.028 A 
ATOM     37  N   UNL     1       6.508   1.282  24.540  0.00  0.00    -0.232 NA
ENDBRANCH  27  28
ENDBRANCH  26  27
ENDBRANCH  25  26
ENDBRANCH  23  25
ENDBRANCH  22  23
ENDBRANCH  21  22
ENDBRANCH   1  21
TORSDOF 12
ENDMDL
MODEL 3
REMARK VINA RESULT:      -6.5      2.838      4.953
REMARK  Name = 
REMARK  16 active torsions:
REMARK  status: ('A' for Active; 'I' for Inactive)
REMARK    1  A    between atoms: C_1  and  O_2
REMARK    2  A    between atoms: O_2  and  C_3
REMARK    3  A    between atoms: C_3  and  C_4
REMARK    4  A    between atoms: C_4  and  O_6
REMARK    5  A    between atoms: O_6  and  C_7
REMARK    6  A    between atoms: C_7  and  C_8
REMARK    7  A    between atoms: C_8  and  C_9
REMARK    8  A    between atoms: C_9  and  N_10
REMARK    9  A    between atoms: N_10  and  C_11
REMARK   10  A    between atoms: N_10  and  C_12
REMARK   11  A    between atoms: C_12  and  C_13
REMARK   12  A    between atoms: C_13  and  C_14
REMARK   13  A    between atoms: C_14  and  C_15
REMARK   14  A    between atoms: C_33  and  C_35
REMARK   15  A    between atoms: C_35  and  C_36
REMARK   16  A    between atoms: C_35  and  C_37
REMARK                            x       y       z     vdW  Elec       q    Type
REMARK                         _______ _______ _______ _____ _____    ______ ____
ROOT
ATOM      1  C   UNL     1       8.032  -2.724  23.797  0.00  0.00    +0.122 C 
ATOM      2  C   UNL     1       6.860  -3.687  23.326  0.00  0.00    +0.066 C 
ATOM      3  C   UNL     1       6.354  -4.500  24.522  0.00  0.00    -0.037 A 
ATOM      4  C   UNL     1       5.001  -4.881  24.586  0.00  0.00    +0.007 A 
ATOM      5  C   UNL     1       4.536  -5.700  25.613  0.00  0.00    +0.038 A 
ATOM      6  C   UNL     1       5.411  -6.105  26.608  0.00  0.00    +0.124 A 
ATOM      7  C   UNL     1       6.741  -5.703  26.595  0.00  0.00    +0.042 A 
ATOM      8  F   UNL     1       4.967  -6.883  27.603  0.00  0.00    -0.205 F 
ATOM      9  C   UNL     1       7.229  -4.902  25.550  0.00  0.00    -0.041 A 
ATOM     10  C   UNL     1       8.655  -4.428  25.625  0.00  0.00    +0.039 C 
ATOM     11  C   UNL     1       9.135  -3.613  24.423  0.00  0.00    +0.053 C 
ENDROOT
BRANCH   2  12
ATOM     12  C   UNL     1       7.196  -4.675  22.128  0.00  0.00    -0.006 C 
ATOM     13  C   UNL     1       6.078  -4.824  21.089  0.00  0.00    +0.008 C 
ATOM     14  C   UNL     1       7.533  -6.103  22.601  0.00  0.00    +0.008 C 
ENDBRANCH   2  12
BRANCH   1  15
ATOM     15  O   UNL     1       8.447  -1.939  22.628  0.00  0.00    -0.456 OA
BRANCH  15  16
ATOM     16  C   UNL     1       9.662  -1.334  22.464  0.00  0.00    +0.334 C 
ATOM     17  O   UNL     1      10.721  -1.898  22.230  0.00  0.00    -0.248 OA
BRANCH  16  18
ATOM     18  C   UNL     1       9.486   0.180  22.591  0.00  0.00    +0.279 C 
BRANCH  18  20
ATOM     19  C   UNL     1      10.470   0.647  24.694  0.00  0.00    +0.194 C 
ATOM     20  O   UNL     1      10.578   0.786  23.285  0.00  0.00    -0.372 OA
ENDBRANCH  18  20
ENDBRANCH  16  18
ENDBRANCH  15  16
ENDBRANCH   1  15
BRANCH   1  21
ATOM     21  C   UNL     1       7.491  -1.665  24.828  0.00  0.00    +0.064 C 
BRANCH  21  22
ATOM     22  C   UNL     1       6.405  -0.744  24.231  0.00  0.00    +0.088 C 
BRANCH  22  23
ATOM     23  N   UNL     1       6.021   0.431  25.044  0.00  0.00    -0.305 NA
ATOM     24  C   UNL     1       6.026   0.124  26.482  0.00  0.00    +0.104 C 
BRANCH  23  25
ATOM     25  C   UNL     1       6.944   1.567  24.804  0.00  0.00    +0.084 C 
BRANCH  25  26
ATOM     26  C   UNL     1       6.282   2.786  24.145  0.00  0.00    +0.023 C 
BRANCH  26  27
ATOM     27  C   UNL     1       7.043   3.239  22.898  0.00  0.00    +0.075 C 
BRANCH  27  28
ATOM     28  C   UNL     1       8.273   3.993  23.275  0.00  0.00    +0.108 A 
ATOM     29  N   UNL     1       9.533   3.599  22.887  0.00  0.00    -0.342 N 
ATOM     30  H   UNL     1       9.753   2.793  22.321  0.00  0.00    +0.167 HD
ATOM     31  C   UNL     1      10.441   4.482  23.412  0.00  0.00    +0.066 A 
ATOM     32  C   UNL     1       9.660   5.410  24.092  0.00  0.00    +0.089 A 
ATOM     33  C   UNL     1      10.283   6.474  24.759  0.00  0.00    +0.030 A 
ATOM     34  C   UNL     1      11.682   6.557  24.732  0.00  0.00    +0.002 A 
ATOM     35  C   UNL     1      12.441   5.607  24.045  0.00  0.00    +0.002 A 
ATOM     36  C   UNL     1      11.836   4.547  23.360  0.00  0.00    +0.028 A 
ATOM     37  N   UNL     1       8.327   5.098  23.990  0.00  0.00    -0.232 NA
ENDBRANCH  27  28
ENDBRANCH  26  27
ENDBRANCH  25  26
ENDBRANCH  23  25
ENDBRANCH  22  23
ENDBRANCH  21  22
ENDBRANCH   1  21
TORSDOF 12
ENDMDL
MODEL 4
REMARK VINA RESULT:      -6.4      2.769      4.458
REMARK  Name = 
REMARK  16 active torsions:
REMARK  status: ('A' for Active; 'I' for Inactive)
REMARK    1  A    between atoms: C_1  and  O_2
REMARK    2  A    between atoms: O_2  and  C_3
REMARK    3  A    between atoms: C_3  and  C_4
REMARK    4  A    between atoms: C_4  and  O_6
REMARK    5  A    between atoms: O_6  and  C_7
REMARK    6  A    between atoms: C_7  and  C_8
REMARK    7  A    between atoms: C_8  and  C_9
REMARK    8  A    between atoms: C_9  and  N_10
REMARK    9  A    between atoms: N_10  and  C_11
REMARK   10  A    between atoms: N_10  and  C_12
REMARK   11  A    between atoms: C_12  and  C_13
REMARK   12  A    between atoms: C_13  and  C_14
REMARK   13  A    between atoms: C_14  and  C_15
REMARK   14  A    between atoms: C_33  and  C_35
REMARK   15  A    between atoms: C_35  and  C_36
REMARK   16  A    between atoms: C_35  and  C_37
REMARK                            x       y       z     vdW  Elec       q    Type
REMARK                         _______ _______ _______ _____ _____    ______ ____
ROOT
ATOM      1  C   UNL     1       7.155  -2.023  25.312  0.00  0.00    +0.122 C 
ATOM      2  C   UNL     1       6.377  -3.408  25.359  0.00  0.00    +0.066 C 
ATOM      3  C   UNL     1       6.352  -4.027  23.957  0.00  0.00    -0.037 A 
ATOM      4  C   UNL     1       6.362  -5.427  23.811  0.00  0.00    +0.007 A 
ATOM      5  C   UNL     1       6.244  -6.016  22.554  0.00  0.00    +0.038 A 
ATOM      6  C   UNL     1       6.161  -5.210  21.431  0.00  0.00    +0.124 A 
ATOM      7  C   UNL     1       6.198  -3.825  21.543  0.00  0.00    +0.042 A 
ATOM      8  F   UNL     1       6.059  -5.772  20.220  0.00  0.00    -0.205 F 
ATOM      9  C   UNL     1       6.287  -3.218  22.806  0.00  0.00    -0.041 A 
ATOM     10  C   UNL     1       6.404  -1.720  22.867  0.00  0.00    +0.039 C 
ATOM     11  C   UNL     1       6.434  -1.125  24.276  0.00  0.00    +0.053 C 
ENDROOT
BRANCH   2  12
ATOM     12  C   UNL     1       4.898  -3.369  25.938  0.00  0.00    -0.006 C 
ATOM     13  C   UNL     1       4.631  -4.361  27.076  0.00  0.00    +0.008 C 
ATOM     14  C   UNL     1       3.823  -3.645  24.868  0.00  0.00    +0.008 C 
ENDBRANCH   2  12
BRANCH   1  15
ATOM     15  O   UNL     1       7.189  -1.498  26.683  0.00  0.00    -0.456 OA
BRANCH  15  16
ATOM     16  C   UNL     1       6.733  -0.271  27.077  0.00  0.00    +0.334 C 
ATOM     17  O   UNL     1       7.319   0.793  26.940  0.00  0.00    -0.248 OA
BRANCH  16  18
ATOM     18  C   UNL     1       5.346  -0.431  27.702  0.00  0.00    +0.279 C 
BRANCH  18  20
ATOM     19  C   UNL     1       3.039   0.054  27.482  0.00  0.00    +0.194 C 
ATOM     20  O   UNL     1       4.331   0.190  26.912  0.00  0.00    -0.372 OA
ENDBRANCH  18  20
ENDBRANCH  16  18
ENDBRANCH  15  16
ENDBRANCH   1  15
BRANCH   1  21
ATOM     21  C   UNL     1       8.663  -2.254  24.926  0.00  0.00    +0.064 C 
BRANCH  21  22
ATOM     22  C   UNL     1       9.476  -0.943  24.864  0.00  0.00    +0.088 C 
BRANCH  22  23
ATOM     23  N   UNL     1      10.358  -0.773  23.689  0.00  0.00    -0.305 NA
ATOM     24  C   UNL     1      10.020  -1.715  22.612  0.00  0.00    +0.104 C 
BRANCH  23  25
ATOM     25  C   UNL     1      10.265   0.607  23.151  0.00  0.00    +0.084 C 
BRANCH  25  26
ATOM     26  C   UNL     1       9.469   0.719  21.843  0.00  0.00    +0.023 C 
BRANCH  26  27
ATOM     27  C   UNL     1       8.128   1.423  22.054  0.00  0.00    +0.075 C 
BRANCH  27  28
ATOM     28  C   UNL     1       8.282   2.590  22.968  0.00  0.00    +0.108 A 
ATOM     29  N   UNL     1       9.053   3.684  22.650  0.00  0.00    -0.342 N 
ATOM     30  H   UNL     1       9.573   3.815  21.795  0.00  0.00    +0.167 HD
ATOM     31  C   UNL     1       9.007   4.564  23.702  0.00  0.00    +0.066 A 
ATOM     32  C   UNL     1       8.164   3.951  24.621  0.00  0.00    +0.089 A 
ATOM     33  C   UNL     1       7.892   4.592  25.837  0.00  0.00    +0.030 A 
ATOM     34  C   UNL     1       8.496   5.830  26.094  0.00  0.00    +0.002 A 
ATOM     35  C   UNL     1       9.344   6.420  25.152  0.00  0.00    +0.002 A 
ATOM     36  C   UNL     1       9.615   5.801  23.926  0.00  0.00    +0.028 A 
ATOM     37  N   UNL     1       7.719   2.740  24.150  0.00  0.00    -0.232 NA
ENDBRANCH  27  28
ENDBRANCH  26  27
ENDBRANCH  25  26
ENDBRANCH  23  25
ENDBRANCH  22  23
ENDBRANCH  21  22
ENDBRANCH   1  21
TORSDOF 12
ENDMDL
MODEL 5
REMARK VINA RESULT:      -6.4      2.050      2.682
REMARK  Name = 
REMARK  16 active torsions:
REMARK  status: ('A' for Active; 'I' for Inactive)
REMARK    1  A    between atoms: C_1  and  O_2
REMARK    2  A    between atoms: O_2  and  C_3
REMARK    3  A    between atoms: C_3  and  C_4
REMARK    4  A    between atoms: C_4  and  O_6
REMARK    5  A    between atoms: O_6  and  C_7
REMARK    6  A    between atoms: C_7  and  C_8
REMARK    7  A    between atoms: C_8  and  C_9
REMARK    8  A    between atoms: C_9  and  N_10
REMARK    9  A    between atoms: N_10  and  C_11
REMARK   10  A    between atoms: N_10  and  C_12
REMARK   11  A    between atoms: C_12  and  C_13
REMARK   12  A    between atoms: C_13  and  C_14
REMARK   13  A    between atoms: C_14  and  C_15
REMARK   14  A    between atoms: C_33  and  C_35
REMARK   15  A    between atoms: C_35  and  C_36
REMARK   16  A    between atoms: C_35  and  C_37
REMARK                            x       y       z     vdW  Elec       q    Type
REMARK                         _______ _______ _______ _____ _____    ______ ____
ROOT
ATOM      1  C   UNL     1       5.556  -2.802  25.051  0.00  0.00    +0.122 C 
ATOM      2  C   UNL     1       7.058  -3.230  25.344  0.00  0.00    +0.066 C 
ATOM      3  C   UNL     1       7.982  -2.594  24.300  0.00  0.00    -0.037 A 
ATOM      4  C   UNL     1       9.296  -2.235  24.657  0.00  0.00    +0.007 A 
ATOM      5  C   UNL     1      10.186  -1.744  23.705  0.00  0.00    +0.038 A 
ATOM      6  C   UNL     1       9.756  -1.565  22.401  0.00  0.00    +0.124 A 
ATOM      7  C   UNL     1       8.450  -1.865  22.033  0.00  0.00    +0.042 A 
ATOM      8  F   UNL     1      10.605  -1.082  21.484  0.00  0.00    -0.205 F 
ATOM      9  C   UNL     1       7.551  -2.389  22.976  0.00  0.00    -0.041 A 
ATOM     10  C   UNL     1       6.128  -2.621  22.547  0.00  0.00    +0.039 C 
ATOM     11  C   UNL     1       5.222  -3.250  23.607  0.00  0.00    +0.053 C 
ENDROOT
BRANCH   2  12
ATOM     12  C   UNL     1       7.347  -4.790  25.415  0.00  0.00    -0.006 C 
ATOM     13  C   UNL     1       7.960  -5.267  26.737  0.00  0.00    +0.008 C 
ATOM     14  C   UNL     1       8.296  -5.280  24.303  0.00  0.00    +0.008 C 
ENDBRANCH   2  12
BRANCH   1  15
ATOM     15  O   UNL     1       4.722  -3.399  26.102  0.00  0.00    -0.456 OA
BRANCH  15  16
ATOM     16  C   UNL     1       3.362  -3.537  26.059  0.00  0.00    +0.334 C 
ATOM     17  O   UNL     1       2.556  -2.650  25.816  0.00  0.00    -0.248 OA
BRANCH  16  18
ATOM     18  C   UNL     1       3.000  -4.997  26.338  0.00  0.00    +0.279 C 
BRANCH  18  20
ATOM     19  C   UNL     1       4.423  -6.815  25.812  0.00  0.00    +0.194 C 
ATOM     20  O   UNL     1       3.486  -5.870  25.318  0.00  0.00    -0.372 OA
ENDBRANCH  18  20
ENDBRANCH  16  18
ENDBRANCH  15  16
ENDBRANCH   1  15
BRANCH   1  21
ATOM     21  C   UNL     1       5.384  -1.248  25.228  0.00  0.00    +0.064 C 
BRANCH  21  22
ATOM     22  C   UNL     1       6.060  -0.708  26.507  0.00  0.00    +0.088 C 
BRANCH  22  23
ATOM     23  N   UNL     1       5.188   0.020  27.453  0.00  0.00    -0.305 NA
ATOM     24  C   UNL     1       5.944   0.992  28.256  0.00  0.00    +0.104 C 
BRANCH  23  25
ATOM     25  C   UNL     1       4.111   0.745  26.732  0.00  0.00    +0.084 C 
BRANCH  25  26
ATOM     26  C   UNL     1       4.485   2.175  26.320  0.00  0.00    +0.023 C 
BRANCH  26  27
ATOM     27  C   UNL     1       4.487   2.345  24.800  0.00  0.00    +0.075 C 
BRANCH  27  28
ATOM     28  C   UNL     1       5.876   2.274  24.262  0.00  0.00    +0.108 A 
ATOM     29  N   UNL     1       6.145   2.093  22.925  0.00  0.00    -0.342 N 
ATOM     30  H   UNL     1       5.459   2.000  22.190  0.00  0.00    +0.167 HD
ATOM     31  C   UNL     1       7.506   2.047  22.762  0.00  0.00    +0.066 A 
ATOM     32  C   UNL     1       8.009   2.234  24.044  0.00  0.00    +0.089 A 
ATOM     33  C   UNL     1       9.396   2.243  24.243  0.00  0.00    +0.030 A 
ATOM     34  C   UNL     1      10.235   2.045  23.138  0.00  0.00    +0.002 A 
ATOM     35  C   UNL     1       9.700   1.855  21.861  0.00  0.00    +0.002 A 
ATOM     36  C   UNL     1       8.318   1.858  21.641  0.00  0.00    +0.028 A 
ATOM     37  N   UNL     1       6.991   2.381  24.955  0.00  0.00    -0.232 NA
ENDBRANCH  27  28
ENDBRANCH  26  27
ENDBRANCH  25  26
ENDBRANCH  23  25
ENDBRANCH  22  23
ENDBRANCH  21  22
ENDBRANCH   1  21
TORSDOF 12
ENDMDL
MODEL 6
REMARK VINA RESULT:      -6.3      3.345      8.013
REMARK  Name = 
REMARK  16 active torsions:
REMARK  status: ('A' for Active; 'I' for Inactive)
REMARK    1  A    between atoms: C_1  and  O_2
REMARK    2  A    between atoms: O_2  and  C_3
REMARK    3  A    between atoms: C_3  and  C_4
REMARK    4  A    between atoms: C_4  and  O_6
REMARK    5  A    between atoms: O_6  and  C_7
REMARK    6  A    between atoms: C_7  and  C_8
REMARK    7  A    between atoms: C_8  and  C_9
REMARK    8  A    between atoms: C_9  and  N_10
REMARK    9  A    between atoms: N_10  and  C_11
REMARK   10  A    between atoms: N_10  and  C_12
REMARK   11  A    between atoms: C_12  and  C_13
REMARK   12  A    between atoms: C_13  and  C_14
REMARK   13  A    between atoms: C_14  and  C_15
REMARK   14  A    between atoms: C_33  and  C_35
REMARK   15  A    between atoms: C_35  and  C_36
REMARK   16  A    between atoms: C_35  and  C_37
REMARK                            x       y       z     vdW  Elec       q    Type
REMARK                         _______ _______ _______ _____ _____    ______ ____
ROOT
ATOM      1  C   UNL     1       7.652   0.188  24.426  0.00  0.00    +0.122 C 
ATOM      2  C   UNL     1       8.110  -0.953  23.420  0.00  0.00    +0.066 C 
ATOM      3  C   UNL     1       8.109  -2.304  24.145  0.00  0.00    -0.037 A 
ATOM      4  C   UNL     1       7.811  -3.480  23.432  0.00  0.00    +0.007 A 
ATOM      5  C   UNL     1       7.895  -4.728  24.044  0.00  0.00    +0.038 A 
ATOM      6  C   UNL     1       8.233  -4.806  25.385  0.00  0.00    +0.124 A 
ATOM      7  C   UNL     1       8.485  -3.657  26.125  0.00  0.00    +0.042 A 
ATOM      8  F   UNL     1       8.305  -6.003  25.980  0.00  0.00    -0.205 F 
ATOM      9  C   UNL     1       8.432  -2.394  25.513  0.00  0.00    -0.041 A 
ATOM     10  C   UNL     1       8.634  -1.178  26.375  0.00  0.00    +0.039 C 
ATOM     11  C   UNL     1       8.625   0.158  25.631  0.00  0.00    +0.053 C 
ENDROOT
BRANCH   2  12
ATOM     12  C   UNL     1       9.515  -0.745  22.707  0.00  0.00    -0.006 C 
ATOM     13  C   UNL     1       9.443  -0.606  21.182  0.00  0.00    +0.008 C 
ATOM     14  C   UNL     1      10.508  -1.891  22.986  0.00  0.00    +0.008 C 
ENDBRANCH   2  12
BRANCH   1  15
ATOM     15  O   UNL     1       7.627   1.447  23.671  0.00  0.00    -0.456 OA
BRANCH  15  16
ATOM     16  C   UNL     1       8.362   2.564  23.959  0.00  0.00    +0.334 C 
ATOM     17  O   UNL     1       8.180   3.322  24.901  0.00  0.00    -0.248 OA
BRANCH  16  18
ATOM     18  C   UNL     1       9.478   2.707  22.923  0.00  0.00    +0.279 C 
BRANCH  18  20
ATOM     19  C   UNL     1      11.404   4.014  23.361  0.00  0.00    +0.194 C 
ATOM     20  O   UNL     1      10.768   2.756  23.534  0.00  0.00    -0.372 OA
ENDBRANCH  18  20
ENDBRANCH  16  18
ENDBRANCH  15  16
ENDBRANCH   1  15
BRANCH   1  21
ATOM     21  C   UNL     1       6.163  -0.045  24.879  0.00  0.00    +0.064 C 
BRANCH  21  22
ATOM     22  C   UNL     1       5.688   0.976  25.935  0.00  0.00    +0.088 C 
BRANCH  22  23
ATOM     23  N   UNL     1       5.452   0.450  27.297  0.00  0.00    -0.305 NA
ATOM     24  C   UNL     1       6.024   1.328  28.328  0.00  0.00    +0.104 C 
BRANCH  23  25
ATOM     25  C   UNL     1       3.999   0.300  27.563  0.00  0.00    +0.084 C 
BRANCH  25  26
ATOM     26  C   UNL     1       3.545  -1.152  27.767  0.00  0.00    +0.023 C 
BRANCH  26  27
ATOM     27  C   UNL     1       4.731  -2.116  27.815  0.00  0.00    +0.075 C 
BRANCH  27  28
ATOM     28  C   UNL     1       4.635  -3.126  26.722  0.00  0.00    +0.108 A 
ATOM     29  N   UNL     1       4.827  -4.471  26.936  0.00  0.00    -0.342 N 
ATOM     30  H   UNL     1       5.039  -4.906  27.822  0.00  0.00    +0.167 HD
ATOM     31  C   UNL     1       4.696  -5.121  25.736  0.00  0.00    +0.066 A 
ATOM     32  C   UNL     1       4.395  -4.110  24.832  0.00  0.00    +0.089 A 
ATOM     33  C   UNL     1       4.193  -4.433  23.483  0.00  0.00    +0.030 A 
ATOM     34  C   UNL     1       4.317  -5.771  23.086  0.00  0.00    +0.002 A 
ATOM     35  C   UNL     1       4.625  -6.766  24.018  0.00  0.00    +0.002 A 
ATOM     36  C   UNL     1       4.815  -6.465  25.371  0.00  0.00    +0.028 A 
ATOM     37  N   UNL     1       4.354  -2.888  25.457  0.00  0.00    -0.232 NA
ENDBRANCH  27  28
ENDBRANCH  26  27
ENDBRANCH  25  26
ENDBRANCH  23  25
ENDBRANCH  22  23
ENDBRANCH  21  22
ENDBRANCH   1  21
TORSDOF 12
ENDMDL
MODEL 7
REMARK VINA RESULT:      -6.3      3.091      5.395
REMARK  Name = 
REMARK  16 active torsions:
REMARK  status: ('A' for Active; 'I' for Inactive)
REMARK    1  A    between atoms: C_1  and  O_2
REMARK    2  A    between atoms: O_2  and  C_3
REMARK    3  A    between atoms: C_3  and  C_4
REMARK    4  A    between atoms: C_4  and  O_6
REMARK    5  A    between atoms: O_6  and  C_7
REMARK    6  A    between atoms: C_7  and  C_8
REMARK    7  A    between atoms: C_8  and  C_9
REMARK    8  A    between atoms: C_9  and  N_10
REMARK    9  A    between atoms: N_10  and  C_11
REMARK   10  A    between atoms: N_10  and  C_12
REMARK   11  A    between atoms: C_12  and  C_13
REMARK   12  A    between atoms: C_13  and  C_14
REMARK   13  A    between atoms: C_14  and  C_15
REMARK   14  A    between atoms: C_33  and  C_35
REMARK   15  A    between atoms: C_35  and  C_36
REMARK   16  A    between atoms: C_35  and  C_37
REMARK                            x       y       z     vdW  Elec       q    Type
REMARK                         _______ _______ _______ _____ _____    ______ ____
ROOT
ATOM      1  C   UNL     1       6.813  -2.902  25.692  0.00  0.00    +0.122 C 
ATOM      2  C   UNL     1       6.080  -3.409  24.377  0.00  0.00    +0.066 C 
ATOM      3  C   UNL     1       5.268  -4.669  24.698  0.00  0.00    -0.037 A 
ATOM      4  C   UNL     1       4.072  -4.926  24.000  0.00  0.00    +0.007 A 
ATOM      5  C   UNL     1       3.366  -6.109  24.205  0.00  0.00    +0.038 A 
ATOM      6  C   UNL     1       3.826  -7.022  25.140  0.00  0.00    +0.124 A 
ATOM      7  C   UNL     1       4.977  -6.771  25.877  0.00  0.00    +0.042 A 
ATOM      8  F   UNL     1       3.144  -8.156  25.347  0.00  0.00    -0.205 F 
ATOM      9  C   UNL     1       5.714  -5.595  25.660  0.00  0.00    -0.041 A 
ATOM     10  C   UNL     1       6.907  -5.333  26.539  0.00  0.00    +0.039 C 
ATOM     11  C   UNL     1       7.697  -4.067  26.204  0.00  0.00    +0.053 C 
ENDROOT
BRANCH   2  12
ATOM     12  C   UNL     1       7.004  -3.690  23.116  0.00  0.00    -0.006 C 
ATOM     13  C   UNL     1       6.504  -3.072  21.806  0.00  0.00    +0.008 C 
ATOM     14  C   UNL     1       7.198  -5.194  22.834  0.00  0.00    +0.008 C 
ENDBRANCH   2  12
BRANCH   1  15
ATOM     15  O   UNL     1       7.535  -1.673  25.341  0.00  0.00    -0.456 OA
BRANCH  15  16
ATOM     16  C   UNL     1       8.692  -1.235  25.923  0.00  0.00    +0.334 C 
ATOM     17  O   UNL     1       8.867  -1.036  27.117  0.00  0.00    -0.248 OA
BRANCH  16  18
ATOM     18  C   UNL     1       9.758  -1.054  24.840  0.00  0.00    +0.279 C 
BRANCH  18  20
ATOM     19  C   UNL     1      10.374  -1.840  22.693  0.00  0.00    +0.194 C 
ATOM     20  O   UNL     1       9.809  -2.172  23.952  0.00  0.00    -0.372 OA
ENDBRANCH  18  20
ENDBRANCH  16  18
ENDBRANCH  15  16
ENDBRANCH   1  15
BRANCH   1  21
ATOM     21  C   UNL     1       5.757  -2.460  26.773  0.00  0.00    +0.064 C 
BRANCH  21  22
ATOM     22  C   UNL     1       4.650  -1.551  26.197  0.00  0.00    +0.088 C 
BRANCH  22  23
ATOM     23  N   UNL     1       4.383  -0.296  26.934  0.00  0.00    -0.305 NA
ATOM     24  C   UNL     1       3.033  -0.282  27.514  0.00  0.00    +0.104 C 
BRANCH  23  25
ATOM     25  C   UNL     1       5.366  -0.104  28.029  0.00  0.00    +0.084 C 
BRANCH  25  26
ATOM     26  C   UNL     1       6.322   1.077  27.814  0.00  0.00    +0.023 C 
BRANCH  26  27
ATOM     27  C   UNL     1       5.842   1.999  26.692  0.00  0.00    +0.075 C 
BRANCH  27  28
ATOM     28  C   UNL     1       6.792   1.972  25.543  0.00  0.00    +0.108 A 
ATOM     29  N   UNL     1       6.519   1.305  24.371  0.00  0.00    -0.342 N 
ATOM     30  H   UNL     1       5.677   0.788  24.166  0.00  0.00    +0.167 HD
ATOM     31  C   UNL     1       7.594   1.451  23.532  0.00  0.00    +0.066 A 
ATOM     32  C   UNL     1       8.481   2.245  24.251  0.00  0.00    +0.089 A 
ATOM     33  C   UNL     1       9.710   2.595  23.675  0.00  0.00    +0.030 A 
ATOM     34  C   UNL     1      10.012   2.116  22.393  0.00  0.00    +0.002 A 
ATOM     35  C   UNL     1       9.103   1.316  21.696  0.00  0.00    +0.002 A 
ATOM     36  C   UNL     1       7.864   0.969  22.249  0.00  0.00    +0.028 A 
ATOM     37  N   UNL     1       7.967   2.563  25.484  0.00  0.00    -0.232 NA
ENDBRANCH  27  28
ENDBRANCH  26  27
ENDBRANCH  25  26
ENDBRANCH  23  25
ENDBRANCH  22  23
ENDBRANCH  21  22
ENDBRANCH   1  21
TORSDOF 12
ENDMDL
MODEL 8
REMARK VINA RESULT:      -6.2      3.118      5.518
REMARK  Name = 
REMARK  16 active torsions:
REMARK  status: ('A' for Active; 'I' for Inactive)
REMARK    1  A    between atoms: C_1  and  O_2
REMARK    2  A    between atoms: O_2  and  C_3
REMARK    3  A    between atoms: C_3  and  C_4
REMARK    4  A    between atoms: C_4  and  O_6
REMARK    5  A    between atoms: O_6  and  C_7
REMARK    6  A    between atoms: C_7  and  C_8
REMARK    7  A    between atoms: C_8  and  C_9
REMARK    8  A    between atoms: C_9  and  N_10
REMARK    9  A    between atoms: N_10  and  C_11
REMARK   10  A    between atoms: N_10  and  C_12
REMARK   11  A    between atoms: C_12  and  C_13
REMARK   12  A    between atoms: C_13  and  C_14
REMARK   13  A    between atoms: C_14  and  C_15
REMARK   14  A    between atoms: C_33  and  C_35
REMARK   15  A    between atoms: C_35  and  C_36
REMARK   16  A    between atoms: C_35  and  C_37
REMARK                            x       y       z     vdW  Elec       q    Type
REMARK                         _______ _______ _______ _____ _____    ______ ____
ROOT
ATOM      1  C   UNL     1       6.917  -2.146  25.449  0.00  0.00    +0.122 C 
ATOM      2  C   UNL     1       6.115  -3.517  25.410  0.00  0.00    +0.066 C 
ATOM      3  C   UNL     1       6.171  -4.101  23.994  0.00  0.00    -0.037 A 
ATOM      4  C   UNL     1       6.167  -5.498  23.814  0.00  0.00    +0.007 A 
ATOM      5  C   UNL     1       6.122  -6.053  22.537  0.00  0.00    +0.038 A 
ATOM      6  C   UNL     1       6.127  -5.219  21.432  0.00  0.00    +0.124 A 
ATOM      7  C   UNL     1       6.180  -3.838  21.581  0.00  0.00    +0.042 A 
ATOM      8  F   UNL     1       6.094  -5.749  20.203  0.00  0.00    -0.205 F 
ATOM      9  C   UNL     1       6.196  -3.264  22.863  0.00  0.00    -0.041 A 
ATOM     10  C   UNL     1       6.334  -1.770  22.969  0.00  0.00    +0.039 C 
ATOM     11  C   UNL     1       6.282  -1.210  24.391  0.00  0.00    +0.053 C 
ENDROOT
BRANCH   2  12
ATOM     12  C   UNL     1       4.602  -3.464  25.892  0.00  0.00    -0.006 C 
ATOM     13  C   UNL     1       4.257  -4.442  27.021  0.00  0.00    +0.008 C 
ATOM     14  C   UNL     1       3.596  -3.748  24.758  0.00  0.00    +0.008 C 
ENDBRANCH   2  12
BRANCH   1  15
ATOM     15  O   UNL     1       6.870  -1.655  26.832  0.00  0.00    -0.456 OA
BRANCH  15  16
ATOM     16  C   UNL     1       6.274  -0.496  27.246  0.00  0.00    +0.334 C 
ATOM     17  O   UNL     1       5.078  -0.332  27.441  0.00  0.00    -0.248 OA
BRANCH  16  18
ATOM     18  C   UNL     1       7.350   0.570  27.458  0.00  0.00    +0.279 C 
BRANCH  18  20
ATOM     19  C   UNL     1       7.328   1.402  29.675  0.00  0.00    +0.194 C 
ATOM     20  O   UNL     1       6.906   1.607  28.335  0.00  0.00    -0.372 OA
ENDBRANCH  18  20
ENDBRANCH  16  18
ENDBRANCH  15  16
ENDBRANCH   1  15
BRANCH   1  21
ATOM     21  C   UNL     1       8.443  -2.396  25.156  0.00  0.00    +0.064 C 
BRANCH  21  22
ATOM     22  C   UNL     1       9.243  -1.088  24.970  0.00  0.00    +0.088 C 
BRANCH  22  23
ATOM     23  N   UNL     1      10.301  -1.107  23.937  0.00  0.00    -0.305 NA
ATOM     24  C   UNL     1       9.946  -1.980  22.809  0.00  0.00    +0.104 C 
BRANCH  23  25
ATOM     25  C   UNL     1      10.555   0.257  23.412  0.00  0.00    +0.084 C 
BRANCH  25  26
ATOM     26  C   UNL     1       9.720   0.620  22.175  0.00  0.00    +0.023 C 
BRANCH  26  27
ATOM     27  C   UNL     1       9.348   2.103  22.157  0.00  0.00    +0.075 C 
BRANCH  27  28
ATOM     28  C   UNL     1       7.970   2.309  22.687  0.00  0.00    +0.108 A 
ATOM     29  N   UNL     1       6.937   2.770  21.905  0.00  0.00    -0.342 N 
ATOM     30  H   UNL     1       6.994   3.005  20.925  0.00  0.00    +0.167 HD
ATOM     31  C   UNL     1       5.816   2.872  22.689  0.00  0.00    +0.066 A 
ATOM     32  C   UNL     1       6.233   2.429  23.939  0.00  0.00    +0.089 A 
ATOM     33  C   UNL     1       5.316   2.401  24.999  0.00  0.00    +0.030 A 
ATOM     34  C   UNL     1       4.006   2.840  24.766  0.00  0.00    +0.002 A 
ATOM     35  C   UNL     1       3.617   3.286  23.499  0.00  0.00    +0.002 A 
ATOM     36  C   UNL     1       4.514   3.305  22.426  0.00  0.00    +0.028 A 
ATOM     37  N   UNL     1       7.561   2.077  23.917  0.00  0.00    -0.232 NA
ENDBRANCH  27  28
ENDBRANCH  26  27
ENDBRANCH  25  26
ENDBRANCH  23  25
ENDBRANCH  22  23
ENDBRANCH  21  22
ENDBRANCH   1  21
TORSDOF 12
ENDMDL
MODEL 9
REMARK VINA RESULT:      -6.2      3.528      6.814
REMARK  Name = 
REMARK  16 active torsions:
REMARK  status: ('A' for Active; 'I' for Inactive)
REMARK    1  A    between atoms: C_1  and  O_2
REMARK    2  A    between atoms: O_2  and  C_3
REMARK    3  A    between atoms: C_3  and  C_4
REMARK    4  A    between atoms: C_4  and  O_6
REMARK    5  A    between atoms: O_6  and  C_7
REMARK    6  A    between atoms: C_7  and  C_8
REMARK    7  A    between atoms: C_8  and  C_9
REMARK    8  A    between atoms: C_9  and  N_10
REMARK    9  A    between atoms: N_10  and  C_11
REMARK   10  A    between atoms: N_10  and  C_12
REMARK   11  A    between atoms: C_12  and  C_13
REMARK   12  A    between atoms: C_13  and  C_14
REMARK   13  A    between atoms: C_14  and  C_15
REMARK   14  A    between atoms: C_33  and  C_35
REMARK   15  A    between atoms: C_35  and  C_36
REMARK   16  A    between atoms: C_35  and  C_37
REMARK                            x       y       z     vdW  Elec       q    Type
REMARK                         _______ _______ _______ _____ _____    ______ ____
ROOT
ATOM      1  C   UNL     1       5.514   0.760  25.532  0.00  0.00    +0.122 C 
ATOM      2  C   UNL     1       5.453   1.607  24.189  0.00  0.00    +0.066 C 
ATOM      3  C   UNL     1       6.849   1.666  23.560  0.00  0.00    -0.037 A 
ATOM      4  C   UNL     1       6.982   1.727  22.160  0.00  0.00    +0.007 A 
ATOM      5  C   UNL     1       8.234   1.877  21.567  0.00  0.00    +0.038 A 
ATOM      6  C   UNL     1       9.364   1.921  22.366  0.00  0.00    +0.124 A 
ATOM      7  C   UNL     1       9.265   1.814  23.748  0.00  0.00    +0.042 A 
ATOM      8  F   UNL     1      10.570   2.055  21.799  0.00  0.00    -0.205 F 
ATOM      9  C   UNL     1       8.007   1.692  24.360  0.00  0.00    -0.041 A 
ATOM     10  C   UNL     1       7.960   1.499  25.852  0.00  0.00    +0.039 C 
ATOM     11  C   UNL     1       6.556   1.436  26.456  0.00  0.00    +0.053 C 
ENDROOT
BRANCH   2  12
ATOM     12  C   UNL     1       4.871   3.080  24.308  0.00  0.00    -0.006 C 
ATOM     13  C   UNL     1       3.699   3.383  23.368  0.00  0.00    +0.008 C 
ATOM     14  C   UNL     1       5.928   4.170  24.038  0.00  0.00    +0.008 C 
ENDBRANCH   2  12
BRANCH   1  15
ATOM     15  O   UNL     1       4.148   0.696  26.067  0.00  0.00    -0.456 OA
BRANCH  15  16
ATOM     16  C   UNL     1       3.769   1.059  27.330  0.00  0.00    +0.334 C 
ATOM     17  O   UNL     1       3.963   0.418  28.352  0.00  0.00    -0.248 OA
BRANCH  16  18
ATOM     18  C   UNL     1       3.078   2.423  27.270  0.00  0.00    +0.279 C 
BRANCH  18  20
ATOM     19  C   UNL     1       1.100   3.040  26.123  0.00  0.00    +0.194 C 
ATOM     20  O   UNL     1       1.657   2.297  27.197  0.00  0.00    -0.372 OA
ENDBRANCH  18  20
ENDBRANCH  16  18
ENDBRANCH  15  16
ENDBRANCH   1  15
BRANCH   1  21
ATOM     21  C   UNL     1       5.900  -0.734  25.222  0.00  0.00    +0.064 C 
BRANCH  21  22
ATOM     22  C   UNL     1       6.237  -1.545  26.492  0.00  0.00    +0.088 C 
BRANCH  22  23
ATOM     23  N   UNL     1       5.192  -2.477  26.972  0.00  0.00    -0.305 NA
ATOM     24  C   UNL     1       4.191  -2.755  25.933  0.00  0.00    +0.104 C 
BRANCH  23  25
ATOM     25  C   UNL     1       5.789  -3.765  27.405  0.00  0.00    +0.084 C 
BRANCH  25  26
ATOM     26  C   UNL     1       5.427  -4.957  26.509  0.00  0.00    +0.023 C 
BRANCH  26  27
ATOM     27  C   UNL     1       6.667  -5.589  25.875  0.00  0.00    +0.075 C 
BRANCH  27  28
ATOM     28  C   UNL     1       7.336  -4.628  24.953  0.00  0.00    +0.108 A 
ATOM     29  N   UNL     1       8.610  -4.156  25.170  0.00  0.00    -0.342 N 
ATOM     30  H   UNL     1       9.211  -4.405  25.943  0.00  0.00    +0.167 HD
ATOM     31  C   UNL     1       8.922  -3.278  24.164  0.00  0.00    +0.066 A 
ATOM     32  C   UNL     1       7.797  -3.282  23.348  0.00  0.00    +0.089 A 
ATOM     33  C   UNL     1       7.778  -2.477  22.201  0.00  0.00    +0.030 A 
ATOM     34  C   UNL     1       8.894  -1.677  21.923  0.00  0.00    +0.002 A 
ATOM     35  C   UNL     1      10.010  -1.691  22.764  0.00  0.00    +0.002 A 
ATOM     36  C   UNL     1      10.053  -2.500  23.905  0.00  0.00    +0.028 A 
ATOM     37  N   UNL     1       6.833  -4.125  23.845  0.00  0.00    -0.232 NA
ENDBRANCH  27  28
ENDBRANCH  26  27
ENDBRANCH  25  26
ENDBRANCH  23  25
ENDBRANCH  22  23
ENDBRANCH  21  22
ENDBRANCH   1  21
TORSDOF 12
ENDMDL
