MODEL 1
REMARK VINA RESULT:      -5.5      0.000      0.000
REMARK  Name = 
REMARK  11 active torsions:
REMARK  status: ('A' for Active; 'I' for Inactive)
REMARK    1  A    between atoms: C_1  and  C_2
REMARK    2  A    between atoms: C_2  and  C_3
REMARK    3  A    between atoms: C_2  and  N_4
REMARK    4  A    between atoms: N_4  and  C_5
REMARK    5  A    between atoms: C_5  and  C_6
REMARK    6  A    between atoms: C_6  and  O_7
REMARK    7  A    between atoms: C_6  and  C_8
REMARK    8  A    between atoms: C_8  and  O_9
REMARK    9  A    between atoms: O_9  and  C_10
REMARK   10  A    between atoms: C_15  and  C_16
REMARK   11  A    between atoms: C_16  and  C_17
REMARK                            x       y       z     vdW  Elec       q    Type
REMARK                         _______ _______ _______ _____ _____    ______ ____
ROOT
ATOM      1  C   UNL     1       8.233  -1.559  22.625  0.00  0.00    +0.261 C 
ENDROOT
BRANCH   1   2
ATOM      2  C   UNL     1       9.260  -0.934  21.673  0.00  0.00    +0.166 C 
BRANCH   2   3
ATOM      3  O   UNL     1      10.502  -1.649  21.750  0.00  0.00    -0.387 OA
ATOM      4  H   UNL     1      11.163  -1.019  22.090  0.00  0.00    +0.210 HD
ENDBRANCH   2   3
BRANCH   2   5
ATOM      5  C   UNL     1       9.496   0.552  21.963  0.00  0.00    +0.115 C 
BRANCH   5   6
ATOM      6  N   UNL     1       8.899   0.893  23.261  0.00  0.00    -0.311 NA
ATOM      7  H   UNL     1       8.059   1.454  23.091  0.00  0.00    +0.122 HD
BRANCH   6   9
ATOM      8  C   UNL     1      10.797   0.575  24.738  0.00  0.00    +0.023 C 
ATOM      9  C   UNL     1       9.817   1.597  24.157  0.00  0.00    +0.048 C 
ATOM     10  C   UNL     1      10.590   2.692  23.418  0.00  0.00    +0.023 C 
ENDBRANCH   6   9
ENDBRANCH   5   6
ENDBRANCH   2   5
ENDBRANCH   1   2
BRANCH   1  11
ATOM     11  O   UNL     1       8.124  -2.985  22.453  0.00  0.00    -0.489 OA
BRANCH  11  12
ATOM     12  C   UNL     1       8.117  -3.706  23.631  0.00  0.00    +0.124 A 
ATOM     13  C   UNL     1       6.960  -4.442  23.963  0.00  0.00    -0.002 A 
ATOM     14  C   UNL     1       6.956  -5.203  25.146  0.00  0.00    +0.007 A 
ATOM     15  C   UNL     1       8.047  -5.206  26.012  0.00  0.00    +0.001 A 
ATOM     16  C   UNL     1       9.164  -4.445  25.707  0.00  0.00    +0.004 A 
ATOM     17  C   UNL     1       9.199  -3.706  24.526  0.00  0.00    +0.046 A 
BRANCH  13  18
ATOM     18  C   UNL     1       5.698  -4.444  23.126  0.00  0.00    +0.065 C 
BRANCH  18  19
ATOM     19  C   UNL     1       5.581  -5.621  22.193  0.00  0.00    -0.030 C 
ATOM     20  C   UNL     1       6.311  -5.788  21.081  0.00  0.00    +0.004 C 
ENDBRANCH  18  19
ENDBRANCH  13  18
ENDBRANCH  11  12
ENDBRANCH   1  11
TORSDOF 9
ENDMDL
MODEL 2
REMARK VINA RESULT:      -5.4      1.199      1.616
REMARK  Name = 
REMARK  11 active torsions:
REMARK  status: ('A' for Active; 'I' for Inactive)
REMARK    1  A    between atoms: C_1  and  C_2
REMARK    2  A    between atoms: C_2  and  C_3
REMARK    3  A    between atoms: C_2  and  N_4
REMARK    4  A    between atoms: N_4  and  C_5
REMARK    5  A    between atoms: C_5  and  C_6
REMARK    6  A    between atoms: C_6  and  O_7
REMARK    7  A    between atoms: C_6  and  C_8
REMARK    8  A    between atoms: C_8  and  O_9
REMARK    9  A    between atoms: O_9  and  C_10
REMARK   10  A    between atoms: C_15  and  C_16
REMARK   11  A    between atoms: C_16  and  C_17
REMARK                            x       y       z     vdW  Elec       q    Type
REMARK                         _______ _______ _______ _____ _____    ______ ____
ROOT
ATOM      1  C   UNL     1       9.742  -2.373  24.134  0.00  0.00    +0.261 C 
ENDROOT
BRANCH   1   2
ATOM      2  C   UNL     1       9.540  -1.797  22.728  0.00  0.00    +0.166 C 
BRANCH   2   3
ATOM      3  O   UNL     1      10.801  -1.695  22.050  0.00  0.00    -0.387 OA
ATOM      4  H   UNL     1      11.160  -0.816  22.265  0.00  0.00    +0.210 HD
ENDBRANCH   2   3
BRANCH   2   5
ATOM      5  C   UNL     1       8.852  -0.427  22.752  0.00  0.00    +0.115 C 
BRANCH   5   6
ATOM      6  N   UNL     1       9.300   0.320  23.935  0.00  0.00    -0.311 NA
ATOM      7  H   UNL     1       8.486   0.496  24.531  0.00  0.00    +0.122 HD
BRANCH   6   9
ATOM      8  C   UNL     1       9.960   1.749  22.089  0.00  0.00    +0.023 C 
ATOM      9  C   UNL     1       9.984   1.572  23.608  0.00  0.00    +0.048 C 
ATOM     10  C   UNL     1       9.307   2.769  24.280  0.00  0.00    +0.023 C 
ENDBRANCH   6   9
ENDBRANCH   5   6
ENDBRANCH   2   5
ENDBRANCH   1   2
BRANCH   1  11
ATOM     11  O   UNL     1       9.727  -3.814  24.141  0.00  0.00    -0.489 OA
BRANCH  11  12
ATOM     12  C   UNL     1       8.697  -4.373  24.872  0.00  0.00    +0.124 A 
ATOM     13  C   UNL     1       7.493  -4.686  24.207  0.00  0.00    -0.002 A 
ATOM     14  C   UNL     1       6.449  -5.284  24.937  0.00  0.00    +0.007 A 
ATOM     15  C   UNL     1       6.566  -5.526  26.304  0.00  0.00    +0.001 A 
ATOM     16  C   UNL     1       7.732  -5.174  26.965  0.00  0.00    +0.004 A 
ATOM     17  C   UNL     1       8.788  -4.607  26.253  0.00  0.00    +0.046 A 
BRANCH  13  18
ATOM     18  C   UNL     1       7.243  -4.394  22.742  0.00  0.00    +0.065 C 
BRANCH  18  19
ATOM     19  C   UNL     1       7.175  -5.623  21.873  0.00  0.00    -0.030 C 
ATOM     20  C   UNL     1       6.119  -5.970  21.123  0.00  0.00    +0.004 C 
ENDBRANCH  18  19
ENDBRANCH  13  18
ENDBRANCH  11  12
ENDBRANCH   1  11
TORSDOF 9
ENDMDL
MODEL 3
REMARK VINA RESULT:      -5.3      1.050      2.781
REMARK  Name = 
REMARK  11 active torsions:
REMARK  status: ('A' for Active; 'I' for Inactive)
REMARK    1  A    between atoms: C_1  and  C_2
REMARK    2  A    between atoms: C_2  and  C_3
REMARK    3  A    between atoms: C_2  and  N_4
REMARK    4  A    between atoms: N_4  and  C_5
REMARK    5  A    between atoms: C_5  and  C_6
REMARK    6  A    between atoms: C_6  and  O_7
REMARK    7  A    between atoms: C_6  and  C_8
REMARK    8  A    between atoms: C_8  and  O_9
REMARK    9  A    between atoms: O_9  and  C_10
REMARK   10  A    between atoms: C_15  and  C_16
REMARK   11  A    between atoms: C_16  and  C_17
REMARK                            x       y       z     vdW  Elec       q    Type
REMARK                         _______ _______ _______ _____ _____    ______ ____
ROOT
ATOM      1  C   UNL     1       8.280  -1.961  22.165  0.00  0.00    +0.261 C 
ENDROOT
BRANCH   1   2
ATOM      2  C   UNL     1       9.592  -1.230  21.857  0.00  0.00    +0.166 C 
BRANCH   2   3
ATOM      3  O   UNL     1      10.702  -1.960  22.401  0.00  0.00    -0.387 OA
ATOM      4  H   UNL     1      11.019  -1.451  23.168  0.00  0.00    +0.210 HD
ENDBRANCH   2   3
BRANCH   2   5
ATOM      5  C   UNL     1       9.600   0.205  22.395  0.00  0.00    +0.115 C 
BRANCH   5   6
ATOM      6  N   UNL     1       8.692   0.296  23.546  0.00  0.00    -0.311 NA
ATOM      7  H   UNL     1       7.979   1.001  23.337  0.00  0.00    +0.122 HD
BRANCH   6   9
ATOM      8  C   UNL     1       9.156  -0.558  25.769  0.00  0.00    +0.023 C 
ATOM      9  C   UNL     1       9.374   0.608  24.803  0.00  0.00    +0.048 C 
ATOM     10  C   UNL     1      10.873   0.825  24.585  0.00  0.00    +0.023 C 
ENDBRANCH   6   9
ENDBRANCH   5   6
ENDBRANCH   2   5
ENDBRANCH   1   2
BRANCH   1  11
ATOM     11  O   UNL     1       8.433  -2.944  23.208  0.00  0.00    -0.489 OA
BRANCH  11  12
ATOM     12  C   UNL     1       7.498  -3.960  23.180  0.00  0.00    +0.124 A 
ATOM     13  C   UNL     1       6.988  -4.439  24.405  0.00  0.00    -0.002 A 
ATOM     14  C   UNL     1       6.013  -5.452  24.385  0.00  0.00    +0.007 A 
ATOM     15  C   UNL     1       5.581  -6.020  23.188  0.00  0.00    +0.001 A 
ATOM     16  C   UNL     1       6.118  -5.581  21.989  0.00  0.00    +0.004 A 
ATOM     17  C   UNL     1       7.065  -4.558  21.986  0.00  0.00    +0.046 A 
BRANCH  13  18
ATOM     18  C   UNL     1       7.448  -3.938  25.759  0.00  0.00    +0.065 C 
BRANCH  18  19
ATOM     19  C   UNL     1       8.543  -4.766  26.381  0.00  0.00    -0.030 C 
ATOM     20  C   UNL     1       9.723  -5.028  25.802  0.00  0.00    +0.004 C 
ENDBRANCH  18  19
ENDBRANCH  13  18
ENDBRANCH  11  12
ENDBRANCH   1  11
TORSDOF 9
ENDMDL
MODEL 4
REMARK VINA RESULT:      -5.2      4.463      6.576
REMARK  Name = 
REMARK  11 active torsions:
REMARK  status: ('A' for Active; 'I' for Inactive)
REMARK    1  A    between atoms: C_1  and  C_2
REMARK    2  A    between atoms: C_2  and  C_3
REMARK    3  A    between atoms: C_2  and  N_4
REMARK    4  A    between atoms: N_4  and  C_5
REMARK    5  A    between atoms: C_5  and  C_6
REMARK    6  A    between atoms: C_6  and  O_7
REMARK    7  A    between atoms: C_6  and  C_8
REMARK    8  A    between atoms: C_8  and  O_9
REMARK    9  A    between atoms: O_9  and  C_10
REMARK   10  A    between atoms: C_15  and  C_16
REMARK   11  A    between atoms: C_16  and  C_17
REMARK                            x       y       z     vdW  Elec       q    Type
REMARK                         _______ _______ _______ _____ _____    ______ ____
ROOT
ATOM      1  C   UNL     1      11.649   3.903  23.423  0.00  0.00    +0.261 C 
ENDROOT
BRANCH   1   2
ATOM      2  C   UNL     1      11.789   5.430  23.415  0.00  0.00    +0.166 C 
BRANCH   2   3
ATOM      3  O   UNL     1      12.895   5.827  24.239  0.00  0.00    -0.387 OA
ATOM      4  H   UNL     1      13.159   5.039  24.747  0.00  0.00    +0.210 HD
ENDBRANCH   2   3
BRANCH   2   5
ATOM      5  C   UNL     1      10.512   6.135  23.885  0.00  0.00    +0.115 C 
BRANCH   5   6
ATOM      6  N   UNL     1       9.537   6.154  22.787  0.00  0.00    -0.311 NA
ATOM      7  H   UNL     1       9.886   6.783  22.058  0.00  0.00    +0.122 HD
BRANCH   6   9
ATOM      8  C   UNL     1       7.242   6.358  22.026  0.00  0.00    +0.023 C 
ATOM      9  C   UNL     1       8.192   6.550  23.210  0.00  0.00    +0.048 C 
ATOM     10  C   UNL     1       7.713   5.714  24.399  0.00  0.00    +0.023 C 
ENDBRANCH   6   9
ENDBRANCH   5   6
ENDBRANCH   2   5
ENDBRANCH   1   2
BRANCH   1  11
ATOM     11  O   UNL     1      10.318   3.478  23.776  0.00  0.00    -0.489 OA
BRANCH  11  12
ATOM     12  C   UNL     1      10.081   2.129  23.600  0.00  0.00    +0.124 A 
ATOM     13  C   UNL     1       9.023   1.736  22.752  0.00  0.00    -0.002 A 
ATOM     14  C   UNL     1       8.795   0.364  22.542  0.00  0.00    +0.007 A 
ATOM     15  C   UNL     1       9.558  -0.606  23.189  0.00  0.00    +0.001 A 
ATOM     16  C   UNL     1      10.565  -0.218  24.058  0.00  0.00    +0.004 A 
ATOM     17  C   UNL     1      10.826   1.137  24.257  0.00  0.00    +0.046 A 
BRANCH  13  18
ATOM     18  C   UNL     1       8.093   2.713  22.063  0.00  0.00    +0.065 C 
BRANCH  18  19
ATOM     19  C   UNL     1       6.639   2.321  22.119  0.00  0.00    -0.030 C 
ATOM     20  C   UNL     1       5.683   3.026  22.741  0.00  0.00    +0.004 C 
ENDBRANCH  18  19
ENDBRANCH  13  18
ENDBRANCH  11  12
ENDBRANCH   1  11
TORSDOF 9
ENDMDL
MODEL 5
REMARK VINA RESULT:      -5.2      2.134      5.758
REMARK  Name = 
REMARK  11 active torsions:
REMARK  status: ('A' for Active; 'I' for Inactive)
REMARK    1  A    between atoms: C_1  and  C_2
REMARK    2  A    between atoms: C_2  and  C_3
REMARK    3  A    between atoms: C_2  and  N_4
REMARK    4  A    between atoms: N_4  and  C_5
REMARK    5  A    between atoms: C_5  and  C_6
REMARK    6  A    between atoms: C_6  and  O_7
REMARK    7  A    between atoms: C_6  and  C_8
REMARK    8  A    between atoms: C_8  and  O_9
REMARK    9  A    between atoms: O_9  and  C_10
REMARK   10  A    between atoms: C_15  and  C_16
REMARK   11  A    between atoms: C_16  and  C_17
REMARK                            x       y       z     vdW  Elec       q    Type
REMARK                         _______ _______ _______ _____ _____    ______ ____
ROOT
ATOM      1  C   UNL     1       7.333  -2.415  22.513  0.00  0.00    +0.261 C 
ENDROOT
BRANCH   1   2
ATOM      2  C   UNL     1       6.926  -3.834  22.099  0.00  0.00    +0.166 C 
BRANCH   2   3
ATOM      3  O   UNL     1       5.706  -3.797  21.344  0.00  0.00    -0.387 OA
ATOM      4  H   UNL     1       5.523  -4.712  21.069  0.00  0.00    +0.210 HD
ENDBRANCH   2   3
BRANCH   2   5
ATOM      5  C   UNL     1       6.764  -4.768  23.303  0.00  0.00    +0.115 C 
BRANCH   5   6
ATOM      6  N   UNL     1       7.334  -4.127  24.495  0.00  0.00    -0.311 NA
ATOM      7  H   UNL     1       7.997  -3.410  24.188  0.00  0.00    +0.122 HD
BRANCH   6   9
ATOM      8  C   UNL     1       9.493  -4.946  25.239  0.00  0.00    +0.023 C 
ATOM      9  C   UNL     1       7.978  -5.069  25.411  0.00  0.00    +0.048 C 
ATOM     10  C   UNL     1       7.598  -4.782  26.865  0.00  0.00    +0.023 C 
ENDBRANCH   6   9
ENDBRANCH   5   6
ENDBRANCH   2   5
ENDBRANCH   1   2
BRANCH   1  11
ATOM     11  O   UNL     1       8.749  -2.299  22.750  0.00  0.00    -0.489 OA
BRANCH  11  12
ATOM     12  C   UNL     1       9.210  -1.000  22.844  0.00  0.00    +0.124 A 
ATOM     13  C   UNL     1       9.517  -0.486  24.122  0.00  0.00    -0.002 A 
ATOM     14  C   UNL     1      10.016   0.825  24.225  0.00  0.00    +0.007 A 
ATOM     15  C   UNL     1      10.166   1.635  23.101  0.00  0.00    +0.001 A 
ATOM     16  C   UNL     1       9.819   1.144  21.852  0.00  0.00    +0.004 A 
ATOM     17  C   UNL     1       9.350  -0.162  21.726  0.00  0.00    +0.046 A 
BRANCH  13  18
ATOM     18  C   UNL     1       9.319  -1.262  25.408  0.00  0.00    +0.065 C 
BRANCH  18  19
ATOM     19  C   UNL     1       8.137  -0.806  26.224  0.00  0.00    -0.030 C 
ATOM     20  C   UNL     1       6.886  -0.691  25.756  0.00  0.00    +0.004 C 
ENDBRANCH  18  19
ENDBRANCH  13  18
ENDBRANCH  11  12
ENDBRANCH   1  11
TORSDOF 9
ENDMDL
MODEL 6
REMARK VINA RESULT:      -5.2      1.690      3.338
REMARK  Name = 
REMARK  11 active torsions:
REMARK  status: ('A' for Active; 'I' for Inactive)
REMARK    1  A    between atoms: C_1  and  C_2
REMARK    2  A    between atoms: C_2  and  C_3
REMARK    3  A    between atoms: C_2  and  N_4
REMARK    4  A    between atoms: N_4  and  C_5
REMARK    5  A    between atoms: C_5  and  C_6
REMARK    6  A    between atoms: C_6  and  O_7
REMARK    7  A    between atoms: C_6  and  C_8
REMARK    8  A    between atoms: C_8  and  O_9
REMARK    9  A    between atoms: O_9  and  C_10
REMARK   10  A    between atoms: C_15  and  C_16
REMARK   11  A    between atoms: C_16  and  C_17
REMARK                            x       y       z     vdW  Elec       q    Type
REMARK                         _______ _______ _______ _____ _____    ______ ____
ROOT
ATOM      1  C   UNL     1       8.648  -1.280  24.535  0.00  0.00    +0.261 C 
ENDROOT
BRANCH   1   2
ATOM      2  C   UNL     1       9.802  -0.328  24.870  0.00  0.00    +0.166 C 
BRANCH   2   3
ATOM      3  O   UNL     1       9.293   0.873  25.469  0.00  0.00    -0.387 OA
ATOM      4  H   UNL     1       8.931   1.412  24.744  0.00  0.00    +0.210 HD
ENDBRANCH   2   3
BRANCH   2   5
ATOM      5  C   UNL     1      10.645   0.023  23.639  0.00  0.00    +0.115 C 
BRANCH   5   6
ATOM      6  N   UNL     1       9.831  -0.148  22.429  0.00  0.00    -0.311 NA
ATOM      7  H   UNL     1      10.323  -0.786  21.798  0.00  0.00    +0.122 HD
BRANCH   6   9
ATOM      8  C   UNL     1       8.027   1.391  21.912  0.00  0.00    +0.023 C 
ATOM      9  C   UNL     1       9.523   1.113  21.752  0.00  0.00    +0.048 C 
ATOM     10  C   UNL     1      10.330   2.273  22.339  0.00  0.00    +0.023 C 
ENDBRANCH   6   9
ENDBRANCH   5   6
ENDBRANCH   2   5
ENDBRANCH   1   2
BRANCH   1  11
ATOM     11  O   UNL     1       9.105  -2.491  23.901  0.00  0.00    -0.489 OA
BRANCH  11  12
ATOM     12  C   UNL     1       8.102  -3.259  23.343  0.00  0.00    +0.124 A 
ATOM     13  C   UNL     1       7.929  -4.581  23.807  0.00  0.00    -0.002 A 
ATOM     14  C   UNL     1       6.890  -5.360  23.267  0.00  0.00    +0.007 A 
ATOM     15  C   UNL     1       6.067  -4.871  22.256  0.00  0.00    +0.001 A 
ATOM     16  C   UNL     1       6.268  -3.590  21.768  0.00  0.00    +0.004 A 
ATOM     17  C   UNL     1       7.274  -2.791  22.310  0.00  0.00    +0.046 A 
BRANCH  13  18
ATOM     18  C   UNL     1       8.819  -5.227  24.849  0.00  0.00    +0.065 C 
BRANCH  18  19
ATOM     19  C   UNL     1       8.208  -5.291  26.225  0.00  0.00    -0.030 C 
ATOM     20  C   UNL     1       7.503  -4.303  26.793  0.00  0.00    +0.004 C 
ENDBRANCH  18  19
ENDBRANCH  13  18
ENDBRANCH  11  12
ENDBRANCH   1  11
TORSDOF 9
ENDMDL
MODEL 7
REMARK VINA RESULT:      -4.9      2.178      6.227
REMARK  Name = 
REMARK  11 active torsions:
REMARK  status: ('A' for Active; 'I' for Inactive)
REMARK    1  A    between atoms: C_1  and  C_2
REMARK    2  A    between atoms: C_2  and  C_3
REMARK    3  A    between atoms: C_2  and  N_4
REMARK    4  A    between atoms: N_4  and  C_5
REMARK    5  A    between atoms: C_5  and  C_6
REMARK    6  A    between atoms: C_6  and  O_7
REMARK    7  A    between atoms: C_6  and  C_8
REMARK    8  A    between atoms: C_8  and  O_9
REMARK    9  A    between atoms: O_9  and  C_10
REMARK   10  A    between atoms: C_15  and  C_16
REMARK   11  A    between atoms: C_16  and  C_17
REMARK                            x       y       z     vdW  Elec       q    Type
REMARK                         _______ _______ _______ _____ _____    ______ ____
ROOT
ATOM      1  C   UNL     1       9.353  -2.298  23.208  0.00  0.00    +0.261 C 
ENDROOT
BRANCH   1   2
ATOM      2  C   UNL     1       8.890  -3.350  24.223  0.00  0.00    +0.166 C 
BRANCH   2   3
ATOM      3  O   UNL     1       9.976  -4.230  24.550  0.00  0.00    -0.387 OA
ATOM      4  H   UNL     1       9.613  -4.906  25.149  0.00  0.00    +0.210 HD
ENDBRANCH   2   3
BRANCH   2   5
ATOM      5  C   UNL     1       7.696  -4.164  23.714  0.00  0.00    +0.115 C 
BRANCH   5   6
ATOM      6  N   UNL     1       7.559  -3.972  22.264  0.00  0.00    -0.311 NA
ATOM      7  H   UNL     1       7.840  -3.013  22.040  0.00  0.00    +0.122 HD
BRANCH   6   9
ATOM      8  C   UNL     1       6.167  -5.697  21.280  0.00  0.00    +0.023 C 
ATOM      9  C   UNL     1       6.212  -4.247  21.765  0.00  0.00    +0.048 C 
ATOM     10  C   UNL     1       5.158  -4.033  22.854  0.00  0.00    +0.023 C 
ENDBRANCH   6   9
ENDBRANCH   5   6
ENDBRANCH   2   5
ENDBRANCH   1   2
BRANCH   1  11
ATOM     11  O   UNL     1       8.420  -1.206  23.089  0.00  0.00    -0.489 OA
BRANCH  11  12
ATOM     12  C   UNL     1       8.998   0.048  23.123  0.00  0.00    +0.124 A 
ATOM     13  C   UNL     1       8.898   0.803  24.311  0.00  0.00    -0.002 A 
ATOM     14  C   UNL     1       9.511   2.068  24.365  0.00  0.00    +0.007 A 
ATOM     15  C   UNL     1      10.167   2.605  23.260  0.00  0.00    +0.001 A 
ATOM     16  C   UNL     1      10.223   1.882  22.079  0.00  0.00    +0.004 A 
ATOM     17  C   UNL     1       9.647   0.614  22.014  0.00  0.00    +0.046 A 
BRANCH  13  18
ATOM     18  C   UNL     1       8.144   0.338  25.540  0.00  0.00    +0.065 C 
BRANCH  18  19
ATOM     19  C   UNL     1       6.741   0.881  25.641  0.00  0.00    -0.030 C 
ATOM     20  C   UNL     1       5.932   1.101  24.596  0.00  0.00    +0.004 C 
ENDBRANCH  18  19
ENDBRANCH  13  18
ENDBRANCH  11  12
ENDBRANCH   1  11
TORSDOF 9
ENDMDL
MODEL 8
REMARK VINA RESULT:      -4.9      2.108      7.282
REMARK  Name = 
REMARK  11 active torsions:
REMARK  status: ('A' for Active; 'I' for Inactive)
REMARK    1  A    between atoms: C_1  and  C_2
REMARK    2  A    between atoms: C_2  and  C_3
REMARK    3  A    between atoms: C_2  and  N_4
REMARK    4  A    between atoms: N_4  and  C_5
REMARK    5  A    between atoms: C_5  and  C_6
REMARK    6  A    between atoms: C_6  and  O_7
REMARK    7  A    between atoms: C_6  and  C_8
REMARK    8  A    between atoms: C_8  and  O_9
REMARK    9  A    between atoms: O_9  and  C_10
REMARK   10  A    between atoms: C_15  and  C_16
REMARK   11  A    between atoms: C_16  and  C_17
REMARK                            x       y       z     vdW  Elec       q    Type
REMARK                         _______ _______ _______ _____ _____    ______ ____
ROOT
ATOM      1  C   UNL     1      10.291  -0.503  23.765  0.00  0.00    +0.261 C 
ENDROOT
BRANCH   1   2
ATOM      2  C   UNL     1       9.861  -1.747  22.981  0.00  0.00    +0.166 C 
BRANCH   2   3
ATOM      3  O   UNL     1      10.058  -1.536  21.574  0.00  0.00    -0.387 OA
ATOM      4  H   UNL     1      10.789  -2.121  21.307  0.00  0.00    +0.210 HD
ENDBRANCH   2   3
BRANCH   2   5
ATOM      5  C   UNL     1       8.401  -2.130  23.249  0.00  0.00    +0.115 C 
BRANCH   5   6
ATOM      6  N   UNL     1       8.005  -3.206  22.331  0.00  0.00    -0.311 NA
ATOM      7  H   UNL     1       7.385  -2.809  21.619  0.00  0.00    +0.122 HD
BRANCH   6   9
ATOM      8  C   UNL     1       7.115  -5.433  21.965  0.00  0.00    +0.023 C 
ATOM      9  C   UNL     1       7.364  -4.337  23.003  0.00  0.00    +0.048 C 
ATOM     10  C   UNL     1       8.240  -4.885  24.132  0.00  0.00    +0.023 C 
ENDBRANCH   6   9
ENDBRANCH   5   6
ENDBRANCH   2   5
ENDBRANCH   1   2
BRANCH   1  11
ATOM     11  O   UNL     1       9.942   0.720  23.086  0.00  0.00    -0.489 OA
BRANCH  11  12
ATOM     12  C   UNL     1       9.277   1.642  23.870  0.00  0.00    +0.124 A 
ATOM     13  C   UNL     1       9.753   2.970  23.897  0.00  0.00    -0.002 A 
ATOM     14  C   UNL     1       9.063   3.923  24.668  0.00  0.00    +0.007 A 
ATOM     15  C   UNL     1       7.956   3.570  25.438  0.00  0.00    +0.001 A 
ATOM     16  C   UNL     1       7.520   2.255  25.447  0.00  0.00    +0.004 A 
ATOM     17  C   UNL     1       8.173   1.302  24.667  0.00  0.00    +0.046 A 
BRANCH  13  18
ATOM     18  C   UNL     1      10.989   3.434  23.154  0.00  0.00    +0.065 C 
BRANCH  18  19
ATOM     19  C   UNL     1      11.426   4.833  23.503  0.00  0.00    -0.030 C 
ATOM     20  C   UNL     1      12.685   5.284  23.409  0.00  0.00    +0.004 C 
ENDBRANCH  18  19
ENDBRANCH  13  18
ENDBRANCH  11  12
ENDBRANCH   1  11
TORSDOF 9
ENDMDL
MODEL 9
REMARK VINA RESULT:      -4.8      1.507      1.768
REMARK  Name = 
REMARK  11 active torsions:
REMARK  status: ('A' for Active; 'I' for Inactive)
REMARK    1  A    between atoms: C_1  and  C_2
REMARK    2  A    between atoms: C_2  and  C_3
REMARK    3  A    between atoms: C_2  and  N_4
REMARK    4  A    between atoms: N_4  and  C_5
REMARK    5  A    between atoms: C_5  and  C_6
REMARK    6  A    between atoms: C_6  and  O_7
REMARK    7  A    between atoms: C_6  and  C_8
REMARK    8  A    between atoms: C_8  and  O_9
REMARK    9  A    between atoms: O_9  and  C_10
REMARK   10  A    between atoms: C_15  and  C_16
REMARK   11  A    between atoms: C_16  and  C_17
REMARK                            x       y       z     vdW  Elec       q    Type
REMARK                         _______ _______ _______ _____ _____    ______ ____
ROOT
ATOM      1  C   UNL     1       6.898  -1.279  22.978  0.00  0.00    +0.261 C 
ENDROOT
BRANCH   1   2
ATOM      2  C   UNL     1       7.368   0.179  22.930  0.00  0.00    +0.166 C 
BRANCH   2   3
ATOM      3  O   UNL     1       6.281   1.035  22.545  0.00  0.00    -0.387 OA
ATOM      4  H   UNL     1       5.570   0.452  22.225  0.00  0.00    +0.210 HD
ENDBRANCH   2   3
BRANCH   2   5
ATOM      5  C   UNL     1       8.550   0.380  21.976  0.00  0.00    +0.115 C 
BRANCH   5   6
ATOM      6  N   UNL     1       9.807   0.218  22.720  0.00  0.00    -0.311 NA
ATOM      7  H   UNL     1       9.882  -0.760  23.013  0.00  0.00    +0.122 HD
BRANCH   6   9
ATOM      8  C   UNL     1      10.825   0.447  24.910  0.00  0.00    +0.023 C 
ATOM      9  C   UNL     1       9.920   1.114  23.872  0.00  0.00    +0.048 C 
ATOM     10  C   UNL     1      10.506   2.469  23.469  0.00  0.00    +0.023 C 
ENDBRANCH   6   9
ENDBRANCH   5   6
ENDBRANCH   2   5
ENDBRANCH   1   2
BRANCH   1  11
ATOM     11  O   UNL     1       7.996  -2.210  22.908  0.00  0.00    -0.489 OA
BRANCH  11  12
ATOM     12  C   UNL     1       8.141  -3.010  24.025  0.00  0.00    +0.124 A 
ATOM     13  C   UNL     1       7.906  -4.396  23.895  0.00  0.00    -0.002 A 
ATOM     14  C   UNL     1       8.081  -5.223  25.019  0.00  0.00    +0.007 A 
ATOM     15  C   UNL     1       8.432  -4.695  26.260  0.00  0.00    +0.001 A 
ATOM     16  C   UNL     1       8.615  -3.329  26.396  0.00  0.00    +0.004 A 
ATOM     17  C   UNL     1       8.474  -2.496  25.288  0.00  0.00    +0.046 A 
BRANCH  13  18
ATOM     18  C   UNL     1       7.451  -5.053  22.608  0.00  0.00    +0.065 C 
BRANCH  18  19
ATOM     19  C   UNL     1       5.975  -4.913  22.335  0.00  0.00    -0.030 C 
ATOM     20  C   UNL     1       5.005  -5.347  23.152  0.00  0.00    +0.004 C 
ENDBRANCH  18  19
ENDBRANCH  13  18
ENDBRANCH  11  12
ENDBRANCH   1  11
TORSDOF 9
ENDMDL
