MODEL 1
REMARK VINA RESULT:      -6.7      0.000      0.000
REMARK  Name = 
REMARK  17 active torsions:
REMARK  status: ('A' for Active; 'I' for Inactive)
REMARK    1  A    between atoms: C_1  and  C_2
REMARK    2  A    between atoms: C_2  and  O_3
REMARK    3  A    between atoms: O_3  and  C_4
REMARK    4  A    between atoms: C_4  and  C_6
REMARK    5  A    between atoms: C_6  and  C_8
REMARK    6  A    between atoms: C_6  and  N_16
REMARK    7  A    between atoms: C_8  and  C_9
REMARK    8  A    between atoms: C_9  and  C_10
REMARK    9  A    between atoms: N_16  and  CA_17
REMARK   10  A    between atoms: CA_17  and  CB_19
REMARK   11  A    between atoms: CA_17  and  C_20
REMARK   12  A    between atoms: C_26  and  O_27
REMARK   13  A    between atoms: O_27  and  C_28
REMARK   14  A    between atoms: C_29  and  O_30
REMARK   15  A    between atoms: O_30  and  C_31
REMARK   16  A    between atoms: C_35  and  C_37
REMARK   17  A    between atoms: C_37  and  O_38
REMARK                            x       y       z     vdW  Elec       q    Type
REMARK                         _______ _______ _______ _____ _____    ______ ____
ROOT
ATOM      1  C   ALA A   1       7.831  -2.817  26.431  0.00  0.00    +0.233 C 
ATOM      2  N   UNK A   2       6.480  -3.183  26.528  0.00  0.00    -0.282 N 
ATOM      3  C   UNK A   2       5.306  -2.389  26.177  0.00  0.00    +0.189 C 
ATOM      4  C   UNK A   2       4.891  -2.634  24.721  0.00  0.00    +0.069 C 
ATOM      5  C   UNK A   2       4.524  -4.076  24.613  0.00  0.00    -0.037 A 
ATOM      6  C   UNK A   2       5.116  -4.995  25.485  0.00  0.00    -0.023 A 
ATOM      7  C   UNK A   2       4.693  -6.309  25.420  0.00  0.00    +0.054 A 
ATOM      8  C   UNK A   2       3.763  -6.727  24.454  0.00  0.00    +0.162 A 
ATOM      9  C   UNK A   2       3.216  -5.801  23.547  0.00  0.00    +0.162 A 
ATOM     10  C   UNK A   2       3.597  -4.470  23.646  0.00  0.00    +0.053 A 
ATOM     11  C   UNK A   2       6.168  -4.626  26.505  0.00  0.00    +0.144 C 
ATOM     12  O   ALA A   1       8.668  -3.730  26.571  0.00  0.00    -0.274 OA
ENDROOT
BRANCH   1  13
ATOM     13  CA  ALA A   1       8.467  -1.357  26.314  0.00  0.00    +0.138 C 
ATOM     14  CB  ALA A   1       8.261  -0.414  27.492  0.00  0.00    +0.034 C 
BRANCH  13  15
ATOM     15  N   ALA A   1       8.563  -0.652  25.021  0.00  0.00    -0.294 NA
ATOM     16  H   ALA A   1       7.636  -0.527  24.610  0.00  0.00    +0.123 HD
BRANCH  15  17
ATOM     17  C   UNK A   0       9.514  -1.052  23.988  0.00  0.00    +0.164 C 
BRANCH  17  18
ATOM     18  C   UNK A   0      10.488   0.080  23.572  0.00  0.00    +0.324 C 
ATOM     19  O   UNK A   0      11.147   0.703  24.401  0.00  0.00    -0.249 OA
BRANCH  18  20
ATOM     20  O   UNK A   0      10.354   0.428  22.266  0.00  0.00    -0.464 OA
BRANCH  20  22
ATOM     21  C   UNK A   0       8.426   1.735  21.691  0.00  0.00    +0.048 C 
ATOM     22  C   UNK A   0       9.906   1.777  22.043  0.00  0.00    +0.229 C 
ENDBRANCH  20  22
ENDBRANCH  18  20
ENDBRANCH  17  18
BRANCH  17  23
ATOM     23  C   UNK A   0       9.136  -1.924  22.755  0.00  0.00    +0.035 C 
BRANCH  23  24
ATOM     24  C   UNK A   0       7.679  -2.237  22.323  0.00  0.00    +0.037 C 
BRANCH  24  25
ATOM     25  C   UNK A   0       7.346  -3.693  22.200  0.00  0.00    -0.047 A 
ATOM     26  C   UNK A   0       6.377  -4.115  21.278  0.00  0.00    +0.003 A 
ATOM     27  C   UNK A   0       6.054  -5.463  21.204  0.00  0.00    +0.000 A 
ATOM     28  C   UNK A   0       6.687  -6.372  22.059  0.00  0.00    +0.000 A 
ATOM     29  C   UNK A   0       7.592  -5.942  23.032  0.00  0.00    +0.000 A 
ATOM     30  C   UNK A   0       7.893  -4.590  23.111  0.00  0.00    +0.003 A 
ENDBRANCH  24  25
ENDBRANCH  23  24
ENDBRANCH  17  23
ENDBRANCH  15  17
ENDBRANCH  13  15
ENDBRANCH   1  13
BRANCH   3  31
ATOM     31  C   UNK A   2       4.025  -2.373  27.049  0.00  0.00    +0.326 C 
ATOM     32  O   UNK A   2       3.898  -3.023  28.081  0.00  0.00    -0.249 OA
BRANCH  31  33
ATOM     33  O   UNK A   2       2.977  -1.730  26.485  0.00  0.00    -0.479 OA
ATOM     34  H   UNK A   2       2.943  -0.785  26.730  0.00  0.00    +0.295 HD
ENDBRANCH  31  33
ENDBRANCH   3  31
BRANCH   9  35
ATOM     35  O   UNK A   2       2.329  -6.255  22.603  0.00  0.00    -0.491 OA
ATOM     36  C   UNK A   2       0.986  -5.782  22.722  0.00  0.00    +0.277 C 
ENDBRANCH   9  35
BRANCH   8  37
ATOM     37  O   UNK A   2       3.354  -8.037  24.370  0.00  0.00    -0.491 OA
ATOM     38  C   UNK A   2       2.235  -8.363  25.191  0.00  0.00    +0.277 C 
ENDBRANCH   8  37
TORSDOF 13
ENDMDL
MODEL 2
REMARK VINA RESULT:      -6.2      3.555      8.374
REMARK  Name = 
REMARK  17 active torsions:
REMARK  status: ('A' for Active; 'I' for Inactive)
REMARK    1  A    between atoms: C_1  and  C_2
REMARK    2  A    between atoms: C_2  and  O_3
REMARK    3  A    between atoms: O_3  and  C_4
REMARK    4  A    between atoms: C_4  and  C_6
REMARK    5  A    between atoms: C_6  and  C_8
REMARK    6  A    between atoms: C_6  and  N_16
REMARK    7  A    between atoms: C_8  and  C_9
REMARK    8  A    between atoms: C_9  and  C_10
REMARK    9  A    between atoms: N_16  and  CA_17
REMARK   10  A    between atoms: CA_17  and  CB_19
REMARK   11  A    between atoms: CA_17  and  C_20
REMARK   12  A    between atoms: C_26  and  O_27
REMARK   13  A    between atoms: O_27  and  C_28
REMARK   14  A    between atoms: C_29  and  O_30
REMARK   15  A    between atoms: O_30  and  C_31
REMARK   16  A    between atoms: C_35  and  C_37
REMARK   17  A    between atoms: C_37  and  O_38
REMARK                            x       y       z     vdW  Elec       q    Type
REMARK                         _______ _______ _______ _____ _____    ______ ____
ROOT
ATOM      1  C   ALA A   1       6.481  -0.514  23.887  0.00  0.00    +0.233 C 
ATOM      2  N   UNK A   2       6.095   0.791  24.231  0.00  0.00    -0.282 N 
ATOM      3  C   UNK A   2       6.036   1.391  25.560  0.00  0.00    +0.189 C 
ATOM      4  C   UNK A   2       7.360   2.080  25.912  0.00  0.00    +0.069 C 
ATOM      5  C   UNK A   2       7.553   3.176  24.918  0.00  0.00    -0.037 A 
ATOM      6  C   UNK A   2       6.981   3.050  23.647  0.00  0.00    -0.023 A 
ATOM      7  C   UNK A   2       7.102   4.117  22.777  0.00  0.00    +0.054 A 
ATOM      8  C   UNK A   2       7.848   5.256  23.123  0.00  0.00    +0.162 A 
ATOM      9  C   UNK A   2       8.464   5.346  24.385  0.00  0.00    +0.162 A 
ATOM     10  C   UNK A   2       8.297   4.300  25.281  0.00  0.00    +0.053 A 
ATOM     11  C   UNK A   2       6.220   1.828  23.188  0.00  0.00    +0.144 C 
ATOM     12  O   ALA A   1       6.673  -0.739  22.676  0.00  0.00    -0.274 OA
ENDROOT
BRANCH   1  13
ATOM     13  CA  ALA A   1       6.570  -1.809  24.817  0.00  0.00    +0.138 C 
ATOM     14  CB  ALA A   1       5.357  -2.127  25.683  0.00  0.00    +0.034 C 
BRANCH  13  15
ATOM     15  N   ALA A   1       7.842  -2.245  25.425  0.00  0.00    -0.294 NA
ATOM     16  H   ALA A   1       8.351  -1.445  25.804  0.00  0.00    +0.123 HD
BRANCH  15  17
ATOM     17  C   UNK A   0       8.766  -3.140  24.734  0.00  0.00    +0.164 C 
BRANCH  17  18
ATOM     18  C   UNK A   0       9.146  -4.395  25.560  0.00  0.00    +0.324 C 
ATOM     19  O   UNK A   0       9.927  -5.240  25.130  0.00  0.00    -0.249 OA
BRANCH  18  20
ATOM     20  O   UNK A   0       8.369  -4.546  26.664  0.00  0.00    -0.464 OA
BRANCH  20  22
ATOM     21  C   UNK A   0       6.595  -5.641  27.851  0.00  0.00    +0.048 C 
ATOM     22  C   UNK A   0       7.228  -5.405  26.488  0.00  0.00    +0.229 C 
ENDBRANCH  20  22
ENDBRANCH  18  20
ENDBRANCH  17  18
BRANCH  17  23
ATOM     23  C   UNK A   0       9.985  -2.648  23.900  0.00  0.00    +0.035 C 
BRANCH  23  24
ATOM     24  C   UNK A   0       9.870  -1.793  22.609  0.00  0.00    +0.037 C 
BRANCH  24  25
ATOM     25  C   UNK A   0      10.129  -0.328  22.786  0.00  0.00    -0.047 A 
ATOM     26  C   UNK A   0      10.565   0.163  24.025  0.00  0.00    +0.003 A 
ATOM     27  C   UNK A   0      10.764   1.527  24.181  0.00  0.00    +0.000 A 
ATOM     28  C   UNK A   0      10.512   2.388  23.108  0.00  0.00    +0.000 A 
ATOM     29  C   UNK A   0      10.001   1.910  21.900  0.00  0.00    +0.000 A 
ATOM     30  C   UNK A   0       9.786   0.546  21.760  0.00  0.00    +0.003 A 
ENDBRANCH  24  25
ENDBRANCH  23  24
ENDBRANCH  17  23
ENDBRANCH  15  17
ENDBRANCH  13  15
ENDBRANCH   1  13
BRANCH   3  31
ATOM     31  C   UNK A   2       4.876   2.317  26.001  0.00  0.00    +0.326 C 
ATOM     32  O   UNK A   2       4.935   3.065  26.972  0.00  0.00    -0.249 OA
BRANCH  31  33
ATOM     33  O   UNK A   2       3.713   2.104  25.344  0.00  0.00    -0.479 OA
ATOM     34  H   UNK A   2       3.586   1.166  25.104  0.00  0.00    +0.295 HD
ENDBRANCH  31  33
ENDBRANCH   3  31
BRANCH   9  35
ATOM     35  O   UNK A   2       9.205   6.466  24.673  0.00  0.00    -0.491 OA
ATOM     36  C   UNK A   2      10.619   6.341  24.516  0.00  0.00    +0.277 C 
ENDBRANCH   9  35
BRANCH   8  37
ATOM     37  O   UNK A   2       7.991   6.311  22.254  0.00  0.00    -0.491 OA
ATOM     38  C   UNK A   2       6.774   6.975  21.921  0.00  0.00    +0.277 C 
ENDBRANCH   8  37
TORSDOF 13
ENDMDL
MODEL 3
REMARK VINA RESULT:      -6.1      2.232      4.975
REMARK  Name = 
REMARK  17 active torsions:
REMARK  status: ('A' for Active; 'I' for Inactive)
REMARK    1  A    between atoms: C_1  and  C_2
REMARK    2  A    between atoms: C_2  and  O_3
REMARK    3  A    between atoms: O_3  and  C_4
REMARK    4  A    between atoms: C_4  and  C_6
REMARK    5  A    between atoms: C_6  and  C_8
REMARK    6  A    between atoms: C_6  and  N_16
REMARK    7  A    between atoms: C_8  and  C_9
REMARK    8  A    between atoms: C_9  and  C_10
REMARK    9  A    between atoms: N_16  and  CA_17
REMARK   10  A    between atoms: CA_17  and  CB_19
REMARK   11  A    between atoms: CA_17  and  C_20
REMARK   12  A    between atoms: C_26  and  O_27
REMARK   13  A    between atoms: O_27  and  C_28
REMARK   14  A    between atoms: C_29  and  O_30
REMARK   15  A    between atoms: O_30  and  C_31
REMARK   16  A    between atoms: C_35  and  C_37
REMARK   17  A    between atoms: C_37  and  O_38
REMARK                            x       y       z     vdW  Elec       q    Type
REMARK                         _______ _______ _______ _____ _____    ______ ____
ROOT
ATOM      1  C   ALA A   1       6.735  -3.167  22.533  0.00  0.00    +0.233 C 
ATOM      2  N   UNK A   2       6.812  -4.246  23.426  0.00  0.00    -0.282 N 
ATOM      3  C   UNK A   2       7.204  -4.224  24.832  0.00  0.00    +0.189 C 
ATOM      4  C   UNK A   2       5.983  -4.030  25.740  0.00  0.00    +0.069 C 
ATOM      5  C   UNK A   2       5.095  -5.210  25.526  0.00  0.00    -0.037 A 
ATOM      6  C   UNK A   2       5.131  -5.874  24.296  0.00  0.00    -0.023 A 
ATOM      7  C   UNK A   2       4.363  -7.014  24.155  0.00  0.00    +0.054 A 
ATOM      8  C   UNK A   2       3.507  -7.445  25.182  0.00  0.00    +0.162 A 
ATOM      9  C   UNK A   2       3.439  -6.735  26.396  0.00  0.00    +0.162 A 
ATOM     10  C   UNK A   2       4.252  -5.622  26.560  0.00  0.00    +0.053 A 
ATOM     11  C   UNK A   2       5.981  -5.430  23.128  0.00  0.00    +0.144 C 
ATOM     12  O   ALA A   1       6.162  -3.380  21.447  0.00  0.00    -0.274 OA
ENDROOT
BRANCH   1  13
ATOM     13  CA  ALA A   1       7.413  -1.725  22.643  0.00  0.00    +0.138 C 
ATOM     14  CB  ALA A   1       6.492  -0.544  22.919  0.00  0.00    +0.034 C 
BRANCH  13  15
ATOM     15  N   ALA A   1       8.596  -1.358  21.840  0.00  0.00    -0.294 NA
ATOM     16  H   ALA A   1       8.766  -2.055  21.112  0.00  0.00    +0.123 HD
BRANCH  15  17
ATOM     17  C   UNK A   0       9.860  -0.964  22.456  0.00  0.00    +0.164 C 
BRANCH  17  18
ATOM     18  C   UNK A   0      10.145  -1.685  23.797  0.00  0.00    +0.324 C 
ATOM     19  O   UNK A   0      10.255  -2.907  23.864  0.00  0.00    -0.249 OA
BRANCH  18  20
ATOM     20  O   UNK A   0      10.035  -0.856  24.868  0.00  0.00    -0.464 OA
BRANCH  20  22
ATOM     21  C   UNK A   0       8.181   0.065  26.080  0.00  0.00    +0.048 C 
ATOM     22  C   UNK A   0       8.984  -1.195  25.790  0.00  0.00    +0.229 C 
ENDBRANCH  20  22
ENDBRANCH  18  20
ENDBRANCH  17  18
BRANCH  17  23
ATOM     23  C   UNK A   0      10.377   0.504  22.506  0.00  0.00    +0.035 C 
BRANCH  23  24
ATOM     24  C   UNK A   0       9.660   1.704  21.832  0.00  0.00    +0.037 C 
BRANCH  24  25
ATOM     25  C   UNK A   0       8.804   2.532  22.742  0.00  0.00    -0.047 A 
ATOM     26  C   UNK A   0       7.599   3.074  22.269  0.00  0.00    +0.003 A 
ATOM     27  C   UNK A   0       6.838   3.868  23.114  0.00  0.00    +0.000 A 
ATOM     28  C   UNK A   0       7.290   4.128  24.412  0.00  0.00    +0.000 A 
ATOM     29  C   UNK A   0       8.527   3.656  24.855  0.00  0.00    +0.000 A 
ATOM     30  C   UNK A   0       9.291   2.878  23.997  0.00  0.00    +0.003 A 
ENDBRANCH  24  25
ENDBRANCH  23  24
ENDBRANCH  17  23
ENDBRANCH  15  17
ENDBRANCH  13  15
ENDBRANCH   1  13
BRANCH   3  31
ATOM     31  C   UNK A   2       8.105  -5.316  25.459  0.00  0.00    +0.326 C 
ATOM     32  O   UNK A   2       7.937  -5.772  26.585  0.00  0.00    -0.249 OA
BRANCH  31  33
ATOM     33  O   UNK A   2       9.216  -5.600  24.741  0.00  0.00    -0.479 OA
ATOM     34  H   UNK A   2      10.037  -5.353  25.209  0.00  0.00    +0.295 HD
ENDBRANCH  31  33
ENDBRANCH   3  31
BRANCH   9  35
ATOM     35  O   UNK A   2       2.571  -7.175  27.364  0.00  0.00    -0.491 OA
ATOM     36  C   UNK A   2       2.180  -6.210  28.342  0.00  0.00    +0.277 C 
ENDBRANCH   9  35
BRANCH   8  37
ATOM     37  O   UNK A   2       2.723  -8.565  25.042  0.00  0.00    -0.491 OA
ATOM     38  C   UNK A   2       1.694  -8.449  24.061  0.00  0.00    +0.277 C 
ENDBRANCH   8  37
TORSDOF 13
ENDMDL
MODEL 4
REMARK VINA RESULT:      -6.0      2.450      8.086
REMARK  Name = 
REMARK  17 active torsions:
REMARK  status: ('A' for Active; 'I' for Inactive)
REMARK    1  A    between atoms: C_1  and  C_2
REMARK    2  A    between atoms: C_2  and  O_3
REMARK    3  A    between atoms: O_3  and  C_4
REMARK    4  A    between atoms: C_4  and  C_6
REMARK    5  A    between atoms: C_6  and  C_8
REMARK    6  A    between atoms: C_6  and  N_16
REMARK    7  A    between atoms: C_8  and  C_9
REMARK    8  A    between atoms: C_9  and  C_10
REMARK    9  A    between atoms: N_16  and  CA_17
REMARK   10  A    between atoms: CA_17  and  CB_19
REMARK   11  A    between atoms: CA_17  and  C_20
REMARK   12  A    between atoms: C_26  and  O_27
REMARK   13  A    between atoms: O_27  and  C_28
REMARK   14  A    between atoms: C_29  and  O_30
REMARK   15  A    between atoms: O_30  and  C_31
REMARK   16  A    between atoms: C_35  and  C_37
REMARK   17  A    between atoms: C_37  and  O_38
REMARK                            x       y       z     vdW  Elec       q    Type
REMARK                         _______ _______ _______ _____ _____    ______ ____
ROOT
ATOM      1  C   ALA A   1       8.618  -2.181  25.761  0.00  0.00    +0.233 C 
ATOM      2  N   UNK A   2       9.110  -1.427  24.686  0.00  0.00    -0.282 N 
ATOM      3  C   UNK A   2       8.740  -1.522  23.277  0.00  0.00    +0.189 C 
ATOM      4  C   UNK A   2       7.586  -0.567  22.945  0.00  0.00    +0.069 C 
ATOM      5  C   UNK A   2       8.084   0.815  23.201  0.00  0.00    -0.037 A 
ATOM      6  C   UNK A   2       9.091   1.011  24.151  0.00  0.00    -0.023 A 
ATOM      7  C   UNK A   2       9.593   2.290  24.306  0.00  0.00    +0.054 A 
ATOM      8  C   UNK A   2       9.052   3.374  23.594  0.00  0.00    +0.162 A 
ATOM      9  C   UNK A   2       8.002   3.171  22.680  0.00  0.00    +0.162 A 
ATOM     10  C   UNK A   2       7.533   1.879  22.483  0.00  0.00    +0.053 A 
ATOM     11  C   UNK A   2       9.674  -0.099  24.995  0.00  0.00    +0.144 C 
ATOM     12  O   ALA A   1       8.906  -1.778  26.905  0.00  0.00    -0.274 OA
ENDROOT
BRANCH   1  13
ATOM     13  CA  ALA A   1       7.854  -3.584  25.735  0.00  0.00    +0.138 C 
ATOM     14  CB  ALA A   1       8.613  -4.797  26.259  0.00  0.00    +0.034 C 
BRANCH  13  15
ATOM     15  N   ALA A   1       6.888  -3.924  24.673  0.00  0.00    -0.294 NA
ATOM     16  H   ALA A   1       7.307  -3.794  23.750  0.00  0.00    +0.123 HD
BRANCH  15  17
ATOM     17  C   UNK A   0       5.521  -3.410  24.674  0.00  0.00    +0.164 C 
BRANCH  17  18
ATOM     18  C   UNK A   0       4.618  -4.051  23.590  0.00  0.00    +0.324 C 
ATOM     19  O   UNK A   0       3.506  -4.499  23.857  0.00  0.00    -0.249 OA
BRANCH  18  20
ATOM     20  O   UNK A   0       5.274  -4.249  22.417  0.00  0.00    -0.464 OA
BRANCH  20  22
ATOM     21  C   UNK A   0       6.880  -5.853  21.640  0.00  0.00    +0.048 C 
ATOM     22  C   UNK A   0       5.428  -5.628  22.036  0.00  0.00    +0.229 C 
ENDBRANCH  20  22
ENDBRANCH  18  20
ENDBRANCH  17  18
BRANCH  17  23
ATOM     23  C   UNK A   0       5.163  -1.907  24.861  0.00  0.00    +0.035 C 
BRANCH  23  24
ATOM     24  C   UNK A   0       5.149  -1.178  26.232  0.00  0.00    +0.037 C 
BRANCH  24  25
ATOM     25  C   UNK A   0       5.638   0.238  26.210  0.00  0.00    -0.047 A 
ATOM     26  C   UNK A   0       6.614   0.657  27.126  0.00  0.00    +0.003 A 
ATOM     27  C   UNK A   0       7.027   1.982  27.116  0.00  0.00    +0.000 A 
ATOM     28  C   UNK A   0       6.455   2.877  26.206  0.00  0.00    +0.000 A 
ATOM     29  C   UNK A   0       5.426   2.479  25.349  0.00  0.00    +0.000 A 
ATOM     30  C   UNK A   0       5.005   1.157  25.380  0.00  0.00    +0.003 A 
ENDBRANCH  24  25
ENDBRANCH  23  24
ENDBRANCH  17  23
ENDBRANCH  15  17
ENDBRANCH  13  15
ENDBRANCH   1  13
BRANCH   3  31
ATOM     31  C   UNK A   2       9.785  -1.432  22.137  0.00  0.00    +0.326 C 
ATOM     32  O   UNK A   2      10.973  -1.700  22.282  0.00  0.00    -0.249 OA
BRANCH  31  33
ATOM     33  O   UNK A   2       9.326  -0.851  21.005  0.00  0.00    -0.479 OA
ATOM     34  H   UNK A   2       8.639  -0.179  21.182  0.00  0.00    +0.295 HD
ENDBRANCH  31  33
ENDBRANCH   3  31
BRANCH   9  35
ATOM     35  O   UNK A   2       7.485   4.260  22.024  0.00  0.00    -0.491 OA
ATOM     36  C   UNK A   2       6.289   4.816  22.574  0.00  0.00    +0.277 C 
ENDBRANCH   9  35
BRANCH   8  37
ATOM     37  O   UNK A   2       9.531   4.651  23.759  0.00  0.00    -0.491 OA
ATOM     38  C   UNK A   2      10.950   4.769  23.668  0.00  0.00    +0.277 C 
ENDBRANCH   8  37
TORSDOF 13
ENDMDL
MODEL 5
REMARK VINA RESULT:      -6.0      2.412      5.476
REMARK  Name = 
REMARK  17 active torsions:
REMARK  status: ('A' for Active; 'I' for Inactive)
REMARK    1  A    between atoms: C_1  and  C_2
REMARK    2  A    between atoms: C_2  and  O_3
REMARK    3  A    between atoms: O_3  and  C_4
REMARK    4  A    between atoms: C_4  and  C_6
REMARK    5  A    between atoms: C_6  and  C_8
REMARK    6  A    between atoms: C_6  and  N_16
REMARK    7  A    between atoms: C_8  and  C_9
REMARK    8  A    between atoms: C_9  and  C_10
REMARK    9  A    between atoms: N_16  and  CA_17
REMARK   10  A    between atoms: CA_17  and  CB_19
REMARK   11  A    between atoms: CA_17  and  C_20
REMARK   12  A    between atoms: C_26  and  O_27
REMARK   13  A    between atoms: O_27  and  C_28
REMARK   14  A    between atoms: C_29  and  O_30
REMARK   15  A    between atoms: O_30  and  C_31
REMARK   16  A    between atoms: C_35  and  C_37
REMARK   17  A    between atoms: C_37  and  O_38
REMARK                            x       y       z     vdW  Elec       q    Type
REMARK                         _______ _______ _______ _____ _____    ______ ____
ROOT
ATOM      1  C   ALA A   1       7.898  -3.020  22.919  0.00  0.00    +0.233 C 
ATOM      2  N   UNK A   2       7.740  -4.080  23.825  0.00  0.00    -0.282 N 
ATOM      3  C   UNK A   2       7.873  -4.049  25.278  0.00  0.00    +0.189 C 
ATOM      4  C   UNK A   2       6.525  -3.756  25.948  0.00  0.00    +0.069 C 
ATOM      5  C   UNK A   2       5.612  -4.881  25.591  0.00  0.00    -0.037 A 
ATOM      6  C   UNK A   2       5.824  -5.575  24.395  0.00  0.00    -0.023 A 
ATOM      7  C   UNK A   2       5.017  -6.666  24.131  0.00  0.00    +0.054 A 
ATOM      8  C   UNK A   2       3.964  -7.016  24.992  0.00  0.00    +0.162 A 
ATOM      9  C   UNK A   2       3.728  -6.275  26.164  0.00  0.00    +0.162 A 
ATOM     10  C   UNK A   2       4.571  -5.213  26.460  0.00  0.00    +0.053 A 
ATOM     11  C   UNK A   2       6.898  -5.214  23.395  0.00  0.00    +0.144 C 
ATOM     12  O   ALA A   1       7.516  -3.221  21.750  0.00  0.00    -0.274 OA
ENDROOT
BRANCH   1  13
ATOM     13  CA  ALA A   1       8.641  -1.623  23.133  0.00  0.00    +0.138 C 
ATOM     14  CB  ALA A   1       8.577  -0.620  21.988  0.00  0.00    +0.034 C 
BRANCH  13  15
ATOM     15  N   ALA A   1       9.882  -1.514  23.925  0.00  0.00    -0.294 NA
ATOM     16  H   ALA A   1      10.107  -2.409  24.364  0.00  0.00    +0.123 HD
BRANCH  15  17
ATOM     17  C   UNK A   0      10.105  -0.426  24.873  0.00  0.00    +0.164 C 
BRANCH  17  18
ATOM     18  C   UNK A   0       8.894  -0.160  25.803  0.00  0.00    +0.324 C 
ATOM     19  O   UNK A   0       8.537  -0.976  26.650  0.00  0.00    -0.249 OA
BRANCH  18  20
ATOM     20  O   UNK A   0       8.179   0.932  25.427  0.00  0.00    -0.464 OA
BRANCH  20  22
ATOM     21  C   UNK A   0       6.272   1.453  24.066  0.00  0.00    +0.048 C 
ATOM     22  C   UNK A   0       6.762   0.714  25.303  0.00  0.00    +0.229 C 
ENDBRANCH  20  22
ENDBRANCH  18  20
ENDBRANCH  17  18
BRANCH  17  23
ATOM     23  C   UNK A   0      10.813   0.910  24.506  0.00  0.00    +0.035 C 
BRANCH  23  24
ATOM     24  C   UNK A   0      10.454   1.775  23.268  0.00  0.00    +0.037 C 
BRANCH  24  25
ATOM     25  C   UNK A   0      10.442   3.255  23.502  0.00  0.00    -0.047 A 
ATOM     26  C   UNK A   0       9.227   3.922  23.713  0.00  0.00    +0.003 A 
ATOM     27  C   UNK A   0       9.231   5.298  23.890  0.00  0.00    +0.000 A 
ATOM     28  C   UNK A   0      10.442   5.997  23.840  0.00  0.00    +0.000 A 
ATOM     29  C   UNK A   0      11.642   5.345  23.550  0.00  0.00    +0.000 A 
ATOM     30  C   UNK A   0      11.625   3.971  23.354  0.00  0.00    +0.003 A 
ENDBRANCH  24  25
ENDBRANCH  23  24
ENDBRANCH  17  23
ENDBRANCH  15  17
ENDBRANCH  13  15
ENDBRANCH   1  13
BRANCH   3  31
ATOM     31  C   UNK A   2       8.571  -5.182  26.071  0.00  0.00    +0.326 C 
ATOM     32  O   UNK A   2       8.207  -5.560  27.179  0.00  0.00    -0.249 OA
BRANCH  31  33
ATOM     33  O   UNK A   2       9.737  -5.603  25.529  0.00  0.00    -0.479 OA
ATOM     34  H   UNK A   2      10.290  -4.863  25.211  0.00  0.00    +0.295 HD
ENDBRANCH  31  33
ENDBRANCH   3  31
BRANCH   9  35
ATOM     35  O   UNK A   2       2.672  -6.635  26.965  0.00  0.00    -0.491 OA
ATOM     36  C   UNK A   2       1.496  -5.832  26.853  0.00  0.00    +0.277 C 
ENDBRANCH   9  35
BRANCH   8  37
ATOM     37  O   UNK A   2       3.144  -8.087  24.725  0.00  0.00    -0.491 OA
ATOM     38  C   UNK A   2       2.165  -7.847  23.716  0.00  0.00    +0.277 C 
ENDBRANCH   8  37
TORSDOF 13
ENDMDL
MODEL 6
REMARK VINA RESULT:      -5.9      2.542      7.871
REMARK  Name = 
REMARK  17 active torsions:
REMARK  status: ('A' for Active; 'I' for Inactive)
REMARK    1  A    between atoms: C_1  and  C_2
REMARK    2  A    between atoms: C_2  and  O_3
REMARK    3  A    between atoms: O_3  and  C_4
REMARK    4  A    between atoms: C_4  and  C_6
REMARK    5  A    between atoms: C_6  and  C_8
REMARK    6  A    between atoms: C_6  and  N_16
REMARK    7  A    between atoms: C_8  and  C_9
REMARK    8  A    between atoms: C_9  and  C_10
REMARK    9  A    between atoms: N_16  and  CA_17
REMARK   10  A    between atoms: CA_17  and  CB_19
REMARK   11  A    between atoms: CA_17  and  C_20
REMARK   12  A    between atoms: C_26  and  O_27
REMARK   13  A    between atoms: O_27  and  C_28
REMARK   14  A    between atoms: C_29  and  O_30
REMARK   15  A    between atoms: O_30  and  C_31
REMARK   16  A    between atoms: C_35  and  C_37
REMARK   17  A    between atoms: C_37  and  O_38
REMARK                            x       y       z     vdW  Elec       q    Type
REMARK                         _______ _______ _______ _____ _____    ______ ____
ROOT
ATOM      1  C   ALA A   1       8.566  -1.952  25.701  0.00  0.00    +0.233 C 
ATOM      2  N   UNK A   2       8.997  -1.161  24.625  0.00  0.00    -0.282 N 
ATOM      3  C   UNK A   2       8.566  -1.227  23.232  0.00  0.00    +0.189 C 
ATOM      4  C   UNK A   2       7.383  -0.285  22.977  0.00  0.00    +0.069 C 
ATOM      5  C   UNK A   2       7.868   1.099  23.247  0.00  0.00    -0.037 A 
ATOM      6  C   UNK A   2       8.912   1.289  24.157  0.00  0.00    -0.023 A 
ATOM      7  C   UNK A   2       9.398   2.572  24.323  0.00  0.00    +0.054 A 
ATOM      8  C   UNK A   2       8.808   3.664  23.665  0.00  0.00    +0.162 A 
ATOM      9  C   UNK A   2       7.722   3.465  22.793  0.00  0.00    +0.162 A 
ATOM     10  C   UNK A   2       7.267   2.171  22.582  0.00  0.00    +0.053 A 
ATOM     11  C   UNK A   2       9.552   0.169  24.945  0.00  0.00    +0.144 C 
ATOM     12  O   ALA A   1       8.898  -1.573  26.842  0.00  0.00    -0.274 OA
ENDROOT
BRANCH   1  13
ATOM     13  CA  ALA A   1       7.826  -3.367  25.671  0.00  0.00    +0.138 C 
ATOM     14  CB  ALA A   1       8.310  -4.381  24.642  0.00  0.00    +0.034 C 
BRANCH  13  15
ATOM     15  N   ALA A   1       6.389  -3.501  25.980  0.00  0.00    -0.294 NA
ATOM     16  H   ALA A   1       6.055  -2.683  26.493  0.00  0.00    +0.123 HD
BRANCH  15  17
ATOM     17  C   UNK A   0       5.832  -4.717  26.567  0.00  0.00    +0.164 C 
BRANCH  17  18
ATOM     18  C   UNK A   0       6.609  -5.214  27.812  0.00  0.00    +0.324 C 
ATOM     19  O   UNK A   0       7.586  -5.952  27.714  0.00  0.00    -0.249 OA
BRANCH  18  20
ATOM     20  O   UNK A   0       5.965  -4.929  28.975  0.00  0.00    -0.464 OA
BRANCH  20  22
ATOM     21  C   UNK A   0       4.141  -6.115  29.986  0.00  0.00    +0.048 C 
ATOM     22  C   UNK A   0       5.650  -6.073  29.787  0.00  0.00    +0.229 C 
ENDBRANCH  20  22
ENDBRANCH  18  20
ENDBRANCH  17  18
BRANCH  17  23
ATOM     23  C   UNK A   0       5.318  -5.924  25.730  0.00  0.00    +0.035 C 
BRANCH  23  24
ATOM     24  C   UNK A   0       4.398  -5.793  24.486  0.00  0.00    +0.037 C 
BRANCH  24  25
ATOM     25  C   UNK A   0       5.064  -5.278  23.247  0.00  0.00    -0.047 A 
ATOM     26  C   UNK A   0       5.866  -6.132  22.475  0.00  0.00    +0.003 A 
ATOM     27  C   UNK A   0       6.506  -5.628  21.352  0.00  0.00    +0.000 A 
ATOM     28  C   UNK A   0       6.355  -4.278  21.019  0.00  0.00    +0.000 A 
ATOM     29  C   UNK A   0       5.623  -3.409  21.832  0.00  0.00    +0.000 A 
ATOM     30  C   UNK A   0       5.003  -3.918  22.964  0.00  0.00    +0.003 A 
ENDBRANCH  24  25
ENDBRANCH  23  24
ENDBRANCH  17  23
ENDBRANCH  15  17
ENDBRANCH  13  15
ENDBRANCH   1  13
BRANCH   3  31
ATOM     31  C   UNK A   2       9.558  -1.089  22.050  0.00  0.00    +0.326 C 
ATOM     32  O   UNK A   2       9.297  -0.494  21.010  0.00  0.00    -0.249 OA
BRANCH  31  33
ATOM     33  O   UNK A   2      10.678  -1.838  22.173  0.00  0.00    -0.479 OA
ATOM     34  H   UNK A   2      10.768  -2.497  21.457  0.00  0.00    +0.295 HD
ENDBRANCH  31  33
ENDBRANCH   3  31
BRANCH   9  35
ATOM     35  O   UNK A   2       7.158   4.562  22.189  0.00  0.00    -0.491 OA
ATOM     36  C   UNK A   2       5.945   5.044  22.770  0.00  0.00    +0.277 C 
ENDBRANCH   9  35
BRANCH   8  37
ATOM     37  O   UNK A   2       9.272   4.945  23.841  0.00  0.00    -0.491 OA
ATOM     38  C   UNK A   2       9.021   5.494  25.133  0.00  0.00    +0.277 C 
ENDBRANCH   8  37
TORSDOF 13
ENDMDL
MODEL 7
REMARK VINA RESULT:      -5.9      2.427      7.140
REMARK  Name = 
REMARK  17 active torsions:
REMARK  status: ('A' for Active; 'I' for Inactive)
REMARK    1  A    between atoms: C_1  and  C_2
REMARK    2  A    between atoms: C_2  and  O_3
REMARK    3  A    between atoms: O_3  and  C_4
REMARK    4  A    between atoms: C_4  and  C_6
REMARK    5  A    between atoms: C_6  and  C_8
REMARK    6  A    between atoms: C_6  and  N_16
REMARK    7  A    between atoms: C_8  and  C_9
REMARK    8  A    between atoms: C_9  and  C_10
REMARK    9  A    between atoms: N_16  and  CA_17
REMARK   10  A    between atoms: CA_17  and  CB_19
REMARK   11  A    between atoms: CA_17  and  C_20
REMARK   12  A    between atoms: C_26  and  O_27
REMARK   13  A    between atoms: O_27  and  C_28
REMARK   14  A    between atoms: C_29  and  O_30
REMARK   15  A    between atoms: O_30  and  C_31
REMARK   16  A    between atoms: C_35  and  C_37
REMARK   17  A    between atoms: C_37  and  O_38
REMARK                            x       y       z     vdW  Elec       q    Type
REMARK                         _______ _______ _______ _____ _____    ______ ____
ROOT
ATOM      1  C   ALA A   1       8.493  -2.301  25.882  0.00  0.00    +0.233 C 
ATOM      2  N   UNK A   2       8.985  -1.560  24.797  0.00  0.00    -0.282 N 
ATOM      3  C   UNK A   2       8.625  -1.682  23.388  0.00  0.00    +0.189 C 
ATOM      4  C   UNK A   2       7.464  -0.745  23.033  0.00  0.00    +0.069 C 
ATOM      5  C   UNK A   2       7.947   0.647  23.268  0.00  0.00    -0.037 A 
ATOM      6  C   UNK A   2       8.945   0.869  24.222  0.00  0.00    -0.023 A 
ATOM      7  C   UNK A   2       9.433   2.155  24.358  0.00  0.00    +0.054 A 
ATOM      8  C   UNK A   2       8.887   3.221  23.625  0.00  0.00    +0.162 A 
ATOM      9  C   UNK A   2       7.845   2.992  22.708  0.00  0.00    +0.162 A 
ATOM     10  C   UNK A   2       7.390   1.693  22.529  0.00  0.00    +0.053 A 
ATOM     11  C   UNK A   2       9.534  -0.221  25.088  0.00  0.00    +0.144 C 
ATOM     12  O   ALA A   1       8.770  -1.876  27.021  0.00  0.00    -0.274 OA
ENDROOT
BRANCH   1  13
ATOM     13  CA  ALA A   1       7.744  -3.711  25.875  0.00  0.00    +0.138 C 
ATOM     14  CB  ALA A   1       8.182  -4.724  24.824  0.00  0.00    +0.034 C 
BRANCH  13  15
ATOM     15  N   ALA A   1       6.319  -3.838  26.237  0.00  0.00    -0.294 NA
ATOM     16  H   ALA A   1       5.947  -4.735  25.920  0.00  0.00    +0.123 HD
BRANCH  15  17
ATOM     17  C   UNK A   0       5.353  -2.776  25.968  0.00  0.00    +0.164 C 
BRANCH  17  18
ATOM     18  C   UNK A   0       4.945  -1.977  27.231  0.00  0.00    +0.324 C 
ATOM     19  O   UNK A   0       4.707  -2.534  28.301  0.00  0.00    -0.249 OA
BRANCH  18  20
ATOM     20  O   UNK A   0       4.677  -0.673  26.958  0.00  0.00    -0.464 OA
BRANCH  20  22
ATOM     21  C   UNK A   0       5.218   1.269  25.659  0.00  0.00    +0.048 C 
ATOM     22  C   UNK A   0       5.779   0.068  26.407  0.00  0.00    +0.229 C 
ENDBRANCH  20  22
ENDBRANCH  18  20
ENDBRANCH  17  18
BRANCH  17  23
ATOM     23  C   UNK A   0       4.137  -2.936  25.010  0.00  0.00    +0.035 C 
BRANCH  23  24
ATOM     24  C   UNK A   0       3.783  -4.249  24.262  0.00  0.00    +0.037 C 
BRANCH  24  25
ATOM     25  C   UNK A   0       4.766  -4.675  23.214  0.00  0.00    -0.047 A 
ATOM     26  C   UNK A   0       5.192  -6.010  23.153  0.00  0.00    +0.003 A 
ATOM     27  C   UNK A   0       6.131  -6.378  22.201  0.00  0.00    +0.000 A 
ATOM     28  C   UNK A   0       6.647  -5.411  21.330  0.00  0.00    +0.000 A 
ATOM     29  C   UNK A   0       6.283  -4.068  21.442  0.00  0.00    +0.000 A 
ATOM     30  C   UNK A   0       5.358  -3.706  22.412  0.00  0.00    +0.003 A 
ENDBRANCH  24  25
ENDBRANCH  23  24
ENDBRANCH  17  23
ENDBRANCH  15  17
ENDBRANCH  13  15
ENDBRANCH   1  13
BRANCH   3  31
ATOM     31  C   UNK A   2       9.677  -1.601  22.254  0.00  0.00    +0.326 C 
ATOM     32  O   UNK A   2      10.870  -1.833  22.416  0.00  0.00    -0.249 OA
BRANCH  31  33
ATOM     33  O   UNK A   2       9.212  -1.068  21.101  0.00  0.00    -0.479 OA
ATOM     34  H   UNK A   2       9.119  -0.096  21.149  0.00  0.00    +0.295 HD
ENDBRANCH  31  33
ENDBRANCH   3  31
BRANCH   9  35
ATOM     35  O   UNK A   2       7.321   4.066  22.030  0.00  0.00    -0.491 OA
ATOM     36  C   UNK A   2       6.118   4.621  22.565  0.00  0.00    +0.277 C 
ENDBRANCH   9  35
BRANCH   8  37
ATOM     37  O   UNK A   2       9.352   4.506  23.771  0.00  0.00    -0.491 OA
ATOM     38  C   UNK A   2       8.985   5.134  24.997  0.00  0.00    +0.277 C 
ENDBRANCH   8  37
TORSDOF 13
ENDMDL
MODEL 8
REMARK VINA RESULT:      -5.9      2.864      8.626
REMARK  Name = 
REMARK  17 active torsions:
REMARK  status: ('A' for Active; 'I' for Inactive)
REMARK    1  A    between atoms: C_1  and  C_2
REMARK    2  A    between atoms: C_2  and  O_3
REMARK    3  A    between atoms: O_3  and  C_4
REMARK    4  A    between atoms: C_4  and  C_6
REMARK    5  A    between atoms: C_6  and  C_8
REMARK    6  A    between atoms: C_6  and  N_16
REMARK    7  A    between atoms: C_8  and  C_9
REMARK    8  A    between atoms: C_9  and  C_10
REMARK    9  A    between atoms: N_16  and  CA_17
REMARK   10  A    between atoms: CA_17  and  CB_19
REMARK   11  A    between atoms: CA_17  and  C_20
REMARK   12  A    between atoms: C_26  and  O_27
REMARK   13  A    between atoms: O_27  and  C_28
REMARK   14  A    between atoms: C_29  and  O_30
REMARK   15  A    between atoms: O_30  and  C_31
REMARK   16  A    between atoms: C_35  and  C_37
REMARK   17  A    between atoms: C_37  and  O_38
REMARK                            x       y       z     vdW  Elec       q    Type
REMARK                         _______ _______ _______ _____ _____    ______ ____
ROOT
ATOM      1  C   ALA A   1       9.062  -0.525  24.201  0.00  0.00    +0.233 C 
ATOM      2  N   UNK A   2       8.977   0.671  23.472  0.00  0.00    -0.282 N 
ATOM      3  C   UNK A   2       7.829   1.562  23.337  0.00  0.00    +0.189 C 
ATOM      4  C   UNK A   2       7.847   2.649  24.420  0.00  0.00    +0.069 C 
ATOM      5  C   UNK A   2       9.085   3.453  24.203  0.00  0.00    -0.037 A 
ATOM      6  C   UNK A   2      10.193   2.847  23.602  0.00  0.00    -0.023 A 
ATOM      7  C   UNK A   2      11.295   3.638  23.336  0.00  0.00    +0.054 A 
ATOM      8  C   UNK A   2      11.337   4.984  23.733  0.00  0.00    +0.162 A 
ATOM      9  C   UNK A   2      10.235   5.567  24.387  0.00  0.00    +0.162 A 
ATOM     10  C   UNK A   2       9.106   4.790  24.606  0.00  0.00    +0.053 A 
ATOM     11  C   UNK A   2      10.239   1.390  23.205  0.00  0.00    +0.144 C 
ATOM     12  O   ALA A   1      10.203  -1.003  24.360  0.00  0.00    -0.274 OA
ENDROOT
BRANCH   1  13
ATOM     13  CA  ALA A   1       7.882  -1.456  24.739  0.00  0.00    +0.138 C 
ATOM     14  CB  ALA A   1       6.455  -1.008  24.445  0.00  0.00    +0.034 C 
BRANCH  13  15
ATOM     15  N   ALA A   1       7.999  -2.210  26.003  0.00  0.00    -0.294 NA
ATOM     16  H   ALA A   1       8.701  -1.784  26.611  0.00  0.00    +0.123 HD
BRANCH  15  17
ATOM     17  C   UNK A   0       8.135  -3.663  26.029  0.00  0.00    +0.164 C 
BRANCH  17  18
ATOM     18  C   UNK A   0       8.679  -4.257  24.705  0.00  0.00    +0.324 C 
ATOM     19  O   UNK A   0       9.881  -4.432  24.519  0.00  0.00    -0.249 OA
BRANCH  18  20
ATOM     20  O   UNK A   0       7.725  -4.340  23.741  0.00  0.00    -0.464 OA
BRANCH  20  22
ATOM     21  C   UNK A   0       7.059  -5.484  21.740  0.00  0.00    +0.048 C 
ATOM     22  C   UNK A   0       7.555  -5.649  23.170  0.00  0.00    +0.229 C 
ENDBRANCH  20  22
ENDBRANCH  18  20
ENDBRANCH  17  18
BRANCH  17  23
ATOM     23  C   UNK A   0       7.084  -4.620  26.663  0.00  0.00    +0.035 C 
BRANCH  23  24
ATOM     24  C   UNK A   0       5.549  -4.400  26.587  0.00  0.00    +0.037 C 
BRANCH  24  25
ATOM     25  C   UNK A   0       4.865  -5.055  25.425  0.00  0.00    -0.047 A 
ATOM     26  C   UNK A   0       4.256  -4.269  24.436  0.00  0.00    +0.003 A 
ATOM     27  C   UNK A   0       3.594  -4.892  23.388  0.00  0.00    +0.000 A 
ATOM     28  C   UNK A   0       3.533  -6.289  23.344  0.00  0.00    +0.000 A 
ATOM     29  C   UNK A   0       4.068  -7.070  24.370  0.00  0.00    +0.000 A 
ATOM     30  C   UNK A   0       4.710  -6.437  25.425  0.00  0.00    +0.003 A 
ENDBRANCH  24  25
ENDBRANCH  23  24
ENDBRANCH  17  23
ENDBRANCH  15  17
ENDBRANCH  13  15
ENDBRANCH   1  13
BRANCH   3  31
ATOM     31  C   UNK A   2       7.449   2.227  21.991  0.00  0.00    +0.326 C 
ATOM     32  O   UNK A   2       6.512   3.007  21.859  0.00  0.00    -0.249 OA
BRANCH  31  33
ATOM     33  O   UNK A   2       8.115   1.736  20.921  0.00  0.00    -0.479 OA
ATOM     34  H   UNK A   2       8.235   2.403  20.217  0.00  0.00    +0.295 HD
ENDBRANCH  31  33
ENDBRANCH   3  31
BRANCH   9  35
ATOM     35  O   UNK A   2      10.326   6.878  24.782  0.00  0.00    -0.491 OA
ATOM     36  C   UNK A   2      10.390   7.108  26.191  0.00  0.00    +0.277 C 
ENDBRANCH   9  35
BRANCH   8  37
ATOM     37  O   UNK A   2      12.437   5.771  23.491  0.00  0.00    -0.491 OA
ATOM     38  C   UNK A   2      13.162   5.430  22.311  0.00  0.00    +0.277 C 
ENDBRANCH   8  37
TORSDOF 13
ENDMDL
MODEL 9
REMARK VINA RESULT:      -5.8      2.598      8.345
REMARK  Name = 
REMARK  17 active torsions:
REMARK  status: ('A' for Active; 'I' for Inactive)
REMARK    1  A    between atoms: C_1  and  C_2
REMARK    2  A    between atoms: C_2  and  O_3
REMARK    3  A    between atoms: O_3  and  C_4
REMARK    4  A    between atoms: C_4  and  C_6
REMARK    5  A    between atoms: C_6  and  C_8
REMARK    6  A    between atoms: C_6  and  N_16
REMARK    7  A    between atoms: C_8  and  C_9
REMARK    8  A    between atoms: C_9  and  C_10
REMARK    9  A    between atoms: N_16  and  CA_17
REMARK   10  A    between atoms: CA_17  and  CB_19
REMARK   11  A    between atoms: CA_17  and  C_20
REMARK   12  A    between atoms: C_26  and  O_27
REMARK   13  A    between atoms: O_27  and  C_28
REMARK   14  A    between atoms: C_29  and  O_30
REMARK   15  A    between atoms: O_30  and  C_31
REMARK   16  A    between atoms: C_35  and  C_37
REMARK   17  A    between atoms: C_37  and  O_38
REMARK                            x       y       z     vdW  Elec       q    Type
REMARK                         _______ _______ _______ _____ _____    ______ ____
ROOT
ATOM      1  C   ALA A   1       8.384  -0.574  25.560  0.00  0.00    +0.233 C 
ATOM      2  N   UNK A   2       8.812   0.168  24.449  0.00  0.00    -0.282 N 
ATOM      3  C   UNK A   2       8.123   0.360  23.176  0.00  0.00    +0.189 C 
ATOM      4  C   UNK A   2       7.236   1.610  23.213  0.00  0.00    +0.069 C 
ATOM      5  C   UNK A   2       8.142   2.775  23.428  0.00  0.00    -0.037 A 
ATOM      6  C   UNK A   2       9.350   2.582  24.105  0.00  0.00    -0.023 A 
ATOM      7  C   UNK A   2      10.208   3.659  24.215  0.00  0.00    +0.054 A 
ATOM      8  C   UNK A   2       9.844   4.930  23.739  0.00  0.00    +0.162 A 
ATOM      9  C   UNK A   2       8.602   5.123  23.108  0.00  0.00    +0.162 A 
ATOM     10  C   UNK A   2       7.761   4.030  22.948  0.00  0.00    +0.053 A 
ATOM     11  C   UNK A   2       9.777   1.258  24.696  0.00  0.00    +0.144 C 
ATOM     12  O   ALA A   1       9.023  -0.414  26.619  0.00  0.00    -0.274 OA
ENDROOT
BRANCH   1  13
ATOM     13  CA  ALA A   1       7.276  -1.722  25.631  0.00  0.00    +0.138 C 
ATOM     14  CB  ALA A   1       5.868  -1.356  25.178  0.00  0.00    +0.034 C 
BRANCH  13  15
ATOM     15  N   ALA A   1       7.291  -2.755  26.685  0.00  0.00    -0.294 NA
ATOM     16  H   ALA A   1       8.042  -2.574  27.354  0.00  0.00    +0.123 HD
BRANCH  15  17
ATOM     17  C   UNK A   0       7.236  -4.181  26.375  0.00  0.00    +0.164 C 
BRANCH  17  18
ATOM     18  C   UNK A   0       6.394  -5.001  27.384  0.00  0.00    +0.324 C 
ATOM     19  O   UNK A   0       6.074  -4.546  28.481  0.00  0.00    -0.249 OA
BRANCH  18  20
ATOM     20  O   UNK A   0       6.257  -6.301  27.013  0.00  0.00    -0.464 OA
BRANCH  20  22
ATOM     21  C   UNK A   0       4.502  -6.800  25.456  0.00  0.00    +0.048 C 
ATOM     22  C   UNK A   0       4.898  -6.765  26.925  0.00  0.00    +0.229 C 
ENDBRANCH  20  22
ENDBRANCH  18  20
ENDBRANCH  17  18
BRANCH  17  23
ATOM     23  C   UNK A   0       8.461  -5.008  25.890  0.00  0.00    +0.035 C 
BRANCH  23  24
ATOM     24  C   UNK A   0       8.793  -5.282  24.398  0.00  0.00    +0.037 C 
BRANCH  24  25
ATOM     25  C   UNK A   0       7.786  -4.772  23.414  0.00  0.00    -0.047 A 
ATOM     26  C   UNK A   0       6.812  -5.636  22.894  0.00  0.00    +0.003 A 
ATOM     27  C   UNK A   0       5.911  -5.155  21.955  0.00  0.00    +0.000 A 
ATOM     28  C   UNK A   0       6.000  -3.825  21.531  0.00  0.00    +0.000 A 
ATOM     29  C   UNK A   0       7.019  -2.986  21.987  0.00  0.00    +0.000 A 
ATOM     30  C   UNK A   0       7.928  -3.482  22.912  0.00  0.00    +0.003 A 
ENDBRANCH  24  25
ENDBRANCH  23  24
ENDBRANCH  17  23
ENDBRANCH  15  17
ENDBRANCH  13  15
ENDBRANCH   1  13
BRANCH   3  31
ATOM     31  C   UNK A   2       8.868   0.335  21.819  0.00  0.00    +0.326 C 
ATOM     32  O   UNK A   2       9.865  -0.346  21.604  0.00  0.00    -0.249 OA
BRANCH  31  33
ATOM     33  O   UNK A   2       8.447   1.269  20.936  0.00  0.00    -0.479 OA
ATOM     34  H   UNK A   2       9.114   1.461  20.248  0.00  0.00    +0.295 HD
ENDBRANCH  31  33
ENDBRANCH   3  31
BRANCH   9  35
ATOM     35  O   UNK A   2       8.274   6.386  22.680  0.00  0.00    -0.491 OA
ATOM     36  C   UNK A   2       7.109   6.489  21.860  0.00  0.00    +0.277 C 
ENDBRANCH   9  35
BRANCH   8  37
ATOM     37  O   UNK A   2      10.684   6.011  23.864  0.00  0.00    -0.491 OA
ATOM     38  C   UNK A   2      12.069   5.705  23.726  0.00  0.00    +0.277 C 
ENDBRANCH   8  37
TORSDOF 13
ENDMDL
