MODEL 1
REMARK VINA RESULT:      -6.9      0.000      0.000
REMARK  Name = 
REMARK  11 active torsions:
REMARK  status: ('A' for Active; 'I' for Inactive)
REMARK    1  A    between atoms: C_1  and  O_2
REMARK    2  A    between atoms: O_2  and  C_3
REMARK    3  A    between atoms: C_4  and  C_32
REMARK    4  A    between atoms: C_6  and  N_24
REMARK    5  A    between atoms: C_8  and  C_9
REMARK    6  A    between atoms: C_14  and  N_15
REMARK    7  A    between atoms: N_15  and  S_16
REMARK    8  A    between atoms: S_16  and  C_17
REMARK    9  A    between atoms: C_32  and  C_33
REMARK   10  A    between atoms: C_32  and  C_34
REMARK   11  A    between atoms: C_32  and  C_35
REMARK                            x       y       z     vdW  Elec       q    Type
REMARK                         _______ _______ _______ _____ _____    ______ ____
ROOT
ATOM      1  C   UNL     1       6.874  -3.224  23.563  0.00  0.00    +0.132 A 
ATOM      2  C   UNL     1       7.097  -2.563  24.800  0.00  0.00    +0.026 A 
ATOM      3  C   UNL     1       6.679  -3.220  25.983  0.00  0.00    +0.038 A 
ATOM      4  C   UNL     1       6.043  -4.470  25.994  0.00  0.00    +0.052 A 
ATOM      5  C   UNL     1       5.912  -5.105  24.751  0.00  0.00    +0.034 A 
ATOM      6  C   UNL     1       6.367  -4.546  23.522  0.00  0.00    +0.002 A 
ENDROOT
BRANCH   2   7
ATOM      7  C   UNL     1       7.730  -1.216  24.908  0.00  0.00    -0.014 A 
ATOM      8  C   UNL     1       9.019  -1.037  25.434  0.00  0.00    +0.009 A 
ATOM      9  C   UNL     1       9.723   0.157  25.238  0.00  0.00    +0.009 A 
ATOM     10  C   UNL     1       9.101   1.260  24.644  0.00  0.00    -0.016 A 
ATOM     11  C   UNL     1       7.736   1.168  24.309  0.00  0.00    -0.017 A 
ATOM     12  C   UNL     1       7.055   2.309  23.859  0.00  0.00    +0.010 A 
ATOM     13  C   UNL     1       7.735   3.512  23.674  0.00  0.00    +0.025 A 
ATOM     14  C   UNL     1       9.109   3.562  23.880  0.00  0.00    +0.048 A 
ATOM     15  C   UNL     1       9.793   2.454  24.378  0.00  0.00    +0.033 A 
ATOM     16  C   UNL     1       7.086  -0.072  24.402  0.00  0.00    +0.017 A 
BRANCH  14  17
ATOM     17  N   UNL     1       9.805   4.776  23.594  0.00  0.00    -0.221 N 
ATOM     18  H   UNL     1      10.780   4.655  23.309  0.00  0.00    +0.173 HD
BRANCH  17  19
ATOM     19  S   UNL     1       9.707   6.020  24.729  0.00  0.00    +0.040 S 
ATOM     20  O   UNL     1      11.001   6.672  24.683  0.00  0.00    -0.155 OA
ATOM     21  O   UNL     1       9.163   5.523  25.969  0.00  0.00    -0.155 OA
ATOM     22  C   UNL     1       8.528   7.107  23.960  0.00  0.00    +0.218 C 
ENDBRANCH  17  19
ENDBRANCH  14  17
ENDBRANCH   2   7
BRANCH   4  23
ATOM     23  N   UNL     1       5.581  -5.060  27.248  0.00  0.00    -0.269 N 
ATOM     24  C   UNL     1       4.232  -4.918  27.657  0.00  0.00    +0.334 A 
ATOM     25  O   UNL     1       3.315  -4.385  27.032  0.00  0.00    -0.246 OA
ATOM     26  N   UNL     1       3.907  -5.495  28.865  0.00  0.00    -0.275 N 
ATOM     27  H   UNL     1       2.930  -5.445  29.110  0.00  0.00    +0.173 HD
ATOM     28  C   UNL     1       4.662  -6.371  29.573  0.00  0.00    +0.254 A 
ATOM     29  O   UNL     1       4.229  -7.062  30.485  0.00  0.00    -0.268 OA
ATOM     30  C   UNL     1       6.058  -6.439  29.158  0.00  0.00    +0.088 A 
ATOM     31  C   UNL     1       6.448  -5.793  28.061  0.00  0.00    +0.101 A 
ENDBRANCH   4  23
BRANCH   6  32
ATOM     32  C   UNL     1       6.336  -5.467  22.269  0.00  0.00    -0.009 C 
ATOM     33  C   UNL     1       5.306  -6.608  22.439  0.00  0.00    +0.015 C 
ATOM     34  C   UNL     1       7.741  -6.105  22.093  0.00  0.00    +0.015 C 
ATOM     35  C   UNL     1       6.010  -4.784  20.924  0.00  0.00    +0.015 C 
ENDBRANCH   6  32
BRANCH   1  37
ATOM     36  C   UNL     1       8.648  -2.488  22.187  0.00  0.00    +0.277 C 
ATOM     37  O   UNL     1       7.237  -2.622  22.380  0.00  0.00    -0.494 OA
ENDBRANCH   1  37
TORSDOF 6
ENDMDL
MODEL 2
REMARK VINA RESULT:      -6.6      4.284      9.234
REMARK  Name = 
REMARK  11 active torsions:
REMARK  status: ('A' for Active; 'I' for Inactive)
REMARK    1  A    between atoms: C_1  and  O_2
REMARK    2  A    between atoms: O_2  and  C_3
REMARK    3  A    between atoms: C_4  and  C_32
REMARK    4  A    between atoms: C_6  and  N_24
REMARK    5  A    between atoms: C_8  and  C_9
REMARK    6  A    between atoms: C_14  and  N_15
REMARK    7  A    between atoms: N_15  and  S_16
REMARK    8  A    between atoms: S_16  and  C_17
REMARK    9  A    between atoms: C_32  and  C_33
REMARK   10  A    between atoms: C_32  and  C_34
REMARK   11  A    between atoms: C_32  and  C_35
REMARK                            x       y       z     vdW  Elec       q    Type
REMARK                         _______ _______ _______ _____ _____    ______ ____
ROOT
ATOM      1  C   UNL     1       8.420  -0.434  24.410  0.00  0.00    +0.132 A 
ATOM      2  C   UNL     1       7.167  -0.931  24.857  0.00  0.00    +0.026 A 
ATOM      3  C   UNL     1       6.237   0.001  25.382  0.00  0.00    +0.038 A 
ATOM      4  C   UNL     1       6.499   1.374  25.503  0.00  0.00    +0.052 A 
ATOM      5  C   UNL     1       7.724   1.816  24.984  0.00  0.00    +0.034 A 
ATOM      6  C   UNL     1       8.685   0.957  24.376  0.00  0.00    +0.002 A 
ENDROOT
BRANCH   2   7
ATOM      7  C   UNL     1       6.792  -2.374  24.811  0.00  0.00    -0.014 A 
ATOM      8  C   UNL     1       7.248  -3.295  25.768  0.00  0.00    +0.009 A 
ATOM      9  C   UNL     1       6.647  -4.551  25.910  0.00  0.00    +0.009 A 
ATOM     10  C   UNL     1       5.677  -4.982  24.999  0.00  0.00    -0.016 A 
ATOM     11  C   UNL     1       5.365  -4.157  23.901  0.00  0.00    -0.017 A 
ATOM     12  C   UNL     1       4.513  -4.636  22.896  0.00  0.00    +0.010 A 
ATOM     13  C   UNL     1       3.919  -5.892  23.010  0.00  0.00    +0.025 A 
ATOM     14  C   UNL     1       4.126  -6.647  24.159  0.00  0.00    +0.048 A 
ATOM     15  C   UNL     1       5.011  -6.211  25.145  0.00  0.00    +0.033 A 
ATOM     16  C   UNL     1       5.887  -2.856  23.847  0.00  0.00    +0.017 A 
BRANCH  14  17
ATOM     17  N   UNL     1       3.434  -7.888  24.302  0.00  0.00    -0.221 N 
ATOM     18  H   UNL     1       3.765  -8.638  23.690  0.00  0.00    +0.173 HD
BRANCH  17  19
ATOM     19  S   UNL     1       1.748  -7.851  24.275  0.00  0.00    +0.040 S 
ATOM     20  O   UNL     1       1.390  -8.102  22.894  0.00  0.00    -0.155 OA
ATOM     21  O   UNL     1       1.263  -6.686  24.975  0.00  0.00    -0.155 OA
ATOM     22  C   UNL     1       1.348  -9.311  25.209  0.00  0.00    +0.218 C 
ENDBRANCH  17  19
ENDBRANCH  14  17
ENDBRANCH   2   7
BRANCH   4  23
ATOM     23  N   UNL     1       5.518   2.268  26.113  0.00  0.00    -0.269 N 
ATOM     24  C   UNL     1       4.376   2.688  25.387  0.00  0.00    +0.334 A 
ATOM     25  O   UNL     1       4.037   2.331  24.259  0.00  0.00    -0.246 OA
ATOM     26  N   UNL     1       3.526   3.546  26.048  0.00  0.00    -0.275 N 
ATOM     27  H   UNL     1       2.684   3.781  25.545  0.00  0.00    +0.173 HD
ATOM     28  C   UNL     1       3.537   3.835  27.373  0.00  0.00    +0.254 A 
ATOM     29  O   UNL     1       2.609   4.376  27.960  0.00  0.00    -0.268 OA
ATOM     30  C   UNL     1       4.756   3.441  28.068  0.00  0.00    +0.088 A 
ATOM     31  C   UNL     1       5.669   2.712  27.428  0.00  0.00    +0.101 A 
ENDBRANCH   4  23
BRANCH   6  32
ATOM     32  C   UNL     1       9.891   1.634  23.666  0.00  0.00    -0.009 C 
ATOM     33  C   UNL     1      11.235   1.098  24.213  0.00  0.00    +0.015 C 
ATOM     34  C   UNL     1       9.830   3.160  23.940  0.00  0.00    +0.015 C 
ATOM     35  C   UNL     1       9.956   1.481  22.131  0.00  0.00    +0.015 C 
ENDBRANCH   6  32
BRANCH   1  37
ATOM     36  C   UNL     1       9.120  -1.757  22.583  0.00  0.00    +0.277 C 
ATOM     37  O   UNL     1       9.370  -1.296  23.914  0.00  0.00    -0.494 OA
ENDBRANCH   1  37
TORSDOF 6
ENDMDL
MODEL 3
REMARK VINA RESULT:      -6.6      4.348      9.101
REMARK  Name = 
REMARK  11 active torsions:
REMARK  status: ('A' for Active; 'I' for Inactive)
REMARK    1  A    between atoms: C_1  and  O_2
REMARK    2  A    between atoms: O_2  and  C_3
REMARK    3  A    between atoms: C_4  and  C_32
REMARK    4  A    between atoms: C_6  and  N_24
REMARK    5  A    between atoms: C_8  and  C_9
REMARK    6  A    between atoms: C_14  and  N_15
REMARK    7  A    between atoms: N_15  and  S_16
REMARK    8  A    between atoms: S_16  and  C_17
REMARK    9  A    between atoms: C_32  and  C_33
REMARK   10  A    between atoms: C_32  and  C_34
REMARK   11  A    between atoms: C_32  and  C_35
REMARK                            x       y       z     vdW  Elec       q    Type
REMARK                         _______ _______ _______ _____ _____    ______ ____
ROOT
ATOM      1  C   UNL     1       8.265  -0.585  24.246  0.00  0.00    +0.132 A 
ATOM      2  C   UNL     1       7.259  -1.178  25.054  0.00  0.00    +0.026 A 
ATOM      3  C   UNL     1       6.664  -0.376  26.060  0.00  0.00    +0.038 A 
ATOM      4  C   UNL     1       7.032   0.955  26.310  0.00  0.00    +0.052 A 
ATOM      5  C   UNL     1       7.980   1.506  25.437  0.00  0.00    +0.034 A 
ATOM      6  C   UNL     1       8.575   0.792  24.357  0.00  0.00    +0.002 A 
ENDROOT
BRANCH   2   7
ATOM      7  C   UNL     1       6.814  -2.593  24.905  0.00  0.00    -0.014 A 
ATOM      8  C   UNL     1       7.320  -3.625  25.711  0.00  0.00    +0.009 A 
ATOM      9  C   UNL     1       6.678  -4.866  25.790  0.00  0.00    +0.009 A 
ATOM     10  C   UNL     1       5.600  -5.164  24.949  0.00  0.00    -0.016 A 
ATOM     11  C   UNL     1       5.217  -4.218  23.979  0.00  0.00    -0.017 A 
ATOM     12  C   UNL     1       4.245  -4.557  23.027  0.00  0.00    +0.010 A 
ATOM     13  C   UNL     1       3.606  -5.795  23.078  0.00  0.00    +0.025 A 
ATOM     14  C   UNL     1       3.894  -6.674  24.116  0.00  0.00    +0.048 A 
ATOM     15  C   UNL     1       4.895  -6.376  25.041  0.00  0.00    +0.033 A 
ATOM     16  C   UNL     1       5.793  -2.938  24.000  0.00  0.00    +0.017 A 
BRANCH  14  17
ATOM     17  N   UNL     1       3.162  -7.896  24.208  0.00  0.00    -0.221 N 
ATOM     18  H   UNL     1       3.105  -8.429  23.337  0.00  0.00    +0.173 HD
BRANCH  17  19
ATOM     19  S   UNL     1       1.637  -7.843  24.929  0.00  0.00    +0.040 S 
ATOM     20  O   UNL     1       0.734  -7.450  23.865  0.00  0.00    -0.155 OA
ATOM     21  O   UNL     1       1.697  -7.110  26.170  0.00  0.00    -0.155 OA
ATOM     22  C   UNL     1       1.349  -9.564  25.272  0.00  0.00    +0.218 C 
ENDBRANCH  17  19
ENDBRANCH  14  17
ENDBRANCH   2   7
BRANCH   4  23
ATOM     23  N   UNL     1       6.421   1.703  27.405  0.00  0.00    -0.269 N 
ATOM     24  C   UNL     1       6.867   1.521  28.738  0.00  0.00    +0.334 A 
ATOM     25  O   UNL     1       7.805   0.821  29.122  0.00  0.00    -0.246 OA
ATOM     26  N   UNL     1       6.210   2.260  29.698  0.00  0.00    -0.275 N 
ATOM     27  H   UNL     1       6.584   2.172  30.630  0.00  0.00    +0.173 HD
ATOM     28  C   UNL     1       5.365   3.297  29.482  0.00  0.00    +0.254 A 
ATOM     29  O   UNL     1       5.025   4.091  30.349  0.00  0.00    -0.268 OA
ATOM     30  C   UNL     1       4.882   3.409  28.111  0.00  0.00    +0.088 A 
ATOM     31  C   UNL     1       5.401   2.626  27.167  0.00  0.00    +0.101 A 
ENDBRANCH   4  23
BRANCH   6  32
ATOM     32  C   UNL     1       9.446   1.609  23.360  0.00  0.00    -0.009 C 
ATOM     33  C   UNL     1      10.939   1.574  23.763  0.00  0.00    +0.015 C 
ATOM     34  C   UNL     1       8.970   3.087  23.389  0.00  0.00    +0.015 C 
ATOM     35  C   UNL     1       9.385   1.174  21.881  0.00  0.00    +0.015 C 
ENDBRANCH   6  32
BRANCH   1  37
ATOM     36  C   UNL     1      10.048  -2.043  23.718  0.00  0.00    +0.277 C 
ATOM     37  O   UNL     1       8.894  -1.324  23.270  0.00  0.00    -0.494 OA
ENDBRANCH   1  37
TORSDOF 6
ENDMDL
MODEL 4
REMARK VINA RESULT:      -6.6      4.107      9.569
REMARK  Name = 
REMARK  11 active torsions:
REMARK  status: ('A' for Active; 'I' for Inactive)
REMARK    1  A    between atoms: C_1  and  O_2
REMARK    2  A    between atoms: O_2  and  C_3
REMARK    3  A    between atoms: C_4  and  C_32
REMARK    4  A    between atoms: C_6  and  N_24
REMARK    5  A    between atoms: C_8  and  C_9
REMARK    6  A    between atoms: C_14  and  N_15
REMARK    7  A    between atoms: N_15  and  S_16
REMARK    8  A    between atoms: S_16  and  C_17
REMARK    9  A    between atoms: C_32  and  C_33
REMARK   10  A    between atoms: C_32  and  C_34
REMARK   11  A    between atoms: C_32  and  C_35
REMARK                            x       y       z     vdW  Elec       q    Type
REMARK                         _______ _______ _______ _____ _____    ______ ____
ROOT
ATOM      1  C   UNL     1       8.356  -0.211  24.562  0.00  0.00    +0.132 A 
ATOM      2  C   UNL     1       7.026  -0.682  24.719  0.00  0.00    +0.026 A 
ATOM      3  C   UNL     1       5.970   0.236  24.498  0.00  0.00    +0.038 A 
ATOM      4  C   UNL     1       6.171   1.582  24.157  0.00  0.00    +0.052 A 
ATOM      5  C   UNL     1       7.502   1.973  23.950  0.00  0.00    +0.034 A 
ATOM      6  C   UNL     1       8.617   1.095  24.082  0.00  0.00    +0.002 A 
ENDROOT
BRANCH   2   7
ATOM      7  C   UNL     1       6.692  -2.081  25.115  0.00  0.00    -0.014 A 
ATOM      8  C   UNL     1       6.649  -2.488  26.458  0.00  0.00    +0.009 A 
ATOM      9  C   UNL     1       6.031  -3.687  26.833  0.00  0.00    +0.009 A 
ATOM     10  C   UNL     1       5.574  -4.586  25.864  0.00  0.00    -0.016 A 
ATOM     11  C   UNL     1       5.808  -4.294  24.506  0.00  0.00    -0.017 A 
ATOM     12  C   UNL     1       5.500  -5.251  23.529  0.00  0.00    +0.010 A 
ATOM     13  C   UNL     1       4.900  -6.458  23.885  0.00  0.00    +0.025 A 
ATOM     14  C   UNL     1       4.551  -6.686  25.211  0.00  0.00    +0.048 A 
ATOM     15  C   UNL     1       4.897  -5.769  26.204  0.00  0.00    +0.033 A 
ATOM     16  C   UNL     1       6.317  -3.035  24.150  0.00  0.00    +0.017 A 
BRANCH  14  17
ATOM     17  N   UNL     1       3.851  -7.886  25.544  0.00  0.00    -0.221 N 
ATOM     18  H   UNL     1       4.298  -8.747  25.219  0.00  0.00    +0.173 HD
BRANCH  17  19
ATOM     19  S   UNL     1       2.201  -7.950  25.200  0.00  0.00    +0.040 S 
ATOM     20  O   UNL     1       1.942  -9.335  24.860  0.00  0.00    -0.155 OA
ATOM     21  O   UNL     1       1.836  -6.878  24.305  0.00  0.00    -0.155 OA
ATOM     22  C   UNL     1       1.494  -7.647  26.803  0.00  0.00    +0.218 C 
ENDBRANCH  17  19
ENDBRANCH  14  17
ENDBRANCH   2   7
BRANCH   4  23
ATOM     23  N   UNL     1       5.037   2.490  24.006  0.00  0.00    -0.269 N 
ATOM     24  C   UNL     1       4.294   2.908  25.138  0.00  0.00    +0.334 A 
ATOM     25  O   UNL     1       4.524   2.647  26.319  0.00  0.00    -0.246 OA
ATOM     26  N   UNL     1       3.232   3.747  24.883  0.00  0.00    -0.275 N 
ATOM     27  H   UNL     1       2.755   4.090  25.703  0.00  0.00    +0.173 HD
ATOM     28  C   UNL     1       2.974   4.395  23.720  0.00  0.00    +0.254 A 
ATOM     29  O   UNL     1       2.192   5.331  23.621  0.00  0.00    -0.268 OA
ATOM     30  C   UNL     1       3.714   3.891  22.570  0.00  0.00    +0.088 A 
ATOM     31  C   UNL     1       4.671   2.983  22.752  0.00  0.00    +0.101 A 
ENDBRANCH   4  23
BRANCH   6  32
ATOM     32  C   UNL     1      10.000   1.630  23.613  0.00  0.00    -0.009 C 
ATOM     33  C   UNL     1      10.073   3.171  23.734  0.00  0.00    +0.015 C 
ATOM     34  C   UNL     1      10.193   1.251  22.120  0.00  0.00    +0.015 C 
ATOM     35  C   UNL     1      11.235   1.077  24.353  0.00  0.00    +0.015 C 
ENDBRANCH   6  32
BRANCH   1  37
ATOM     36  C   UNL     1       9.687  -1.976  23.728  0.00  0.00    +0.277 C 
ATOM     37  O   UNL     1       9.421  -1.052  24.788  0.00  0.00    -0.494 OA
ENDBRANCH   1  37
TORSDOF 6
ENDMDL
MODEL 5
REMARK VINA RESULT:      -6.6      3.494     10.177
REMARK  Name = 
REMARK  11 active torsions:
REMARK  status: ('A' for Active; 'I' for Inactive)
REMARK    1  A    between atoms: C_1  and  O_2
REMARK    2  A    between atoms: O_2  and  C_3
REMARK    3  A    between atoms: C_4  and  C_32
REMARK    4  A    between atoms: C_6  and  N_24
REMARK    5  A    between atoms: C_8  and  C_9
REMARK    6  A    between atoms: C_14  and  N_15
REMARK    7  A    between atoms: N_15  and  S_16
REMARK    8  A    between atoms: S_16  and  C_17
REMARK    9  A    between atoms: C_32  and  C_33
REMARK   10  A    between atoms: C_32  and  C_34
REMARK   11  A    between atoms: C_32  and  C_35
REMARK                            x       y       z     vdW  Elec       q    Type
REMARK                         _______ _______ _______ _____ _____    ______ ____
ROOT
ATOM      1  C   UNL     1       5.831   2.109  24.778  0.00  0.00    +0.132 A 
ATOM      2  C   UNL     1       7.005   1.330  24.596  0.00  0.00    +0.026 A 
ATOM      3  C   UNL     1       8.224   2.017  24.375  0.00  0.00    +0.038 A 
ATOM      4  C   UNL     1       8.326   3.415  24.305  0.00  0.00    +0.052 A 
ATOM      5  C   UNL     1       7.148   4.132  24.559  0.00  0.00    +0.034 A 
ATOM      6  C   UNL     1       5.896   3.521  24.859  0.00  0.00    +0.002 A 
ENDROOT
BRANCH   2   7
ATOM      7  C   UNL     1       7.012  -0.161  24.614  0.00  0.00    -0.014 A 
ATOM      8  C   UNL     1       7.540  -0.894  25.688  0.00  0.00    +0.009 A 
ATOM      9  C   UNL     1       7.257  -2.255  25.847  0.00  0.00    +0.009 A 
ATOM     10  C   UNL     1       6.565  -2.959  24.855  0.00  0.00    -0.016 A 
ATOM     11  C   UNL     1       6.219  -2.287  23.666  0.00  0.00    -0.017 A 
ATOM     12  C   UNL     1       5.667  -3.009  22.599  0.00  0.00    +0.010 A 
ATOM     13  C   UNL     1       5.393  -4.370  22.731  0.00  0.00    +0.025 A 
ATOM     14  C   UNL     1       5.615  -4.999  23.951  0.00  0.00    +0.048 A 
ATOM     15  C   UNL     1       6.212  -4.310  25.007  0.00  0.00    +0.033 A 
ATOM     16  C   UNL     1       6.404  -0.898  23.581  0.00  0.00    +0.017 A 
BRANCH  14  17
ATOM     17  N   UNL     1       5.240  -6.369  24.099  0.00  0.00    -0.221 N 
ATOM     18  H   UNL     1       5.236  -6.909  23.230  0.00  0.00    +0.173 HD
BRANCH  17  19
ATOM     19  S   UNL     1       3.834  -6.706  24.969  0.00  0.00    +0.040 S 
ATOM     20  O   UNL     1       3.414  -8.015  24.510  0.00  0.00    -0.155 OA
ATOM     21  O   UNL     1       2.939  -5.575  24.928  0.00  0.00    -0.155 OA
ATOM     22  C   UNL     1       4.475  -6.893  26.617  0.00  0.00    +0.218 C 
ENDBRANCH  17  19
ENDBRANCH  14  17
ENDBRANCH   2   7
BRANCH   4  23
ATOM     23  N   UNL     1       9.606   4.054  24.010  0.00  0.00    -0.269 N 
ATOM     24  C   UNL     1      10.613   3.356  23.300  0.00  0.00    +0.334 A 
ATOM     25  O   UNL     1      10.534   2.231  22.806  0.00  0.00    -0.246 OA
ATOM     26  N   UNL     1      11.789   4.044  23.093  0.00  0.00    -0.275 N 
ATOM     27  H   UNL     1      12.470   3.560  22.527  0.00  0.00    +0.173 HD
ATOM     28  C   UNL     1      11.994   5.371  23.281  0.00  0.00    +0.254 A 
ATOM     29  O   UNL     1      12.953   5.982  22.830  0.00  0.00    -0.268 OA
ATOM     30  C   UNL     1      10.965   6.036  24.070  0.00  0.00    +0.088 A 
ATOM     31  C   UNL     1       9.860   5.371  24.401  0.00  0.00    +0.101 A 
ENDBRANCH   4  23
BRANCH   6  32
ATOM     32  C   UNL     1       4.744   4.457  25.322  0.00  0.00    -0.009 C 
ATOM     33  C   UNL     1       3.447   4.183  24.524  0.00  0.00    +0.015 C 
ATOM     34  C   UNL     1       5.171   5.927  25.064  0.00  0.00    +0.015 C 
ATOM     35  C   UNL     1       4.359   4.384  26.815  0.00  0.00    +0.015 C 
ENDBRANCH   6  32
BRANCH   1  37
ATOM     36  C   UNL     1       4.411   0.979  26.291  0.00  0.00    +0.277 C 
ATOM     37  O   UNL     1       4.616   1.495  24.971  0.00  0.00    -0.494 OA
ENDBRANCH   1  37
TORSDOF 6
ENDMDL
MODEL 6
REMARK VINA RESULT:      -6.4      4.234      9.084
REMARK  Name = 
REMARK  11 active torsions:
REMARK  status: ('A' for Active; 'I' for Inactive)
REMARK    1  A    between atoms: C_1  and  O_2
REMARK    2  A    between atoms: O_2  and  C_3
REMARK    3  A    between atoms: C_4  and  C_32
REMARK    4  A    between atoms: C_6  and  N_24
REMARK    5  A    between atoms: C_8  and  C_9
REMARK    6  A    between atoms: C_14  and  N_15
REMARK    7  A    between atoms: N_15  and  S_16
REMARK    8  A    between atoms: S_16  and  C_17
REMARK    9  A    between atoms: C_32  and  C_33
REMARK   10  A    between atoms: C_32  and  C_34
REMARK   11  A    between atoms: C_32  and  C_35
REMARK                            x       y       z     vdW  Elec       q    Type
REMARK                         _______ _______ _______ _____ _____    ______ ____
ROOT
ATOM      1  C   UNL     1       8.253   0.894  24.661  0.00  0.00    +0.132 A 
ATOM      2  C   UNL     1       7.318   0.134  25.413  0.00  0.00    +0.026 A 
ATOM      3  C   UNL     1       6.542   0.817  26.382  0.00  0.00    +0.038 A 
ATOM      4  C   UNL     1       6.664   2.189  26.650  0.00  0.00    +0.052 A 
ATOM      5  C   UNL     1       7.553   2.899  25.830  0.00  0.00    +0.034 A 
ATOM      6  C   UNL     1       8.319   2.303  24.787  0.00  0.00    +0.002 A 
ENDROOT
BRANCH   2   7
ATOM      7  C   UNL     1       7.127  -1.335  25.242  0.00  0.00    -0.014 A 
ATOM      8  C   UNL     1       7.523  -2.259  26.222  0.00  0.00    +0.009 A 
ATOM      9  C   UNL     1       7.058  -3.579  26.205  0.00  0.00    +0.009 A 
ATOM     10  C   UNL     1       6.308  -4.055  25.123  0.00  0.00    -0.016 A 
ATOM     11  C   UNL     1       6.087  -3.201  24.025  0.00  0.00    -0.017 A 
ATOM     12  C   UNL     1       5.475  -3.705  22.868  0.00  0.00    +0.010 A 
ATOM     13  C   UNL     1       5.021  -5.023  22.825  0.00  0.00    +0.025 A 
ATOM     14  C   UNL     1       5.122  -5.821  23.958  0.00  0.00    +0.048 A 
ATOM     15  C   UNL     1       5.775  -5.355  25.099  0.00  0.00    +0.033 A 
ATOM     16  C   UNL     1       6.456  -1.850  24.117  0.00  0.00    +0.017 A 
BRANCH  14  17
ATOM     17  N   UNL     1       4.566  -7.136  23.928  0.00  0.00    -0.221 N 
ATOM     18  H   UNL     1       4.702  -7.640  23.047  0.00  0.00    +0.173 HD
BRANCH  17  19
ATOM     19  S   UNL     1       2.966  -7.321  24.433  0.00  0.00    +0.040 S 
ATOM     20  O   UNL     1       2.848  -6.488  25.613  0.00  0.00    -0.155 OA
ATOM     21  O   UNL     1       2.611  -8.719  24.463  0.00  0.00    -0.155 OA
ATOM     22  C   UNL     1       2.086  -6.515  23.114  0.00  0.00    +0.218 C 
ENDBRANCH  17  19
ENDBRANCH  14  17
ENDBRANCH   2   7
BRANCH   4  23
ATOM     23  N   UNL     1       5.876   2.814  27.708  0.00  0.00    -0.269 N 
ATOM     24  C   UNL     1       6.422   2.993  29.003  0.00  0.00    +0.334 A 
ATOM     25  O   UNL     1       7.569   2.735  29.371  0.00  0.00    -0.246 OA
ATOM     26  N   UNL     1       5.588   3.574  29.932  0.00  0.00    -0.275 N 
ATOM     27  H   UNL     1       6.013   3.757  30.829  0.00  0.00    +0.173 HD
ATOM     28  C   UNL     1       4.411   4.200  29.684  0.00  0.00    +0.254 A 
ATOM     29  O   UNL     1       3.847   4.932  30.485  0.00  0.00    -0.268 OA
ATOM     30  C   UNL     1       3.854   3.938  28.362  0.00  0.00    +0.088 A 
ATOM     31  C   UNL     1       4.578   3.269  27.467  0.00  0.00    +0.101 A 
ENDBRANCH   4  23
BRANCH   6  32
ATOM     32  C   UNL     1       9.093   3.263  23.839  0.00  0.00    -0.009 C 
ATOM     33  C   UNL     1       8.919   4.737  24.273  0.00  0.00    +0.015 C 
ATOM     34  C   UNL     1       8.517   3.108  22.405  0.00  0.00    +0.015 C 
ATOM     35  C   UNL     1      10.612   3.024  23.712  0.00  0.00    +0.015 C 
ENDBRANCH   6  32
BRANCH   1  37
ATOM     36  C   UNL     1      10.178  -0.416  24.265  0.00  0.00    +0.277 C 
ATOM     37  O   UNL     1       9.051   0.280  23.724  0.00  0.00    -0.494 OA
ENDBRANCH   1  37
TORSDOF 6
ENDMDL
MODEL 7
REMARK VINA RESULT:      -6.3      4.038      9.263
REMARK  Name = 
REMARK  11 active torsions:
REMARK  status: ('A' for Active; 'I' for Inactive)
REMARK    1  A    between atoms: C_1  and  O_2
REMARK    2  A    between atoms: O_2  and  C_3
REMARK    3  A    between atoms: C_4  and  C_32
REMARK    4  A    between atoms: C_6  and  N_24
REMARK    5  A    between atoms: C_8  and  C_9
REMARK    6  A    between atoms: C_14  and  N_15
REMARK    7  A    between atoms: N_15  and  S_16
REMARK    8  A    between atoms: S_16  and  C_17
REMARK    9  A    between atoms: C_32  and  C_33
REMARK   10  A    between atoms: C_32  and  C_34
REMARK   11  A    between atoms: C_32  and  C_35
REMARK                            x       y       z     vdW  Elec       q    Type
REMARK                         _______ _______ _______ _____ _____    ______ ____
ROOT
ATOM      1  C   UNL     1       9.015   2.987  24.639  0.00  0.00    +0.132 A 
ATOM      2  C   UNL     1       8.126   2.037  25.207  0.00  0.00    +0.026 A 
ATOM      3  C   UNL     1       7.166   2.507  26.138  0.00  0.00    +0.038 A 
ATOM      4  C   UNL     1       7.065   3.847  26.539  0.00  0.00    +0.052 A 
ATOM      5  C   UNL     1       7.923   4.749  25.894  0.00  0.00    +0.034 A 
ATOM      6  C   UNL     1       8.868   4.372  24.897  0.00  0.00    +0.002 A 
ENDROOT
BRANCH   2   7
ATOM      7  C   UNL     1       8.164   0.581  24.885  0.00  0.00    -0.014 A 
ATOM      8  C   UNL     1       9.099  -0.289  25.466  0.00  0.00    +0.009 A 
ATOM      9  C   UNL     1       8.929  -1.678  25.414  0.00  0.00    +0.009 A 
ATOM     10  C   UNL     1       7.902  -2.240  24.648  0.00  0.00    -0.016 A 
ATOM     11  C   UNL     1       7.086  -1.387  23.879  0.00  0.00    -0.017 A 
ATOM     12  C   UNL     1       6.155  -1.939  22.987  0.00  0.00    +0.010 A 
ATOM     13  C   UNL     1       5.983  -3.320  22.908  0.00  0.00    +0.025 A 
ATOM     14  C   UNL     1       6.698  -4.151  23.764  0.00  0.00    +0.048 A 
ATOM     15  C   UNL     1       7.665  -3.625  24.620  0.00  0.00    +0.033 A 
ATOM     16  C   UNL     1       7.196   0.002  24.042  0.00  0.00    +0.017 A 
BRANCH  14  17
ATOM     17  N   UNL     1       6.440  -5.555  23.737  0.00  0.00    -0.221 N 
ATOM     18  H   UNL     1       6.221  -5.934  22.811  0.00  0.00    +0.173 HD
BRANCH  17  19
ATOM     19  S   UNL     1       5.345  -6.171  24.863  0.00  0.00    +0.040 S 
ATOM     20  O   UNL     1       6.121  -6.370  26.070  0.00  0.00    -0.155 OA
ATOM     21  O   UNL     1       4.580  -7.246  24.278  0.00  0.00    -0.155 OA
ATOM     22  C   UNL     1       4.285  -4.768  25.128  0.00  0.00    +0.218 C 
ENDBRANCH  17  19
ENDBRANCH  14  17
ENDBRANCH   2   7
BRANCH   4  23
ATOM     23  N   UNL     1       6.093   4.250  27.551  0.00  0.00    -0.269 N 
ATOM     24  C   UNL     1       6.455   4.294  28.921  0.00  0.00    +0.334 A 
ATOM     25  O   UNL     1       7.568   4.088  29.405  0.00  0.00    -0.246 OA
ATOM     26  N   UNL     1       5.457   4.667  29.794  0.00  0.00    -0.275 N 
ATOM     27  H   UNL     1       5.748   4.760  30.756  0.00  0.00    +0.173 HD
ATOM     28  C   UNL     1       4.261   5.217  29.469  0.00  0.00    +0.254 A 
ATOM     29  O   UNL     1       3.530   5.781  30.273  0.00  0.00    -0.268 OA
ATOM     30  C   UNL     1       3.901   5.094  28.063  0.00  0.00    +0.088 A 
ATOM     31  C   UNL     1       4.794   4.620  27.196  0.00  0.00    +0.101 A 
ENDBRANCH   4  23
BRANCH   6  32
ATOM     32  C   UNL     1       9.590   5.519  24.134  0.00  0.00    -0.009 C 
ATOM     33  C   UNL     1       9.642   6.809  24.984  0.00  0.00    +0.015 C 
ATOM     34  C   UNL     1       8.794   5.824  22.837  0.00  0.00    +0.015 C 
ATOM     35  C   UNL     1      11.039   5.236  23.684  0.00  0.00    +0.015 C 
ENDBRANCH   6  32
BRANCH   1  37
ATOM     36  C   UNL     1       9.492   2.237  22.450  0.00  0.00    +0.277 C 
ATOM     37  O   UNL     1       9.983   2.584  23.749  0.00  0.00    -0.494 OA
ENDBRANCH   1  37
TORSDOF 6
ENDMDL
MODEL 8
REMARK VINA RESULT:      -6.3      2.589      3.222
REMARK  Name = 
REMARK  11 active torsions:
REMARK  status: ('A' for Active; 'I' for Inactive)
REMARK    1  A    between atoms: C_1  and  O_2
REMARK    2  A    between atoms: O_2  and  C_3
REMARK    3  A    between atoms: C_4  and  C_32
REMARK    4  A    between atoms: C_6  and  N_24
REMARK    5  A    between atoms: C_8  and  C_9
REMARK    6  A    between atoms: C_14  and  N_15
REMARK    7  A    between atoms: N_15  and  S_16
REMARK    8  A    between atoms: S_16  and  C_17
REMARK    9  A    between atoms: C_32  and  C_33
REMARK   10  A    between atoms: C_32  and  C_34
REMARK   11  A    between atoms: C_32  and  C_35
REMARK                            x       y       z     vdW  Elec       q    Type
REMARK                         _______ _______ _______ _____ _____    ______ ____
ROOT
ATOM      1  C   UNL     1       7.479  -2.380  24.705  0.00  0.00    +0.132 A 
ATOM      2  C   UNL     1       7.452  -1.143  25.403  0.00  0.00    +0.026 A 
ATOM      3  C   UNL     1       6.452  -0.965  26.390  0.00  0.00    +0.038 A 
ATOM      4  C   UNL     1       5.480  -1.931  26.694  0.00  0.00    +0.052 A 
ATOM      5  C   UNL     1       5.598  -3.155  26.022  0.00  0.00    +0.034 A 
ATOM      6  C   UNL     1       6.616  -3.442  25.067  0.00  0.00    +0.002 A 
ENDROOT
BRANCH   2   7
ATOM      7  C   UNL     1       8.410  -0.030  25.140  0.00  0.00    -0.014 A 
ATOM      8  C   UNL     1       9.756  -0.263  24.818  0.00  0.00    +0.009 A 
ATOM      9  C   UNL     1      10.555   0.744  24.263  0.00  0.00    +0.009 A 
ATOM     10  C   UNL     1      10.075   2.054  24.157  0.00  0.00    -0.016 A 
ATOM     11  C   UNL     1       8.802   2.353  24.679  0.00  0.00    -0.017 A 
ATOM     12  C   UNL     1       8.368   3.685  24.724  0.00  0.00    +0.010 A 
ATOM     13  C   UNL     1       9.156   4.705  24.193  0.00  0.00    +0.025 A 
ATOM     14  C   UNL     1      10.353   4.388  23.560  0.00  0.00    +0.048 A 
ATOM     15  C   UNL     1      10.826   3.076  23.552  0.00  0.00    +0.033 A 
ATOM     16  C   UNL     1       7.974   1.308  25.117  0.00  0.00    +0.017 A 
BRANCH  14  17
ATOM     17  N   UNL     1      11.101   5.433  22.937  0.00  0.00    -0.221 N 
ATOM     18  H   UNL     1      11.104   5.408  21.914  0.00  0.00    +0.173 HD
BRANCH  17  19
ATOM     19  S   UNL     1      12.671   5.709  23.492  0.00  0.00    +0.040 S 
ATOM     20  O   UNL     1      13.228   4.389  23.710  0.00  0.00    -0.155 OA
ATOM     21  O   UNL     1      12.662   6.701  24.539  0.00  0.00    -0.155 OA
ATOM     22  C   UNL     1      13.443   6.388  22.041  0.00  0.00    +0.218 C 
ENDBRANCH  17  19
ENDBRANCH  14  17
ENDBRANCH   2   7
BRANCH   4  23
ATOM     23  N   UNL     1       4.438  -1.655  27.680  0.00  0.00    -0.269 N 
ATOM     24  C   UNL     1       3.543  -0.572  27.497  0.00  0.00    +0.334 A 
ATOM     25  O   UNL     1       3.473   0.182  26.526  0.00  0.00    -0.246 OA
ATOM     26  N   UNL     1       2.612  -0.387  28.495  0.00  0.00    -0.275 N 
ATOM     27  H   UNL     1       1.939   0.343  28.318  0.00  0.00    +0.173 HD
ATOM     28  C   UNL     1       2.312  -1.255  29.492  0.00  0.00    +0.254 A 
ATOM     29  O   UNL     1       1.304  -1.177  30.182  0.00  0.00    -0.268 OA
ATOM     30  C   UNL     1       3.292  -2.316  29.686  0.00  0.00    +0.088 A 
ATOM     31  C   UNL     1       4.286  -2.458  28.811  0.00  0.00    +0.101 A 
ENDBRANCH   4  23
BRANCH   6  32
ATOM     32  C   UNL     1       6.731  -4.913  24.573  0.00  0.00    -0.009 C 
ATOM     33  C   UNL     1       5.987  -5.111  23.231  0.00  0.00    +0.015 C 
ATOM     34  C   UNL     1       6.075  -5.839  25.632  0.00  0.00    +0.015 C 
ATOM     35  C   UNL     1       8.160  -5.455  24.362  0.00  0.00    +0.015 C 
ENDBRANCH   6  32
BRANCH   1  37
ATOM     36  C   UNL     1       7.978  -2.258  22.398  0.00  0.00    +0.277 C 
ATOM     37  O   UNL     1       8.413  -2.598  23.719  0.00  0.00    -0.494 OA
ENDBRANCH   1  37
TORSDOF 6
ENDMDL
MODEL 9
REMARK VINA RESULT:      -6.3      3.039      4.877
REMARK  Name = 
REMARK  11 active torsions:
REMARK  status: ('A' for Active; 'I' for Inactive)
REMARK    1  A    between atoms: C_1  and  O_2
REMARK    2  A    between atoms: O_2  and  C_3
REMARK    3  A    between atoms: C_4  and  C_32
REMARK    4  A    between atoms: C_6  and  N_24
REMARK    5  A    between atoms: C_8  and  C_9
REMARK    6  A    between atoms: C_14  and  N_15
REMARK    7  A    between atoms: N_15  and  S_16
REMARK    8  A    between atoms: S_16  and  C_17
REMARK    9  A    between atoms: C_32  and  C_33
REMARK   10  A    between atoms: C_32  and  C_34
REMARK   11  A    between atoms: C_32  and  C_35
REMARK                            x       y       z     vdW  Elec       q    Type
REMARK                         _______ _______ _______ _____ _____    ______ ____
ROOT
ATOM      1  C   UNL     1       5.863  -0.057  27.577  0.00  0.00    +0.132 A 
ATOM      2  C   UNL     1       6.701  -0.503  26.520  0.00  0.00    +0.026 A 
ATOM      3  C   UNL     1       6.431  -1.774  25.957  0.00  0.00    +0.038 A 
ATOM      4  C   UNL     1       5.402  -2.618  26.402  0.00  0.00    +0.052 A 
ATOM      5  C   UNL     1       4.566  -2.096  27.400  0.00  0.00    +0.034 A 
ATOM      6  C   UNL     1       4.724  -0.800  27.970  0.00  0.00    +0.002 A 
ENDROOT
BRANCH   2   7
ATOM      7  C   UNL     1       7.847   0.291  25.991  0.00  0.00    -0.014 A 
ATOM      8  C   UNL     1       9.099  -0.287  25.728  0.00  0.00    +0.009 A 
ATOM      9  C   UNL     1      10.053   0.370  24.943  0.00  0.00    +0.009 A 
ATOM     10  C   UNL     1       9.843   1.689  24.525  0.00  0.00    -0.016 A 
ATOM     11  C   UNL     1       8.686   2.363  24.965  0.00  0.00    -0.017 A 
ATOM     12  C   UNL     1       8.533   3.728  24.689  0.00  0.00    +0.010 A 
ATOM     13  C   UNL     1       9.481   4.406  23.923  0.00  0.00    +0.025 A 
ATOM     14  C   UNL     1      10.552   3.706  23.380  0.00  0.00    +0.048 A 
ATOM     15  C   UNL     1      10.749   2.360  23.687  0.00  0.00    +0.033 A 
ATOM     16  C   UNL     1       7.690   1.647  25.647  0.00  0.00    +0.017 A 
BRANCH  14  17
ATOM     17  N   UNL     1      11.461   4.394  22.519  0.00  0.00    -0.221 N 
ATOM     18  H   UNL     1      11.850   3.826  21.763  0.00  0.00    +0.173 HD
BRANCH  17  19
ATOM     19  S   UNL     1      12.699   5.285  23.241  0.00  0.00    +0.040 S 
ATOM     20  O   UNL     1      13.599   4.294  23.796  0.00  0.00    -0.155 OA
ATOM     21  O   UNL     1      12.146   6.336  24.059  0.00  0.00    -0.155 OA
ATOM     22  C   UNL     1      13.494   5.998  21.819  0.00  0.00    +0.218 C 
ENDBRANCH  17  19
ENDBRANCH  14  17
ENDBRANCH   2   7
BRANCH   4  23
ATOM     23  N   UNL     1       5.221  -3.944  25.817  0.00  0.00    -0.269 N 
ATOM     24  C   UNL     1       5.765  -5.090  26.450  0.00  0.00    +0.334 A 
ATOM     25  O   UNL     1       6.354  -5.137  27.529  0.00  0.00    -0.246 OA
ATOM     26  N   UNL     1       5.554  -6.289  25.804  0.00  0.00    -0.275 N 
ATOM     27  H   UNL     1       5.887  -7.102  26.301  0.00  0.00    +0.173 HD
ATOM     28  C   UNL     1       4.696  -6.516  24.780  0.00  0.00    +0.254 A 
ATOM     29  O   UNL     1       4.340  -7.632  24.425  0.00  0.00    -0.268 OA
ATOM     30  C   UNL     1       4.211  -5.311  24.118  0.00  0.00    +0.088 A 
ATOM     31  C   UNL     1       4.494  -4.119  24.638  0.00  0.00    +0.101 A 
ENDBRANCH   4  23
BRANCH   6  32
ATOM     32  C   UNL     1       3.591  -0.296  28.909  0.00  0.00    -0.009 C 
ATOM     33  C   UNL     1       2.346  -1.209  28.822  0.00  0.00    +0.015 C 
ATOM     34  C   UNL     1       3.179   1.131  28.460  0.00  0.00    +0.015 C 
ATOM     35  C   UNL     1       3.943  -0.183  30.407  0.00  0.00    +0.015 C 
ENDBRANCH   6  32
BRANCH   1  37
ATOM     36  C   UNL     1       7.032   1.122  29.258  0.00  0.00    +0.277 C 
ATOM     37  O   UNL     1       6.094   1.159  28.178  0.00  0.00    -0.494 OA
ENDBRANCH   1  37
TORSDOF 6
ENDMDL
