MODEL 1
REMARK VINA RESULT:      -6.6      0.000      0.000
REMARK  Name = 
REMARK  5 active torsions:
REMARK  status: ('A' for Active; 'I' for Inactive)
REMARK    1  A    between atoms: O5*_1  and  C5*_2
REMARK    2  A    between atoms: C5*_2  and  C4*_3
REMARK    3  A    between atoms: C1*_6  and  N9_14
REMARK    4  A    between atoms: C2*_8  and  O2*_10
REMARK    5  A    between atoms: C3*_11  and  O3*_13
REMARK                            x       y       z     vdW  Elec       q    Type
REMARK                         _______ _______ _______ _____ _____    ______ ____
ROOT
ATOM      1  C4*   I A   1       8.847   2.874  24.546  0.00  0.00    +0.177 C 
ATOM      2  C3*   I A   1       8.329   2.808  23.114  0.00  0.00    +0.178 C 
ATOM      3  C2*   I A   1       9.131   1.668  22.487  0.00  0.00    +0.195 C 
ATOM      4  C1*   I A   1       9.854   1.016  23.678  0.00  0.00    +0.253 C 
ATOM      5  O4*   I A   1       9.232   1.523  24.877  0.00  0.00    -0.346 OA
ENDROOT
BRANCH   4   6
ATOM      6  N9    I A   1       9.833  -0.437  23.648  0.00  0.00    -0.287 N 
ATOM      7  C4    I A   1       9.353  -1.329  24.550  0.00  0.00    +0.147 A 
ATOM      8  N3    I A   1       8.730  -1.126  25.718  0.00  0.00    -0.330 N 
ATOM      9  H3    I A   1       8.523  -0.196  26.082  0.00  0.00    +0.168 HD
ATOM     10  C2    I A   1       8.395  -2.258  26.425  0.00  0.00    +0.202 A 
ATOM     11  N1    I A   1       8.607  -3.492  26.078  0.00  0.00    -0.198 NA
ATOM     12  C6    I A   1       9.242  -3.768  24.861  0.00  0.00    +0.301 A 
ATOM     13  O6    I A   1       9.462  -4.911  24.477  0.00  0.00    -0.263 OA
ATOM     14  C5    I A   1       9.635  -2.585  24.077  0.00  0.00    +0.172 A 
ATOM     15  N7    I A   1      10.289  -2.490  22.870  0.00  0.00    -0.229 NA
ATOM     16  C8    I A   1      10.413  -1.196  22.652  0.00  0.00    +0.203 A 
ENDBRANCH   4   6
BRANCH   2  17
ATOM     17  O3*   I A   1       8.504   4.050  22.436  0.00  0.00    -0.386 OA
ATOM     18  H3*   I A   1       8.319   4.748  23.098  0.00  0.00    +0.210 HD
ENDBRANCH   2  17
BRANCH   3  19
ATOM     19  O2*   I A   1      10.040   2.190  21.506  0.00  0.00    -0.385 OA
ATOM     20  H2*   I A   1      10.092   3.156  21.623  0.00  0.00    +0.210 HD
ENDBRANCH   3  19
BRANCH   1  21
ATOM     21  C5*   I A   1       7.825   3.432  25.536  0.00  0.00    +0.190 C 
BRANCH  21  22
ATOM     22  O5*   I A   1       7.640   2.543  26.637  0.00  0.00    -0.392 OA
ATOM     23  H5*   I A   1       8.234   1.785  26.487  0.00  0.00    +0.210 HD
ENDBRANCH  21  22
ENDBRANCH   1  21
TORSDOF 5
ENDMDL
MODEL 2
REMARK VINA RESULT:      -6.4      2.687      3.801
REMARK  Name = 
REMARK  5 active torsions:
REMARK  status: ('A' for Active; 'I' for Inactive)
REMARK    1  A    between atoms: O5*_1  and  C5*_2
REMARK    2  A    between atoms: C5*_2  and  C4*_3
REMARK    3  A    between atoms: C1*_6  and  N9_14
REMARK    4  A    between atoms: C2*_8  and  O2*_10
REMARK    5  A    between atoms: C3*_11  and  O3*_13
REMARK                            x       y       z     vdW  Elec       q    Type
REMARK                         _______ _______ _______ _____ _____    ______ ____
ROOT
ATOM      1  C4*   I A   1       8.511   1.167  23.177  0.00  0.00    +0.177 C 
ATOM      2  C3*   I A   1       9.852   0.862  23.833  0.00  0.00    +0.178 C 
ATOM      3  C2*   I A   1       9.610  -0.457  24.566  0.00  0.00    +0.195 C 
ATOM      4  C1*   I A   1       8.233  -0.922  24.063  0.00  0.00    +0.253 C 
ATOM      5  O4*   I A   1       7.917  -0.120  22.905  0.00  0.00    -0.346 OA
ENDROOT
BRANCH   4   6
ATOM      6  N9    I A   1       8.174  -2.341  23.753  0.00  0.00    -0.287 N 
ATOM      7  C4    I A   1       7.332  -3.029  22.942  0.00  0.00    +0.147 A 
ATOM      8  N3    I A   1       6.330  -2.596  22.168  0.00  0.00    -0.330 N 
ATOM      9  H3    I A   1       6.076  -1.611  22.091  0.00  0.00    +0.168 HD
ATOM     10  C2    I A   1       5.635  -3.567  21.484  0.00  0.00    +0.202 A 
ATOM     11  N1    I A   1       5.852  -4.848  21.502  0.00  0.00    -0.198 NA
ATOM     12  C6    I A   1       6.895  -5.361  22.283  0.00  0.00    +0.301 A 
ATOM     13  O6    I A   1       7.153  -6.558  22.334  0.00  0.00    -0.263 OA
ATOM     14  C5    I A   1       7.657  -4.358  23.047  0.00  0.00    +0.172 A 
ATOM     15  N7    I A   1       8.711  -4.511  23.918  0.00  0.00    -0.229 NA
ATOM     16  C8    I A   1       8.982  -3.292  24.341  0.00  0.00    +0.203 A 
ENDBRANCH   4   6
BRANCH   2  17
ATOM     17  O3*   I A   1      10.261   1.915  24.702  0.00  0.00    -0.386 OA
ATOM     18  H3*   I A   1       9.664   1.873  25.478  0.00  0.00    +0.210 HD
ENDBRANCH   2  17
BRANCH   3  19
ATOM     19  O2*   I A   1       9.636  -0.241  25.985  0.00  0.00    -0.385 OA
ATOM     20  H2*   I A   1      10.556  -0.343  26.292  0.00  0.00    +0.210 HD
ENDBRANCH   3  19
BRANCH   1  21
ATOM     21  C5*   I A   1       8.633   2.015  21.911  0.00  0.00    +0.190 C 
BRANCH  21  22
ATOM     22  O5*   I A   1      10.002   2.229  21.569  0.00  0.00    -0.392 OA
ATOM     23  H5*   I A   1      10.287   3.030  22.046  0.00  0.00    +0.210 HD
ENDBRANCH  21  22
ENDBRANCH   1  21
TORSDOF 5
ENDMDL
MODEL 3
REMARK VINA RESULT:      -6.3      2.736      6.961
REMARK  Name = 
REMARK  5 active torsions:
REMARK  status: ('A' for Active; 'I' for Inactive)
REMARK    1  A    between atoms: O5*_1  and  C5*_2
REMARK    2  A    between atoms: C5*_2  and  C4*_3
REMARK    3  A    between atoms: C1*_6  and  N9_14
REMARK    4  A    between atoms: C2*_8  and  O2*_10
REMARK    5  A    between atoms: C3*_11  and  O3*_13
REMARK                            x       y       z     vdW  Elec       q    Type
REMARK                         _______ _______ _______ _____ _____    ______ ____
ROOT
ATOM      1  C4*   I A   1       6.250  -5.747  24.598  0.00  0.00    +0.177 C 
ATOM      2  C3*   I A   1       5.888  -5.572  26.068  0.00  0.00    +0.178 C 
ATOM      3  C2*   I A   1       7.068  -4.789  26.644  0.00  0.00    +0.195 C 
ATOM      4  C1*   I A   1       7.881  -4.366  25.409  0.00  0.00    +0.253 C 
ATOM      5  O4*   I A   1       7.040  -4.588  24.257  0.00  0.00    -0.346 OA
ENDROOT
BRANCH   4   6
ATOM      6  N9    I A   1       8.349  -2.991  25.462  0.00  0.00    -0.287 N 
ATOM      7  C4    I A   1       9.041  -2.262  24.550  0.00  0.00    +0.147 A 
ATOM      8  N3    I A   1       9.467  -2.590  23.324  0.00  0.00    -0.330 N 
ATOM      9  H3    I A   1       9.292  -3.502  22.902  0.00  0.00    +0.168 HD
ATOM     10  C2    I A   1      10.182  -1.622  22.658  0.00  0.00    +0.202 A 
ATOM     11  N1    I A   1      10.478  -0.431  23.083  0.00  0.00    -0.198 NA
ATOM     12  C6    I A   1      10.049  -0.025  24.353  0.00  0.00    +0.301 A 
ATOM     13  O6    I A   1      10.291   1.088  24.805  0.00  0.00    -0.263 OA
ATOM     14  C5    I A   1       9.292  -1.036  25.111  0.00  0.00    +0.172 A 
ATOM     15  N7    I A   1       8.753  -0.984  26.376  0.00  0.00    -0.229 NA
ATOM     16  C8    I A   1       8.217  -2.174  26.565  0.00  0.00    +0.203 A 
ENDBRANCH   4   6
BRANCH   2  17
ATOM     17  O3*   I A   1       5.686  -6.827  26.711  0.00  0.00    -0.386 OA
ATOM     18  H3*   I A   1       6.080  -6.741  27.604  0.00  0.00    +0.210 HD
ENDBRANCH   2  17
BRANCH   3  19
ATOM     19  O2*   I A   1       7.818  -5.623  27.541  0.00  0.00    -0.385 OA
ATOM     20  H2*   I A   1       7.627  -6.554  27.322  0.00  0.00    +0.210 HD
ENDBRANCH   3  19
BRANCH   1  21
ATOM     21  C5*   I A   1       5.032  -5.893  23.686  0.00  0.00    +0.190 C 
BRANCH  21  22
ATOM     22  O5*   I A   1       4.510  -7.220  23.737  0.00  0.00    -0.392 OA
ATOM     23  H5*   I A   1       3.540  -7.140  23.681  0.00  0.00    +0.210 HD
ENDBRANCH  21  22
ENDBRANCH   1  21
TORSDOF 5
ENDMDL
MODEL 4
REMARK VINA RESULT:      -6.3      2.408      6.021
REMARK  Name = 
REMARK  5 active torsions:
REMARK  status: ('A' for Active; 'I' for Inactive)
REMARK    1  A    between atoms: O5*_1  and  C5*_2
REMARK    2  A    between atoms: C5*_2  and  C4*_3
REMARK    3  A    between atoms: C1*_6  and  N9_14
REMARK    4  A    between atoms: C2*_8  and  O2*_10
REMARK    5  A    between atoms: C3*_11  and  O3*_13
REMARK                            x       y       z     vdW  Elec       q    Type
REMARK                         _______ _______ _______ _____ _____    ______ ____
ROOT
ATOM      1  C4*   I A   1       6.876  -4.253  25.976  0.00  0.00    +0.177 C 
ATOM      2  C3*   I A   1       8.277  -4.660  26.418  0.00  0.00    +0.178 C 
ATOM      3  C2*   I A   1       9.154  -4.319  25.213  0.00  0.00    +0.195 C 
ATOM      4  C1*   I A   1       8.226  -3.517  24.285  0.00  0.00    +0.253 C 
ATOM      5  O4*   I A   1       7.067  -3.151  25.064  0.00  0.00    -0.346 OA
ENDROOT
BRANCH   4   6
ATOM      6  N9    I A   1       8.858  -2.347  23.698  0.00  0.00    -0.287 N 
ATOM      7  C4    I A   1       8.328  -1.155  23.326  0.00  0.00    +0.147 A 
ATOM      8  N3    I A   1       7.072  -0.700  23.419  0.00  0.00    -0.330 N 
ATOM      9  H3    I A   1       6.314  -1.248  23.826  0.00  0.00    +0.168 HD
ATOM     10  C2    I A   1       6.849   0.559  22.911  0.00  0.00    +0.202 A 
ATOM     11  N1    I A   1       7.722   1.351  22.364  0.00  0.00    -0.198 NA
ATOM     12  C6    I A   1       9.055   0.936  22.250  0.00  0.00    +0.301 A 
ATOM     13  O6    I A   1       9.923   1.642  21.750  0.00  0.00    -0.263 OA
ATOM     14  C5    I A   1       9.337  -0.414  22.766  0.00  0.00    +0.172 A 
ATOM     15  N7    I A   1      10.510  -1.133  22.791  0.00  0.00    -0.229 NA
ATOM     16  C8    I A   1      10.187  -2.291  23.331  0.00  0.00    +0.203 A 
ENDBRANCH   4   6
BRANCH   2  17
ATOM     17  O3*   I A   1       8.333  -6.038  26.775  0.00  0.00    -0.386 OA
ATOM     18  H3*   I A   1       7.497  -6.230  27.249  0.00  0.00    +0.210 HD
ENDBRANCH   2  17
BRANCH   3  19
ATOM     19  O2*   I A   1       9.638  -5.526  24.603  0.00  0.00    -0.385 OA
ATOM     20  H2*   I A   1       9.506  -5.454  23.639  0.00  0.00    +0.210 HD
ENDBRANCH   3  19
BRANCH   1  21
ATOM     21  C5*   I A   1       5.959  -3.875  27.139  0.00  0.00    +0.190 C 
BRANCH  21  22
ATOM     22  O5*   I A   1       6.231  -4.677  28.287  0.00  0.00    -0.392 OA
ATOM     23  H5*   I A   1       5.429  -4.652  28.841  0.00  0.00    +0.210 HD
ENDBRANCH  21  22
ENDBRANCH   1  21
TORSDOF 5
ENDMDL
MODEL 5
REMARK VINA RESULT:      -6.2      2.481      6.342
REMARK  Name = 
REMARK  5 active torsions:
REMARK  status: ('A' for Active; 'I' for Inactive)
REMARK    1  A    between atoms: O5*_1  and  C5*_2
REMARK    2  A    between atoms: C5*_2  and  C4*_3
REMARK    3  A    between atoms: C1*_6  and  N9_14
REMARK    4  A    between atoms: C2*_8  and  O2*_10
REMARK    5  A    between atoms: C3*_11  and  O3*_13
REMARK                            x       y       z     vdW  Elec       q    Type
REMARK                         _______ _______ _______ _____ _____    ______ ____
ROOT
ATOM      1  C4*   I A   1       7.482  -4.813  25.743  0.00  0.00    +0.177 C 
ATOM      2  C3*   I A   1       8.855  -4.242  26.078  0.00  0.00    +0.178 C 
ATOM      3  C2*   I A   1       9.122  -3.246  24.949  0.00  0.00    +0.195 C 
ATOM      4  C1*   I A   1       7.778  -3.146  24.207  0.00  0.00    +0.253 C 
ATOM      5  O4*   I A   1       6.782  -3.751  25.059  0.00  0.00    -0.346 OA
ENDROOT
BRANCH   4   6
ATOM      6  N9    I A   1       7.410  -1.787  23.850  0.00  0.00    -0.287 N 
ATOM      7  C4    I A   1       8.000  -0.911  22.998  0.00  0.00    +0.147 A 
ATOM      8  N3    I A   1       9.076  -1.057  22.216  0.00  0.00    -0.330 N 
ATOM      9  H3    I A   1       9.611  -1.925  22.166  0.00  0.00    +0.168 HD
ATOM     10  C2    I A   1       9.443   0.049  21.485  0.00  0.00    +0.202 A 
ATOM     11  N1    I A   1       8.856   1.208  21.465  0.00  0.00    -0.198 NA
ATOM     12  C6    I A   1       7.716   1.418  22.252  0.00  0.00    +0.301 A 
ATOM     13  O6    I A   1       7.116   2.486  22.268  0.00  0.00    -0.263 OA
ATOM     14  C5    I A   1       7.296   0.265  23.065  0.00  0.00    +0.172 A 
ATOM     15  N7    I A   1       6.254   0.132  23.955  0.00  0.00    -0.229 NA
ATOM     16  C8    I A   1       6.363  -1.096  24.424  0.00  0.00    +0.203 A 
ENDBRANCH   4   6
BRANCH   2  17
ATOM     17  O3*   I A   1       9.842  -5.267  26.161  0.00  0.00    -0.386 OA
ATOM     18  H3*   I A   1       9.852  -5.559  27.096  0.00  0.00    +0.210 HD
ENDBRANCH   2  17
BRANCH   3  19
ATOM     19  O2*   I A   1      10.182  -3.729  24.110  0.00  0.00    -0.385 OA
ATOM     20  H2*   I A   1      10.471  -2.998  23.533  0.00  0.00    +0.210 HD
ENDBRANCH   3  19
BRANCH   1  21
ATOM     21  C5*   I A   1       6.712  -5.300  26.971  0.00  0.00    +0.190 C 
BRANCH  21  22
ATOM     22  O5*   I A   1       7.568  -6.017  27.860  0.00  0.00    -0.392 OA
ATOM     23  H5*   I A   1       8.400  -6.177  27.378  0.00  0.00    +0.210 HD
ENDBRANCH  21  22
ENDBRANCH   1  21
TORSDOF 5
ENDMDL
MODEL 6
REMARK VINA RESULT:      -6.2      2.444      3.253
REMARK  Name = 
REMARK  5 active torsions:
REMARK  status: ('A' for Active; 'I' for Inactive)
REMARK    1  A    between atoms: O5*_1  and  C5*_2
REMARK    2  A    between atoms: C5*_2  and  C4*_3
REMARK    3  A    between atoms: C1*_6  and  N9_14
REMARK    4  A    between atoms: C2*_8  and  O2*_10
REMARK    5  A    between atoms: C3*_11  and  O3*_13
REMARK                            x       y       z     vdW  Elec       q    Type
REMARK                         _______ _______ _______ _____ _____    ______ ____
ROOT
ATOM      1  C4*   I A   1      10.589  -0.179  23.521  0.00  0.00    +0.177 C 
ATOM      2  C3*   I A   1       9.548   0.426  22.586  0.00  0.00    +0.178 C 
ATOM      3  C2*   I A   1       8.841  -0.791  21.989  0.00  0.00    +0.195 C 
ATOM      4  C1*   I A   1       9.364  -1.976  22.818  0.00  0.00    +0.253 C 
ATOM      5  O4*   I A   1      10.015  -1.421  23.981  0.00  0.00    -0.346 OA
ENDROOT
BRANCH   4   6
ATOM      6  N9    I A   1       8.330  -2.925  23.196  0.00  0.00    -0.287 N 
ATOM      7  C4    I A   1       8.221  -3.716  24.293  0.00  0.00    +0.147 A 
ATOM      8  N3    I A   1       9.021  -3.829  25.360  0.00  0.00    -0.330 N 
ATOM      9  H3    I A   1       9.869  -3.276  25.478  0.00  0.00    +0.168 HD
ATOM     10  C2    I A   1       8.643  -4.762  26.299  0.00  0.00    +0.202 A 
ATOM     11  N1    I A   1       7.596  -5.531  26.264  0.00  0.00    -0.198 NA
ATOM     12  C6    I A   1       6.714  -5.449  25.179  0.00  0.00    +0.301 A 
ATOM     13  O6    I A   1       5.707  -6.143  25.096  0.00  0.00    -0.263 OA
ATOM     14  C5    I A   1       7.088  -4.474  24.141  0.00  0.00    +0.172 A 
ATOM     15  N7    I A   1       6.474  -4.158  22.950  0.00  0.00    -0.229 NA
ATOM     16  C8    I A   1       7.252  -3.248  22.399  0.00  0.00    +0.203 A 
ENDBRANCH   4   6
BRANCH   2  17
ATOM     17  O3*   I A   1      10.151   1.259  21.599  0.00  0.00    -0.386 OA
ATOM     18  H3*   I A   1       9.432   1.821  21.243  0.00  0.00    +0.210 HD
ENDBRANCH   2  17
BRANCH   3  19
ATOM     19  O2*   I A   1       9.162  -0.908  20.594  0.00  0.00    -0.385 OA
ATOM     20  H2*   I A   1       8.402  -1.318  20.140  0.00  0.00    +0.210 HD
ENDBRANCH   3  19
BRANCH   1  21
ATOM     21  C5*   I A   1      10.965   0.739  24.684  0.00  0.00    +0.190 C 
BRANCH  21  22
ATOM     22  O5*   I A   1      10.221   0.410  25.857  0.00  0.00    -0.392 OA
ATOM     23  H5*   I A   1       9.279   0.448  25.609  0.00  0.00    +0.210 HD
ENDBRANCH  21  22
ENDBRANCH   1  21
TORSDOF 5
ENDMDL
MODEL 7
REMARK VINA RESULT:      -6.0      3.110      6.331
REMARK  Name = 
REMARK  5 active torsions:
REMARK  status: ('A' for Active; 'I' for Inactive)
REMARK    1  A    between atoms: O5*_1  and  C5*_2
REMARK    2  A    between atoms: C5*_2  and  C4*_3
REMARK    3  A    between atoms: C1*_6  and  N9_14
REMARK    4  A    between atoms: C2*_8  and  O2*_10
REMARK    5  A    between atoms: C3*_11  and  O3*_13
REMARK                            x       y       z     vdW  Elec       q    Type
REMARK                         _______ _______ _______ _____ _____    ______ ____
ROOT
ATOM      1  C4*   I A   1       6.565  -4.862  22.848  0.00  0.00    +0.177 C 
ATOM      2  C3*   I A   1       5.457  -3.839  22.622  0.00  0.00    +0.178 C 
ATOM      3  C2*   I A   1       5.724  -2.771  23.684  0.00  0.00    +0.195 C 
ATOM      4  C1*   I A   1       7.101  -3.144  24.257  0.00  0.00    +0.253 C 
ATOM      5  O4*   I A   1       7.686  -4.107  23.354  0.00  0.00    -0.346 OA
ENDROOT
BRANCH   4   6
ATOM      6  N9    I A   1       7.980  -2.003  24.452  0.00  0.00    -0.287 N 
ATOM      7  C4    I A   1       8.617  -1.219  23.547  0.00  0.00    +0.147 A 
ATOM      8  N3    I A   1       8.595  -1.250  22.209  0.00  0.00    -0.330 N 
ATOM      9  H3    I A   1       8.039  -1.922  21.680  0.00  0.00    +0.168 HD
ATOM     10  C2    I A   1       9.390  -0.325  21.572  0.00  0.00    +0.202 A 
ATOM     11  N1    I A   1      10.146   0.574  22.127  0.00  0.00    -0.198 NA
ATOM     12  C6    I A   1      10.201   0.665  23.523  0.00  0.00    +0.301 A 
ATOM     13  O6    I A   1      10.889   1.498  24.102  0.00  0.00    -0.263 OA
ATOM     14  C5    I A   1       9.377  -0.317  24.248  0.00  0.00    +0.172 A 
ATOM     15  N7    I A   1       9.217  -0.525  25.598  0.00  0.00    -0.229 NA
ATOM     16  C8    I A   1       8.396  -1.553  25.688  0.00  0.00    +0.203 A 
ENDBRANCH   4   6
BRANCH   2  17
ATOM     17  O3*   I A   1       4.166  -4.430  22.741  0.00  0.00    -0.386 OA
ATOM     18  H3*   I A   1       4.315  -5.346  23.055  0.00  0.00    +0.210 HD
ENDBRANCH   2  17
BRANCH   3  19
ATOM     19  O2*   I A   1       4.686  -2.796  24.676  0.00  0.00    -0.385 OA
ATOM     20  H2*   I A   1       3.837  -2.956  24.224  0.00  0.00    +0.210 HD
ENDBRANCH   3  19
BRANCH   1  21
ATOM     21  C5*   I A   1       6.931  -5.646  21.588  0.00  0.00    +0.190 C 
BRANCH  21  22
ATOM     22  O5*   I A   1       5.800  -6.352  21.078  0.00  0.00    -0.392 OA
ATOM     23  H5*   I A   1       5.010  -5.905  21.432  0.00  0.00    +0.210 HD
ENDBRANCH  21  22
ENDBRANCH   1  21
TORSDOF 5
ENDMDL
MODEL 8
REMARK VINA RESULT:      -6.0      2.256      2.312
REMARK  Name = 
REMARK  5 active torsions:
REMARK  status: ('A' for Active; 'I' for Inactive)
REMARK    1  A    between atoms: O5*_1  and  C5*_2
REMARK    2  A    between atoms: C5*_2  and  C4*_3
REMARK    3  A    between atoms: C1*_6  and  N9_14
REMARK    4  A    between atoms: C2*_8  and  O2*_10
REMARK    5  A    between atoms: C3*_11  and  O3*_13
REMARK                            x       y       z     vdW  Elec       q    Type
REMARK                         _______ _______ _______ _____ _____    ______ ____
ROOT
ATOM      1  C4*   I A   1       7.207   2.425  23.752  0.00  0.00    +0.177 C 
ATOM      2  C3*   I A   1       7.384   2.392  22.239  0.00  0.00    +0.178 C 
ATOM      3  C2*   I A   1       8.472   1.341  22.020  0.00  0.00    +0.195 C 
ATOM      4  C1*   I A   1       8.644   0.684  23.400  0.00  0.00    +0.253 C 
ATOM      5  O4*   I A   1       7.515   1.089  24.203  0.00  0.00    -0.346 OA
ENDROOT
BRANCH   4   6
ATOM      6  N9    I A   1       8.759  -0.764  23.346  0.00  0.00    -0.287 N 
ATOM      7  C4    I A   1       7.806  -1.717  23.191  0.00  0.00    +0.147 A 
ATOM      8  N3    I A   1       6.485  -1.597  23.012  0.00  0.00    -0.330 N 
ATOM      9  H3    I A   1       6.013  -0.694  22.959  0.00  0.00    +0.168 HD
ATOM     10  C2    I A   1       5.780  -2.775  22.922  0.00  0.00    +0.202 A 
ATOM     11  N1    I A   1       6.258  -3.982  22.981  0.00  0.00    -0.198 NA
ATOM     12  C6    I A   1       7.635  -4.172  23.154  0.00  0.00    +0.301 A 
ATOM     13  O6    I A   1       8.143  -5.286  23.210  0.00  0.00    -0.263 OA
ATOM     14  C5    I A   1       8.428  -2.937  23.273  0.00  0.00    +0.172 A 
ATOM     15  N7    I A   1       9.777  -2.758  23.472  0.00  0.00    -0.229 NA
ATOM     16  C8    I A   1       9.941  -1.451  23.535  0.00  0.00    +0.203 A 
ENDBRANCH   4   6
BRANCH   2  17
ATOM     17  O3*   I A   1       7.738   3.674  21.725  0.00  0.00    -0.386 OA
ATOM     18  H3*   I A   1       7.971   3.533  20.784  0.00  0.00    +0.210 HD
ENDBRANCH   2  17
BRANCH   3  19
ATOM     19  O2*   I A   1       9.675   1.970  21.553  0.00  0.00    -0.385 OA
ATOM     20  H2*   I A   1       9.458   2.489  20.757  0.00  0.00    +0.210 HD
ENDBRANCH   3  19
BRANCH   1  21
ATOM     21  C5*   I A   1       5.809   2.864  24.190  0.00  0.00    +0.190 C 
BRANCH  21  22
ATOM     22  O5*   I A   1       4.826   1.909  23.793  0.00  0.00    -0.392 OA
ATOM     23  H5*   I A   1       5.282   1.050  23.726  0.00  0.00    +0.210 HD
ENDBRANCH  21  22
ENDBRANCH   1  21
TORSDOF 5
ENDMDL
MODEL 9
REMARK VINA RESULT:      -6.0      3.449      6.294
REMARK  Name = 
REMARK  5 active torsions:
REMARK  status: ('A' for Active; 'I' for Inactive)
REMARK    1  A    between atoms: O5*_1  and  C5*_2
REMARK    2  A    between atoms: C5*_2  and  C4*_3
REMARK    3  A    between atoms: C1*_6  and  N9_14
REMARK    4  A    between atoms: C2*_8  and  O2*_10
REMARK    5  A    between atoms: C3*_11  and  O3*_13
REMARK                            x       y       z     vdW  Elec       q    Type
REMARK                         _______ _______ _______ _____ _____    ______ ____
ROOT
ATOM      1  C4*   I A   1       5.180  -5.254  23.725  0.00  0.00    +0.177 C 
ATOM      2  C3*   I A   1       5.879  -5.689  22.442  0.00  0.00    +0.178 C 
ATOM      3  C2*   I A   1       6.494  -4.396  21.904  0.00  0.00    +0.195 C 
ATOM      4  C1*   I A   1       6.310  -3.386  23.050  0.00  0.00    +0.253 C 
ATOM      5  O4*   I A   1       5.954  -4.144  24.225  0.00  0.00    -0.346 OA
ENDROOT
BRANCH   4   6
ATOM      6  N9    I A   1       7.480  -2.558  23.290  0.00  0.00    -0.287 N 
ATOM      7  C4    I A   1       7.901  -1.939  24.421  0.00  0.00    +0.147 A 
ATOM      8  N3    I A   1       7.376  -1.936  25.653  0.00  0.00    -0.330 N 
ATOM      9  H3    I A   1       6.532  -2.454  25.896  0.00  0.00    +0.168 HD
ATOM     10  C2    I A   1       8.035  -1.169  26.586  0.00  0.00    +0.202 A 
ATOM     11  N1    I A   1       9.109  -0.460  26.404  0.00  0.00    -0.198 NA
ATOM     12  C6    I A   1       9.712  -0.434  25.140  0.00  0.00    +0.301 A 
ATOM     13  O6    I A   1      10.730   0.209  24.910  0.00  0.00    -0.263 OA
ATOM     14  C5    I A   1       9.032  -1.229  24.104  0.00  0.00    +0.172 A 
ATOM     15  N7    I A   1       9.331  -1.404  22.772  0.00  0.00    -0.229 NA
ATOM     16  C8    I A   1       8.374  -2.183  22.309  0.00  0.00    +0.203 A 
ENDBRANCH   4   6
BRANCH   2  17
ATOM     17  O3*   I A   1       4.968  -6.293  21.528  0.00  0.00    -0.386 OA
ATOM     18  H3*   I A   1       5.473  -6.994  21.065  0.00  0.00    +0.210 HD
ENDBRANCH   2  17
BRANCH   3  19
ATOM     19  O2*   I A   1       5.820  -3.996  20.701  0.00  0.00    -0.385 OA
ATOM     20  H2*   I A   1       5.975  -4.681  20.024  0.00  0.00    +0.210 HD
ENDBRANCH   3  19
BRANCH   1  21
ATOM     21  C5*   I A   1       5.059  -6.374  24.758  0.00  0.00    +0.190 C 
BRANCH  21  22
ATOM     22  O5*   I A   1       4.436  -7.527  24.194  0.00  0.00    -0.392 OA
ATOM     23  H5*   I A   1       4.403  -7.383  23.230  0.00  0.00    +0.210 HD
ENDBRANCH  21  22
ENDBRANCH   1  21
TORSDOF 5
ENDMDL
