MODEL 1
REMARK VINA RESULT:      -3.5      0.000      0.000
REMARK  Name = 
REMARK  6 active torsions:
REMARK  status: ('A' for Active; 'I' for Inactive)
REMARK    1  A    between atoms: O_1  and  C_2
REMARK    2  A    between atoms: C_2  and  C_3
REMARK    3  A    between atoms: C_3  and  O_5
REMARK    4  A    between atoms: C_3  and  C_6
REMARK    5  A    between atoms: C_6  and  S_7
REMARK    6  A    between atoms: S_7  and  O_8
REMARK                            x       y       z     vdW  Elec       q    Type
REMARK                         _______ _______ _______ _____ _____    ______ ____
ROOT
ATOM      1  C   UNL     1      10.348  -1.415  22.814  0.00  0.00    +0.152 C 
ENDROOT
BRANCH   1   2
ATOM      2  O   UNL     1      10.144  -1.640  21.407  0.00  0.00    -0.389 OA
ATOM      3  H   UNL     1      10.449  -0.813  20.979  0.00  0.00    +0.210 HD
ENDBRANCH   1   2
BRANCH   1   4
ATOM      4  C   UNL     1       9.369  -2.313  23.579  0.00  0.00    +0.188 C 
BRANCH   4   5
ATOM      5  O   UNL     1      10.102  -3.423  24.112  0.00  0.00    -0.392 OA
ATOM      6  H   UNL     1       9.509  -3.872  24.739  0.00  0.00    +0.210 HD
ENDBRANCH   4   5
ENDBRANCH   1   4
BRANCH   1   7
ATOM      7  C   UNL     1      10.167   0.076  23.103  0.00  0.00    +0.133 C 
BRANCH   7   8
ATOM      8  S   UNL     1       9.298   0.945  21.754  0.00  0.00    -0.009 S 
BRANCH   8   9
ATOM      9  O   UNL     1      10.270   2.287  21.630  0.00  0.00    -0.329 OA
ATOM     10  H   UNL     1      10.679   2.351  20.733  0.00  0.00    +0.227 HD
ENDBRANCH   8   9
ENDBRANCH   7   8
ENDBRANCH   1   7
TORSDOF 6
ENDMDL
MODEL 2
REMARK VINA RESULT:      -3.4      2.172      2.719
REMARK  Name = 
REMARK  6 active torsions:
REMARK  status: ('A' for Active; 'I' for Inactive)
REMARK    1  A    between atoms: O_1  and  C_2
REMARK    2  A    between atoms: C_2  and  C_3
REMARK    3  A    between atoms: C_3  and  O_5
REMARK    4  A    between atoms: C_3  and  C_6
REMARK    5  A    between atoms: C_6  and  S_7
REMARK    6  A    between atoms: S_7  and  O_8
REMARK                            x       y       z     vdW  Elec       q    Type
REMARK                         _______ _______ _______ _____ _____    ______ ____
ROOT
ATOM      1  C   UNL     1       9.973   0.884  21.919  0.00  0.00    +0.152 C 
ENDROOT
BRANCH   1   2
ATOM      2  O   UNL     1       9.301   1.959  21.237  0.00  0.00    -0.389 OA
ATOM      3  H   UNL     1       9.311   1.696  20.293  0.00  0.00    +0.210 HD
ENDBRANCH   1   2
BRANCH   1   4
ATOM      4  C   UNL     1       9.278  -0.425  21.528  0.00  0.00    +0.188 C 
BRANCH   4   5
ATOM      5  O   UNL     1      10.259  -1.469  21.523  0.00  0.00    -0.392 OA
ATOM      6  H   UNL     1      11.050  -1.104  21.087  0.00  0.00    +0.210 HD
ENDBRANCH   4   5
ENDBRANCH   1   4
BRANCH   1   7
ATOM      7  C   UNL     1       9.951   1.166  23.422  0.00  0.00    +0.133 C 
BRANCH   7   8
ATOM      8  S   UNL     1       9.740   2.940  23.793  0.00  0.00    -0.009 S 
BRANCH   8   9
ATOM      9  O   UNL     1      11.024   3.549  22.931  0.00  0.00    -0.329 OA
ATOM     10  H   UNL     1      10.957   3.312  21.974  0.00  0.00    +0.227 HD
ENDBRANCH   8   9
ENDBRANCH   7   8
ENDBRANCH   1   7
TORSDOF 6
ENDMDL
MODEL 3
REMARK VINA RESULT:      -3.4      1.759      3.782
REMARK  Name = 
REMARK  6 active torsions:
REMARK  status: ('A' for Active; 'I' for Inactive)
REMARK    1  A    between atoms: O_1  and  C_2
REMARK    2  A    between atoms: C_2  and  C_3
REMARK    3  A    between atoms: C_3  and  O_5
REMARK    4  A    between atoms: C_3  and  C_6
REMARK    5  A    between atoms: C_6  and  S_7
REMARK    6  A    between atoms: S_7  and  O_8
REMARK                            x       y       z     vdW  Elec       q    Type
REMARK                         _______ _______ _______ _____ _____    ______ ____
ROOT
ATOM      1  C   UNL     1       9.265  -0.455  21.780  0.00  0.00    +0.152 C 
ENDROOT
BRANCH   1   2
ATOM      2  O   UNL     1      10.258  -1.427  21.404  0.00  0.00    -0.389 OA
ATOM      3  H   UNL     1       9.824  -2.292  21.557  0.00  0.00    +0.210 HD
ENDBRANCH   1   2
BRANCH   1   4
ATOM      4  C   UNL     1       9.998   0.828  22.191  0.00  0.00    +0.188 C 
BRANCH   4   5
ATOM      5  O   UNL     1       9.580   1.882  21.314  0.00  0.00    -0.392 OA
ATOM      6  H   UNL     1       9.573   2.698  21.846  0.00  0.00    +0.210 HD
ENDBRANCH   4   5
ENDBRANCH   1   4
BRANCH   1   7
ATOM      7  C   UNL     1       8.394  -1.046  22.890  0.00  0.00    +0.133 C 
BRANCH   7   8
ATOM      8  S   UNL     1       9.366  -1.506  24.364  0.00  0.00    -0.009 S 
BRANCH   8   9
ATOM      9  O   UNL     1      10.114  -2.869  23.778  0.00  0.00    -0.329 OA
ATOM     10  H   UNL     1       9.594  -3.682  23.990  0.00  0.00    +0.227 HD
ENDBRANCH   8   9
ENDBRANCH   7   8
ENDBRANCH   1   7
TORSDOF 6
ENDMDL
MODEL 4
REMARK VINA RESULT:      -3.3      2.287      3.307
REMARK  Name = 
REMARK  6 active torsions:
REMARK  status: ('A' for Active; 'I' for Inactive)
REMARK    1  A    between atoms: O_1  and  C_2
REMARK    2  A    between atoms: C_2  and  C_3
REMARK    3  A    between atoms: C_3  and  O_5
REMARK    4  A    between atoms: C_3  and  C_6
REMARK    5  A    between atoms: C_6  and  S_7
REMARK    6  A    between atoms: S_7  and  O_8
REMARK                            x       y       z     vdW  Elec       q    Type
REMARK                         _______ _______ _______ _____ _____    ______ ____
ROOT
ATOM      1  C   UNL     1       9.985   0.846  22.154  0.00  0.00    +0.152 C 
ENDROOT
BRANCH   1   2
ATOM      2  O   UNL     1       9.715   2.030  21.380  0.00  0.00    -0.389 OA
ATOM      3  H   UNL     1      10.599   2.414  21.202  0.00  0.00    +0.210 HD
ENDBRANCH   1   2
BRANCH   1   4
ATOM      4  C   UNL     1       9.358  -0.346  21.421  0.00  0.00    +0.188 C 
BRANCH   4   5
ATOM      5  O   UNL     1      10.248  -1.462  21.539  0.00  0.00    -0.392 OA
ATOM      6  H   UNL     1      10.652  -1.589  20.662  0.00  0.00    +0.210 HD
ENDBRANCH   4   5
ENDBRANCH   1   4
BRANCH   1   7
ATOM      7  C   UNL     1       9.442   1.051  23.569  0.00  0.00    +0.133 C 
BRANCH   7   8
ATOM      8  S   UNL     1      10.595   0.449  24.849  0.00  0.00    -0.009 S 
BRANCH   8   9
ATOM      9  O   UNL     1       9.494   0.001  26.011  0.00  0.00    -0.329 OA
ATOM     10  H   UNL     1       9.601   0.541  26.831  0.00  0.00    +0.227 HD
ENDBRANCH   8   9
ENDBRANCH   7   8
ENDBRANCH   1   7
TORSDOF 6
ENDMDL
MODEL 5
REMARK VINA RESULT:      -3.3      5.765      6.751
REMARK  Name = 
REMARK  6 active torsions:
REMARK  status: ('A' for Active; 'I' for Inactive)
REMARK    1  A    between atoms: O_1  and  C_2
REMARK    2  A    between atoms: C_2  and  C_3
REMARK    3  A    between atoms: C_3  and  O_5
REMARK    4  A    between atoms: C_3  and  C_6
REMARK    5  A    between atoms: C_6  and  S_7
REMARK    6  A    between atoms: S_7  and  O_8
REMARK                            x       y       z     vdW  Elec       q    Type
REMARK                         _______ _______ _______ _____ _____    ______ ____
ROOT
ATOM      1  C   UNL     1       7.190  -4.933  27.026  0.00  0.00    +0.152 C 
ENDROOT
BRANCH   1   2
ATOM      2  O   UNL     1       7.867  -6.035  27.657  0.00  0.00    -0.389 OA
ATOM      3  H   UNL     1       7.177  -6.468  28.202  0.00  0.00    +0.210 HD
ENDBRANCH   1   2
BRANCH   1   4
ATOM      4  C   UNL     1       6.248  -5.509  25.961  0.00  0.00    +0.188 C 
BRANCH   4   5
ATOM      5  O   UNL     1       5.614  -6.672  26.507  0.00  0.00    -0.392 OA
ATOM      6  H   UNL     1       6.103  -7.441  26.165  0.00  0.00    +0.210 HD
ENDBRANCH   4   5
ENDBRANCH   1   4
BRANCH   1   7
ATOM      7  C   UNL     1       8.237  -3.971  26.463  0.00  0.00    +0.133 C 
BRANCH   7   8
ATOM      8  S   UNL     1       9.094  -4.654  25.004  0.00  0.00    -0.009 S 
BRANCH   8   9
ATOM      9  O   UNL     1      10.193  -5.634  25.773  0.00  0.00    -0.329 OA
ATOM     10  H   UNL     1       9.979  -5.729  26.733  0.00  0.00    +0.227 HD
ENDBRANCH   8   9
ENDBRANCH   7   8
ENDBRANCH   1   7
TORSDOF 6
ENDMDL
MODEL 6
REMARK VINA RESULT:      -3.3      2.150      3.718
REMARK  Name = 
REMARK  6 active torsions:
REMARK  status: ('A' for Active; 'I' for Inactive)
REMARK    1  A    between atoms: O_1  and  C_2
REMARK    2  A    between atoms: C_2  and  C_3
REMARK    3  A    between atoms: C_3  and  O_5
REMARK    4  A    between atoms: C_3  and  C_6
REMARK    5  A    between atoms: C_6  and  S_7
REMARK    6  A    between atoms: S_7  and  O_8
REMARK                            x       y       z     vdW  Elec       q    Type
REMARK                         _______ _______ _______ _____ _____    ______ ____
ROOT
ATOM      1  C   UNL     1       9.587   1.098  23.629  0.00  0.00    +0.152 C 
ENDROOT
BRANCH   1   2
ATOM      2  O   UNL     1       8.340   0.713  23.021  0.00  0.00    -0.389 OA
ATOM      3  H   UNL     1       8.580   0.470  22.102  0.00  0.00    +0.210 HD
ENDBRANCH   1   2
BRANCH   1   4
ATOM      4  C   UNL     1      10.145   2.287  22.839  0.00  0.00    +0.188 C 
BRANCH   4   5
ATOM      5  O   UNL     1       9.873   2.070  21.449  0.00  0.00    -0.392 OA
ATOM      6  H   UNL     1       8.907   2.120  21.345  0.00  0.00    +0.210 HD
ENDBRANCH   4   5
ENDBRANCH   1   4
BRANCH   1   7
ATOM      7  C   UNL     1      10.518  -0.116  23.650  0.00  0.00    +0.133 C 
BRANCH   7   8
ATOM      8  S   UNL     1       9.839  -1.529  22.717  0.00  0.00    -0.009 S 
BRANCH   8   9
ATOM      9  O   UNL     1       9.876  -0.882  21.186  0.00  0.00    -0.329 OA
ATOM     10  H   UNL     1       9.658   0.082  21.200  0.00  0.00    +0.227 HD
ENDBRANCH   8   9
ENDBRANCH   7   8
ENDBRANCH   1   7
TORSDOF 6
ENDMDL
MODEL 7
REMARK VINA RESULT:      -3.3      4.842      5.605
REMARK  Name = 
REMARK  6 active torsions:
REMARK  status: ('A' for Active; 'I' for Inactive)
REMARK    1  A    between atoms: O_1  and  C_2
REMARK    2  A    between atoms: C_2  and  C_3
REMARK    3  A    between atoms: C_3  and  O_5
REMARK    4  A    between atoms: C_3  and  C_6
REMARK    5  A    between atoms: C_6  and  S_7
REMARK    6  A    between atoms: S_7  and  O_8
REMARK                            x       y       z     vdW  Elec       q    Type
REMARK                         _______ _______ _______ _____ _____    ______ ____
ROOT
ATOM      1  C   UNL     1       9.293  -4.697  26.092  0.00  0.00    +0.152 C 
ENDROOT
BRANCH   1   2
ATOM      2  O   UNL     1       9.710  -6.022  25.716  0.00  0.00    -0.389 OA
ATOM      3  H   UNL     1      10.617  -5.904  25.363  0.00  0.00    +0.210 HD
ENDBRANCH   1   2
BRANCH   1   4
ATOM      4  C   UNL     1       7.893  -4.803  26.707  0.00  0.00    +0.188 C 
BRANCH   4   5
ATOM      5  O   UNL     1       7.862  -5.961  27.550  0.00  0.00    -0.392 OA
ATOM      6  H   UNL     1       8.454  -6.617  27.143  0.00  0.00    +0.210 HD
ENDBRANCH   4   5
ENDBRANCH   1   4
BRANCH   1   7
ATOM      7  C   UNL     1       9.355  -3.795  24.858  0.00  0.00    +0.133 C 
BRANCH   7   8
ATOM      8  S   UNL     1       7.907  -4.011  23.767  0.00  0.00    -0.009 S 
BRANCH   8   9
ATOM      9  O   UNL     1       8.192  -5.564  23.249  0.00  0.00    -0.329 OA
ATOM     10  H   UNL     1       7.400  -5.940  22.793  0.00  0.00    +0.227 HD
ENDBRANCH   8   9
ENDBRANCH   7   8
ENDBRANCH   1   7
TORSDOF 6
ENDMDL
MODEL 8
REMARK VINA RESULT:      -3.3      3.360      3.720
REMARK  Name = 
REMARK  6 active torsions:
REMARK  status: ('A' for Active; 'I' for Inactive)
REMARK    1  A    between atoms: O_1  and  C_2
REMARK    2  A    between atoms: C_2  and  C_3
REMARK    3  A    between atoms: C_3  and  O_5
REMARK    4  A    between atoms: C_3  and  C_6
REMARK    5  A    between atoms: C_6  and  S_7
REMARK    6  A    between atoms: S_7  and  O_8
REMARK                            x       y       z     vdW  Elec       q    Type
REMARK                         _______ _______ _______ _____ _____    ______ ____
ROOT
ATOM      1  C   UNL     1      10.133   1.418  22.528  0.00  0.00    +0.152 C 
ENDROOT
BRANCH   1   2
ATOM      2  O   UNL     1      10.567   2.550  21.753  0.00  0.00    -0.389 OA
ATOM      3  H   UNL     1      11.433   2.277  21.384  0.00  0.00    +0.210 HD
ENDBRANCH   1   2
BRANCH   1   4
ATOM      4  C   UNL     1       9.359   0.480  21.594  0.00  0.00    +0.188 C 
BRANCH   4   5
ATOM      5  O   UNL     1       8.569   1.283  20.708  0.00  0.00    -0.392 OA
ATOM      6  H   UNL     1       8.633   0.870  19.829  0.00  0.00    +0.210 HD
ENDBRANCH   4   5
ENDBRANCH   1   4
BRANCH   1   7
ATOM      7  C   UNL     1       9.308   1.922  23.714  0.00  0.00    +0.133 C 
BRANCH   7   8
ATOM      8  S   UNL     1       9.004   3.719  23.634  0.00  0.00    -0.009 S 
BRANCH   8   9
ATOM      9  O   UNL     1       8.121   3.779  22.228  0.00  0.00    -0.329 OA
ATOM     10  H   UNL     1       7.584   4.607  22.178  0.00  0.00    +0.227 HD
ENDBRANCH   8   9
ENDBRANCH   7   8
ENDBRANCH   1   7
TORSDOF 6
ENDMDL
MODEL 9
REMARK VINA RESULT:      -3.3      6.006      7.147
REMARK  Name = 
REMARK  6 active torsions:
REMARK  status: ('A' for Active; 'I' for Inactive)
REMARK    1  A    between atoms: O_1  and  C_2
REMARK    2  A    between atoms: C_2  and  C_3
REMARK    3  A    between atoms: C_3  and  O_5
REMARK    4  A    between atoms: C_3  and  C_6
REMARK    5  A    between atoms: C_6  and  S_7
REMARK    6  A    between atoms: S_7  and  O_8
REMARK                            x       y       z     vdW  Elec       q    Type
REMARK                         _______ _______ _______ _____ _____    ______ ____
ROOT
ATOM      1  C   UNL     1       8.023  -5.483  26.151  0.00  0.00    +0.152 C 
ENDROOT
BRANCH   1   2
ATOM      2  O   UNL     1       7.934  -5.833  27.544  0.00  0.00    -0.389 OA
ATOM      3  H   UNL     1       7.672  -6.777  27.545  0.00  0.00    +0.210 HD
ENDBRANCH   1   2
BRANCH   1   4
ATOM      4  C   UNL     1       9.329  -4.706  25.945  0.00  0.00    +0.188 C 
BRANCH   4   5
ATOM      5  O   UNL     1      10.297  -5.599  25.379  0.00  0.00    -0.392 OA
ATOM      6  H   UNL     1      10.106  -5.645  24.426  0.00  0.00    +0.210 HD
ENDBRANCH   4   5
ENDBRANCH   1   4
BRANCH   1   7
ATOM      7  C   UNL     1       6.772  -4.695  25.762  0.00  0.00    +0.133 C 
BRANCH   7   8
ATOM      8  S   UNL     1       5.362  -5.782  25.363  0.00  0.00    -0.009 S 
BRANCH   8   9
ATOM      9  O   UNL     1       5.441  -6.812  26.665  0.00  0.00    -0.329 OA
ATOM     10  H   UNL     1       4.634  -7.378  26.723  0.00  0.00    +0.227 HD
ENDBRANCH   8   9
ENDBRANCH   7   8
ENDBRANCH   1   7
TORSDOF 6
ENDMDL
