MODEL 1
REMARK VINA RESULT:      -5.0      0.000      0.000
REMARK  Name = 
REMARK  5 active torsions:
REMARK  status: ('A' for Active; 'I' for Inactive)
REMARK    1  A    between atoms: O_1  and  C_2
REMARK    2  A    between atoms: C_2  and  C_3
REMARK    3  A    between atoms: C_5  and  O_7
REMARK    4  A    between atoms: C_8  and  O_10
REMARK    5  A    between atoms: C_11  and  O_13
REMARK                            x       y       z     vdW  Elec       q    Type
REMARK                         _______ _______ _______ _____ _____    ______ ____
ROOT
ATOM      1  C   UNL     1       8.298  -4.664  24.075  0.00  0.00    +0.167 C 
ATOM      2  N   UNL     1       7.014  -5.154  24.530  0.00  0.00    -0.219 N 
ATOM      3  C   UNL     1       6.586  -5.286  25.818  0.00  0.00    +0.183 A 
ATOM      4  N   UNL     1       5.364  -5.776  25.787  0.00  0.00    -0.111 NA
ATOM      5  N   UNL     1       5.060  -5.955  24.455  0.00  0.00    -0.023 NA
ATOM      6  C   UNL     1       7.433  -4.896  26.974  0.00  0.00    +0.214 C 
ATOM      7  C   UNL     1       8.568  -3.940  26.532  0.00  0.00    +0.181 C 
ATOM      8  N   UNL     1       6.070  -5.580  23.681  0.00  0.00    -0.043 NA
ATOM      9  C   UNL     1       9.274  -4.479  25.264  0.00  0.00    +0.173 C 
ENDROOT
BRANCH   6  10
ATOM     10  O   UNL     1       7.975  -6.094  27.536  0.00  0.00    -0.381 OA
ATOM     11  H   UNL     1       7.950  -6.783  26.843  0.00  0.00    +0.210 HD
ENDBRANCH   6  10
BRANCH   7  12
ATOM     12  O   UNL     1       8.058  -2.629  26.289  0.00  0.00    -0.386 OA
ATOM     13  H   UNL     1       7.739  -2.274  27.139  0.00  0.00    +0.210 HD
ENDBRANCH   7  12
BRANCH   9  14
ATOM     14  O   UNL     1       9.884  -5.742  25.592  0.00  0.00    -0.387 OA
ATOM     15  H   UNL     1       9.376  -6.438  25.131  0.00  0.00    +0.210 HD
ENDBRANCH   9  14
BRANCH   1  16
ATOM     16  C   UNL     1       8.141  -3.391  23.237  0.00  0.00    +0.185 C 
BRANCH  16  17
ATOM     17  O   UNL     1       6.922  -2.738  23.590  0.00  0.00    -0.393 OA
ATOM     18  H   UNL     1       6.434  -2.576  22.762  0.00  0.00    +0.209 HD
ENDBRANCH  16  17
ENDBRANCH   1  16
TORSDOF 5
ENDMDL
MODEL 2
REMARK VINA RESULT:      -5.0      1.785      2.515
REMARK  Name = 
REMARK  5 active torsions:
REMARK  status: ('A' for Active; 'I' for Inactive)
REMARK    1  A    between atoms: O_1  and  C_2
REMARK    2  A    between atoms: C_2  and  C_3
REMARK    3  A    between atoms: C_5  and  O_7
REMARK    4  A    between atoms: C_8  and  O_10
REMARK    5  A    between atoms: C_11  and  O_13
REMARK                            x       y       z     vdW  Elec       q    Type
REMARK                         _______ _______ _______ _____ _____    ______ ____
ROOT
ATOM      1  C   UNL     1       6.357  -5.212  24.278  0.00  0.00    +0.167 C 
ATOM      2  N   UNL     1       6.680  -5.544  25.650  0.00  0.00    -0.219 N 
ATOM      3  C   UNL     1       7.865  -5.346  26.294  0.00  0.00    +0.183 A 
ATOM      4  N   UNL     1       7.734  -5.798  27.524  0.00  0.00    -0.111 NA
ATOM      5  N   UNL     1       6.450  -6.290  27.614  0.00  0.00    -0.023 NA
ATOM      6  C   UNL     1       9.028  -4.707  25.627  0.00  0.00    +0.214 C 
ATOM      7  C   UNL     1       8.581  -3.916  24.373  0.00  0.00    +0.181 C 
ATOM      8  N   UNL     1       5.801  -6.141  26.467  0.00  0.00    -0.043 NA
ATOM      9  C   UNL     1       7.622  -4.766  23.503  0.00  0.00    +0.173 C 
ENDROOT
BRANCH   6  10
ATOM     10  O   UNL     1       9.945  -5.744  25.268  0.00  0.00    -0.381 OA
ATOM     11  H   UNL     1      10.065  -5.708  24.299  0.00  0.00    +0.210 HD
ENDBRANCH   6  10
BRANCH   7  12
ATOM     12  O   UNL     1       7.949  -2.692  24.746  0.00  0.00    -0.386 OA
ATOM     13  H   UNL     1       8.547  -2.225  25.357  0.00  0.00    +0.210 HD
ENDBRANCH   7  12
BRANCH   9  14
ATOM     14  O   UNL     1       8.343  -5.925  23.043  0.00  0.00    -0.387 OA
ATOM     15  H   UNL     1       7.921  -6.219  22.211  0.00  0.00    +0.210 HD
ENDBRANCH   9  14
BRANCH   1  16
ATOM     16  C   UNL     1       5.229  -4.179  24.208  0.00  0.00    +0.185 C 
BRANCH  16  17
ATOM     17  O   UNL     1       5.199  -3.424  25.419  0.00  0.00    -0.393 OA
ATOM     18  H   UNL     1       5.737  -2.625  25.271  0.00  0.00    +0.209 HD
ENDBRANCH  16  17
ENDBRANCH   1  16
TORSDOF 5
ENDMDL
MODEL 3
REMARK VINA RESULT:      -5.0      1.716      3.347
REMARK  Name = 
REMARK  5 active torsions:
REMARK  status: ('A' for Active; 'I' for Inactive)
REMARK    1  A    between atoms: O_1  and  C_2
REMARK    2  A    between atoms: C_2  and  C_3
REMARK    3  A    between atoms: C_5  and  O_7
REMARK    4  A    between atoms: C_8  and  O_10
REMARK    5  A    between atoms: C_11  and  O_13
REMARK                            x       y       z     vdW  Elec       q    Type
REMARK                         _______ _______ _______ _____ _____    ______ ____
ROOT
ATOM      1  C   UNL     1       8.462  -4.174  25.707  0.00  0.00    +0.167 C 
ATOM      2  N   UNL     1       7.484  -5.097  26.244  0.00  0.00    -0.219 N 
ATOM      3  C   UNL     1       6.363  -5.569  25.627  0.00  0.00    +0.183 A 
ATOM      4  N   UNL     1       5.751  -6.375  26.470  0.00  0.00    -0.111 NA
ATOM      5  N   UNL     1       6.511  -6.373  27.619  0.00  0.00    -0.023 NA
ATOM      6  C   UNL     1       6.007  -5.185  24.238  0.00  0.00    +0.214 C 
ATOM      7  C   UNL     1       7.238  -4.622  23.485  0.00  0.00    +0.181 C 
ATOM      8  N   UNL     1       7.572  -5.587  27.487  0.00  0.00    -0.043 NA
ATOM      9  C   UNL     1       7.983  -3.582  24.357  0.00  0.00    +0.173 C 
ENDROOT
BRANCH   6  10
ATOM     10  O   UNL     1       4.970  -4.202  24.314  0.00  0.00    -0.381 OA
ATOM     11  H   UNL     1       4.223  -4.600  24.802  0.00  0.00    +0.210 HD
ENDBRANCH   6  10
BRANCH   7  12
ATOM     12  O   UNL     1       8.126  -5.675  23.111  0.00  0.00    -0.386 OA
ATOM     13  H   UNL     1       7.984  -5.858  22.165  0.00  0.00    +0.210 HD
ENDBRANCH   7  12
BRANCH   9  14
ATOM     14  O   UNL     1       7.090  -2.479  24.601  0.00  0.00    -0.387 OA
ATOM     15  H   UNL     1       7.069  -2.330  25.567  0.00  0.00    +0.210 HD
ENDBRANCH   9  14
BRANCH   1  16
ATOM     16  C   UNL     1       9.844  -4.826  25.606  0.00  0.00    +0.185 C 
BRANCH  16  17
ATOM     17  O   UNL     1       9.696  -6.243  25.526  0.00  0.00    -0.393 OA
ATOM     18  H   UNL     1       9.240  -6.436  24.686  0.00  0.00    +0.209 HD
ENDBRANCH  16  17
ENDBRANCH   1  16
TORSDOF 5
ENDMDL
MODEL 4
REMARK VINA RESULT:      -4.8      3.752      4.607
REMARK  Name = 
REMARK  5 active torsions:
REMARK  status: ('A' for Active; 'I' for Inactive)
REMARK    1  A    between atoms: O_1  and  C_2
REMARK    2  A    between atoms: C_2  and  C_3
REMARK    3  A    between atoms: C_5  and  O_7
REMARK    4  A    between atoms: C_8  and  O_10
REMARK    5  A    between atoms: C_11  and  O_13
REMARK                            x       y       z     vdW  Elec       q    Type
REMARK                         _______ _______ _______ _____ _____    ______ ____
ROOT
ATOM      1  C   UNL     1      10.214  -0.744  23.423  0.00  0.00    +0.167 C 
ATOM      2  N   UNL     1       9.758  -1.933  24.112  0.00  0.00    -0.219 N 
ATOM      3  C   UNL     1       8.909  -2.000  25.177  0.00  0.00    +0.183 A 
ATOM      4  N   UNL     1       8.768  -3.269  25.499  0.00  0.00    -0.111 NA
ATOM      5  N   UNL     1       9.560  -3.975  24.620  0.00  0.00    -0.023 NA
ATOM      6  C   UNL     1       8.297  -0.786  25.774  0.00  0.00    +0.214 C 
ATOM      7  C   UNL     1       8.361   0.409  24.791  0.00  0.00    +0.181 C 
ATOM      8  N   UNL     1      10.173  -3.160  23.771  0.00  0.00    -0.043 NA
ATOM      9  C   UNL     1       9.777   0.537  24.177  0.00  0.00    +0.173 C 
ENDROOT
BRANCH   6  10
ATOM     10  O   UNL     1       9.013  -0.487  26.976  0.00  0.00    -0.381 OA
ATOM     11  H   UNL     1       8.878  -1.233  27.592  0.00  0.00    +0.210 HD
ENDBRANCH   6  10
BRANCH   7  12
ATOM     12  O   UNL     1       7.389   0.262  23.755  0.00  0.00    -0.386 OA
ATOM     13  H   UNL     1       6.747  -0.411  24.046  0.00  0.00    +0.210 HD
ENDBRANCH   7  12
BRANCH   9  14
ATOM     14  O   UNL     1      10.705   0.811  25.244  0.00  0.00    -0.387 OA
ATOM     15  H   UNL     1      11.191   1.625  25.004  0.00  0.00    +0.210 HD
ENDBRANCH   9  14
BRANCH   1  16
ATOM     16  C   UNL     1       9.766  -0.746  21.958  0.00  0.00    +0.185 C 
BRANCH  16  17
ATOM     17  O   UNL     1       8.659  -1.634  21.801  0.00  0.00    -0.393 OA
ATOM     18  H   UNL     1       8.733  -2.030  20.913  0.00  0.00    +0.209 HD
ENDBRANCH  16  17
ENDBRANCH   1  16
TORSDOF 5
ENDMDL
MODEL 5
REMARK VINA RESULT:      -4.8      4.840      6.436
REMARK  Name = 
REMARK  5 active torsions:
REMARK  status: ('A' for Active; 'I' for Inactive)
REMARK    1  A    between atoms: O_1  and  C_2
REMARK    2  A    between atoms: C_2  and  C_3
REMARK    3  A    between atoms: C_5  and  O_7
REMARK    4  A    between atoms: C_8  and  O_10
REMARK    5  A    between atoms: C_11  and  O_13
REMARK                            x       y       z     vdW  Elec       q    Type
REMARK                         _______ _______ _______ _____ _____    ______ ____
ROOT
ATOM      1  C   UNL     1       8.029  -0.106  24.361  0.00  0.00    +0.167 C 
ATOM      2  N   UNL     1       9.025  -0.908  23.682  0.00  0.00    -0.219 N 
ATOM      3  C   UNL     1       9.839  -0.527  22.656  0.00  0.00    +0.183 A 
ATOM      4  N   UNL     1      10.585  -1.562  22.330  0.00  0.00    -0.111 NA
ATOM      5  N   UNL     1      10.200  -2.587  23.165  0.00  0.00    -0.023 NA
ATOM      6  C   UNL     1       9.811   0.849  22.098  0.00  0.00    +0.214 C 
ATOM      7  C   UNL     1       9.145   1.836  23.088  0.00  0.00    +0.181 C 
ATOM      8  N   UNL     1       9.241  -2.193  23.993  0.00  0.00    -0.043 NA
ATOM      9  C   UNL     1       7.822   1.249  23.638  0.00  0.00    +0.173 C 
ENDROOT
BRANCH   6  10
ATOM     10  O   UNL     1       9.083   0.802  20.868  0.00  0.00    -0.381 OA
ATOM     11  H   UNL     1       8.536  -0.008  20.880  0.00  0.00    +0.210 HD
ENDBRANCH   6  10
BRANCH   7  12
ATOM     12  O   UNL     1      10.030   2.144  24.165  0.00  0.00    -0.386 OA
ATOM     13  H   UNL     1       9.731   2.983  24.562  0.00  0.00    +0.210 HD
ENDBRANCH   7  12
BRANCH   9  14
ATOM     14  O   UNL     1       6.915   1.075  22.533  0.00  0.00    -0.387 OA
ATOM     15  H   UNL     1       6.007   1.101  22.895  0.00  0.00    +0.210 HD
ENDBRANCH   9  14
BRANCH   1  16
ATOM     16  C   UNL     1       8.370   0.064  25.844  0.00  0.00    +0.185 C 
BRANCH  16  17
ATOM     17  O   UNL     1       9.785  -0.011  26.018  0.00  0.00    -0.393 OA
ATOM     18  H   UNL     1      10.004  -0.946  26.183  0.00  0.00    +0.209 HD
ENDBRANCH  16  17
ENDBRANCH   1  16
TORSDOF 5
ENDMDL
MODEL 6
REMARK VINA RESULT:      -4.8      5.220      6.097
REMARK  Name = 
REMARK  5 active torsions:
REMARK  status: ('A' for Active; 'I' for Inactive)
REMARK    1  A    between atoms: O_1  and  C_2
REMARK    2  A    between atoms: C_2  and  C_3
REMARK    3  A    between atoms: C_5  and  O_7
REMARK    4  A    between atoms: C_8  and  O_10
REMARK    5  A    between atoms: C_11  and  O_13
REMARK                            x       y       z     vdW  Elec       q    Type
REMARK                         _______ _______ _______ _____ _____    ______ ____
ROOT
ATOM      1  C   UNL     1       9.949  -0.642  23.469  0.00  0.00    +0.167 C 
ATOM      2  N   UNL     1       8.530  -0.359  23.524  0.00  0.00    -0.219 N 
ATOM      3  C   UNL     1       7.932   0.855  23.689  0.00  0.00    +0.183 A 
ATOM      4  N   UNL     1       6.629   0.664  23.691  0.00  0.00    -0.111 NA
ATOM      5  N   UNL     1       6.443  -0.692  23.539  0.00  0.00    -0.023 NA
ATOM      6  C   UNL     1       8.717   2.109  23.817  0.00  0.00    +0.214 C 
ATOM      7  C   UNL     1      10.158   1.919  23.282  0.00  0.00    +0.181 C 
ATOM      8  N   UNL     1       7.605  -1.325  23.441  0.00  0.00    -0.043 NA
ATOM      9  C   UNL     1      10.779   0.614  23.838  0.00  0.00    +0.173 C 
ENDROOT
BRANCH   6  10
ATOM     10  O   UNL     1       8.738   2.467  25.202  0.00  0.00    -0.381 OA
ATOM     11  H   UNL     1       7.844   2.783  25.438  0.00  0.00    +0.210 HD
ENDBRANCH   6  10
BRANCH   7  12
ATOM     12  O   UNL     1      10.168   1.898  21.855  0.00  0.00    -0.386 OA
ATOM     13  H   UNL     1       9.317   2.261  21.549  0.00  0.00    +0.210 HD
ENDBRANCH   7  12
BRANCH   9  14
ATOM     14  O   UNL     1      10.868   0.733  25.270  0.00  0.00    -0.387 OA
ATOM     15  H   UNL     1      11.797   0.561  25.519  0.00  0.00    +0.210 HD
ENDBRANCH   9  14
BRANCH   1  16
ATOM     16  C   UNL     1      10.345  -1.233  22.113  0.00  0.00    +0.185 C 
BRANCH  16  17
ATOM     17  O   UNL     1       9.443  -0.767  21.110  0.00  0.00    -0.393 OA
ATOM     18  H   UNL     1       9.343  -1.486  20.459  0.00  0.00    +0.209 HD
ENDBRANCH  16  17
ENDBRANCH   1  16
TORSDOF 5
ENDMDL
MODEL 7
REMARK VINA RESULT:      -4.8      5.072      6.305
REMARK  Name = 
REMARK  5 active torsions:
REMARK  status: ('A' for Active; 'I' for Inactive)
REMARK    1  A    between atoms: O_1  and  C_2
REMARK    2  A    between atoms: C_2  and  C_3
REMARK    3  A    between atoms: C_5  and  O_7
REMARK    4  A    between atoms: C_8  and  O_10
REMARK    5  A    between atoms: C_11  and  O_13
REMARK                            x       y       z     vdW  Elec       q    Type
REMARK                         _______ _______ _______ _____ _____    ______ ____
ROOT
ATOM      1  C   UNL     1       8.422   1.910  23.547  0.00  0.00    +0.167 C 
ATOM      2  N   UNL     1       7.834   0.587  23.510  0.00  0.00    -0.219 N 
ATOM      3  C   UNL     1       8.447  -0.583  23.171  0.00  0.00    +0.183 A 
ATOM      4  N   UNL     1       7.552  -1.546  23.261  0.00  0.00    -0.111 NA
ATOM      5  N   UNL     1       6.377  -0.938  23.646  0.00  0.00    -0.023 NA
ATOM      6  C   UNL     1       9.883  -0.642  22.799  0.00  0.00    +0.214 C 
ATOM      7  C   UNL     1      10.636   0.618  23.292  0.00  0.00    +0.181 C 
ATOM      8  N   UNL     1       6.543   0.370  23.795  0.00  0.00    -0.043 NA
ATOM      9  C   UNL     1       9.846   1.901  22.936  0.00  0.00    +0.173 C 
ENDROOT
BRANCH   6  10
ATOM     10  O   UNL     1       9.957  -0.747  21.374  0.00  0.00    -0.381 OA
ATOM     11  H   UNL     1       9.685  -1.653  21.132  0.00  0.00    +0.210 HD
ENDBRANCH   6  10
BRANCH   7  12
ATOM     12  O   UNL     1      10.857   0.554  24.701  0.00  0.00    -0.386 OA
ATOM     13  H   UNL     1       9.999   0.380  25.128  0.00  0.00    +0.210 HD
ENDBRANCH   7  12
BRANCH   9  14
ATOM     14  O   UNL     1       9.759   1.990  21.501  0.00  0.00    -0.387 OA
ATOM     15  H   UNL     1      10.650   2.216  21.169  0.00  0.00    +0.210 HD
ENDBRANCH   9  14
BRANCH   1  16
ATOM     16  C   UNL     1       8.392   2.491  24.963  0.00  0.00    +0.185 C 
BRANCH  16  17
ATOM     17  O   UNL     1       8.359   1.426  25.913  0.00  0.00    -0.393 OA
ATOM     18  H   UNL     1       8.425   0.593  25.411  0.00  0.00    +0.209 HD
ENDBRANCH  16  17
ENDBRANCH   1  16
TORSDOF 5
ENDMDL
MODEL 8
REMARK VINA RESULT:      -4.8      1.398      3.098
REMARK  Name = 
REMARK  5 active torsions:
REMARK  status: ('A' for Active; 'I' for Inactive)
REMARK    1  A    between atoms: O_1  and  C_2
REMARK    2  A    between atoms: C_2  and  C_3
REMARK    3  A    between atoms: C_5  and  O_7
REMARK    4  A    between atoms: C_8  and  O_10
REMARK    5  A    between atoms: C_11  and  O_13
REMARK                            x       y       z     vdW  Elec       q    Type
REMARK                         _______ _______ _______ _____ _____    ______ ____
ROOT
ATOM      1  C   UNL     1       6.299  -4.152  25.611  0.00  0.00    +0.167 C 
ATOM      2  N   UNL     1       6.740  -4.816  24.403  0.00  0.00    -0.219 N 
ATOM      3  C   UNL     1       8.017  -5.145  24.056  0.00  0.00    +0.183 A 
ATOM      4  N   UNL     1       7.975  -5.726  22.875  0.00  0.00    -0.111 NA
ATOM      5  N   UNL     1       6.650  -5.731  22.500  0.00  0.00    -0.023 NA
ATOM      6  C   UNL     1       9.173  -4.862  24.945  0.00  0.00    +0.214 C 
ATOM      7  C   UNL     1       8.706  -4.620  26.401  0.00  0.00    +0.181 C 
ATOM      8  N   UNL     1       5.889  -5.171  23.431  0.00  0.00    -0.043 NA
ATOM      9  C   UNL     1       7.507  -3.640  26.435  0.00  0.00    +0.173 C 
ENDROOT
BRANCH   6  10
ATOM     10  O   UNL     1       9.841  -3.706  24.431  0.00  0.00    -0.381 OA
ATOM     11  H   UNL     1       9.432  -2.922  24.847  0.00  0.00    +0.210 HD
ENDBRANCH   6  10
BRANCH   7  12
ATOM     12  O   UNL     1       8.350  -5.852  27.029  0.00  0.00    -0.386 OA
ATOM     13  H   UNL     1       8.372  -6.547  26.347  0.00  0.00    +0.210 HD
ENDBRANCH   7  12
BRANCH   9  14
ATOM     14  O   UNL     1       7.949  -2.373  25.912  0.00  0.00    -0.387 OA
ATOM     15  H   UNL     1       8.715  -2.549  25.331  0.00  0.00    +0.210 HD
ENDBRANCH   9  14
BRANCH   1  16
ATOM     16  C   UNL     1       5.367  -5.050  26.430  0.00  0.00    +0.185 C 
BRANCH  16  17
ATOM     17  O   UNL     1       5.710  -6.418  26.207  0.00  0.00    -0.393 OA
ATOM     18  H   UNL     1       6.435  -6.429  25.557  0.00  0.00    +0.209 HD
ENDBRANCH  16  17
ENDBRANCH   1  16
TORSDOF 5
ENDMDL
MODEL 9
REMARK VINA RESULT:      -4.7      4.466      5.426
REMARK  Name = 
REMARK  5 active torsions:
REMARK  status: ('A' for Active; 'I' for Inactive)
REMARK    1  A    between atoms: O_1  and  C_2
REMARK    2  A    between atoms: C_2  and  C_3
REMARK    3  A    between atoms: C_5  and  O_7
REMARK    4  A    between atoms: C_8  and  O_10
REMARK    5  A    between atoms: C_11  and  O_13
REMARK                            x       y       z     vdW  Elec       q    Type
REMARK                         _______ _______ _______ _____ _____    ______ ____
ROOT
ATOM      1  C   UNL     1       8.679   0.371  22.012  0.00  0.00    +0.167 C 
ATOM      2  N   UNL     1       7.874  -0.091  23.124  0.00  0.00    -0.219 N 
ATOM      3  C   UNL     1       8.285  -0.831  24.194  0.00  0.00    +0.183 A 
ATOM      4  N   UNL     1       7.237  -1.039  24.963  0.00  0.00    -0.111 NA
ATOM      5  N   UNL     1       6.175  -0.425  24.336  0.00  0.00    -0.023 NA
ATOM      6  C   UNL     1       9.698  -1.256  24.362  0.00  0.00    +0.214 C 
ATOM      7  C   UNL     1      10.644  -0.393  23.492  0.00  0.00    +0.181 C 
ATOM      8  N   UNL     1       6.560   0.154  23.206  0.00  0.00    -0.043 NA
ATOM      9  C   UNL     1      10.093  -0.261  22.051  0.00  0.00    +0.173 C 
ENDROOT
BRANCH   6  10
ATOM     10  O   UNL     1       9.783  -2.633  23.985  0.00  0.00    -0.381 OA
ATOM     11  H   UNL     1      10.691  -2.794  23.661  0.00  0.00    +0.210 HD
ENDBRANCH   6  10
BRANCH   7  12
ATOM     12  O   UNL     1      10.821   0.901  24.069  0.00  0.00    -0.386 OA
ATOM     13  H   UNL     1      11.625   0.871  24.619  0.00  0.00    +0.210 HD
ENDBRANCH   7  12
BRANCH   9  14
ATOM     14  O   UNL     1      10.053  -1.575  21.463  0.00  0.00    -0.387 OA
ATOM     15  H   UNL     1      10.965  -1.802  21.196  0.00  0.00    +0.210 HD
ENDBRANCH   9  14
BRANCH   1  16
ATOM     16  C   UNL     1       8.718   1.901  21.953  0.00  0.00    +0.185 C 
BRANCH  16  17
ATOM     17  O   UNL     1      10.012   2.326  21.524  0.00  0.00    -0.393 OA
ATOM     18  H   UNL     1       9.934   2.575  20.584  0.00  0.00    +0.209 HD
ENDBRANCH  16  17
ENDBRANCH   1  16
TORSDOF 5
ENDMDL
