MODEL 1
REMARK VINA RESULT:      -5.0      0.000      0.000
REMARK  Name = 
REMARK  5 active torsions:
REMARK  status: ('A' for Active; 'I' for Inactive)
REMARK    1  A    between atoms: C_1  and  C_2
REMARK    2  A    between atoms: C_2  and  O_3
REMARK    3  A    between atoms: C_2  and  C_4
REMARK    4  A    between atoms: C_2  and  C_7
REMARK    5  A    between atoms: C_4  and  O_5
REMARK                            x       y       z     vdW  Elec       q    Type
REMARK                         _______ _______ _______ _____ _____    ______ ____
ROOT
ATOM      1  C   UNL     1       8.004  -2.889  25.418  0.00  0.00    +0.059 C 
ATOM      2  C   UNL     1       8.643  -4.026  24.619  0.00  0.00    +0.184 C 
ENDROOT
BRANCH   2   3
ATOM      3  C   UNL     1       7.781  -4.382  23.412  0.00  0.00    -0.006 A 
ATOM      4  C   UNL     1       7.744  -5.692  22.901  0.00  0.00    +0.007 A 
ATOM      5  C   UNL     1       6.920  -6.016  21.820  0.00  0.00    +0.000 A 
ATOM      6  C   UNL     1       6.109  -5.045  21.241  0.00  0.00    +0.000 A 
ATOM      7  C   UNL     1       6.121  -3.746  21.740  0.00  0.00    +0.000 A 
ATOM      8  C   UNL     1       6.948  -3.417  22.817  0.00  0.00    +0.007 A 
ENDBRANCH   2   3
BRANCH   2   9
ATOM      9  C   UNL     1       8.931  -5.242  25.530  0.00  0.00    +0.341 C 
ATOM     10  O   UNL     1       8.144  -5.756  26.309  0.00  0.00    -0.247 OA
BRANCH   9  11
ATOM     11  O   UNL     1      10.208  -5.695  25.374  0.00  0.00    -0.478 OA
ATOM     12  H   UNL     1      10.405  -6.315  26.115  0.00  0.00    +0.295 HD
ENDBRANCH   9  11
ENDBRANCH   2   9
BRANCH   2  13
ATOM     13  O   UNL     1       9.946  -3.599  24.152  0.00  0.00    -0.373 OA
ATOM     14  H   UNL     1      10.054  -3.956  23.249  0.00  0.00    +0.211 HD
ENDBRANCH   2  13
TORSDOF 4
ENDMDL
MODEL 2
REMARK VINA RESULT:      -4.8      4.292      5.839
REMARK  Name = 
REMARK  5 active torsions:
REMARK  status: ('A' for Active; 'I' for Inactive)
REMARK    1  A    between atoms: C_1  and  C_2
REMARK    2  A    between atoms: C_2  and  O_3
REMARK    3  A    between atoms: C_2  and  C_4
REMARK    4  A    between atoms: C_2  and  C_7
REMARK    5  A    between atoms: C_4  and  O_5
REMARK                            x       y       z     vdW  Elec       q    Type
REMARK                         _______ _______ _______ _____ _____    ______ ____
ROOT
ATOM      1  C   UNL     1       9.928  -2.472  23.791  0.00  0.00    +0.059 C 
ATOM      2  C   UNL     1       9.313  -1.586  22.705  0.00  0.00    +0.184 C 
ENDROOT
BRANCH   2   3
ATOM      3  C   UNL     1       9.662  -0.122  22.949  0.00  0.00    -0.006 A 
ATOM      4  C   UNL     1       9.948   0.357  24.240  0.00  0.00    +0.007 A 
ATOM      5  C   UNL     1      10.307   1.691  24.446  0.00  0.00    +0.000 A 
ATOM      6  C   UNL     1      10.401   2.567  23.368  0.00  0.00    +0.000 A 
ATOM      7  C   UNL     1      10.135   2.110  22.081  0.00  0.00    +0.000 A 
ATOM      8  C   UNL     1       9.770   0.777  21.872  0.00  0.00    +0.007 A 
ENDBRANCH   2   3
BRANCH   2   9
ATOM      9  C   UNL     1       7.790  -1.830  22.596  0.00  0.00    +0.341 C 
ATOM     10  O   UNL     1       6.914  -1.031  22.886  0.00  0.00    -0.247 OA
BRANCH   9  11
ATOM     11  O   UNL     1       7.514  -3.082  22.131  0.00  0.00    -0.478 OA
ATOM     12  H   UNL     1       8.136  -3.713  22.563  0.00  0.00    +0.295 HD
ENDBRANCH   9  11
ENDBRANCH   2   9
BRANCH   2  13
ATOM     13  O   UNL     1       9.843  -1.984  21.417  0.00  0.00    -0.373 OA
ATOM     14  H   UNL     1      10.668  -1.479  21.282  0.00  0.00    +0.211 HD
ENDBRANCH   2  13
TORSDOF 4
ENDMDL
MODEL 3
REMARK VINA RESULT:      -4.8      6.966      8.828
REMARK  Name = 
REMARK  5 active torsions:
REMARK  status: ('A' for Active; 'I' for Inactive)
REMARK    1  A    between atoms: C_1  and  C_2
REMARK    2  A    between atoms: C_2  and  O_3
REMARK    3  A    between atoms: C_2  and  C_4
REMARK    4  A    between atoms: C_2  and  C_7
REMARK    5  A    between atoms: C_4  and  O_5
REMARK                            x       y       z     vdW  Elec       q    Type
REMARK                         _______ _______ _______ _____ _____    ______ ____
ROOT
ATOM      1  C   UNL     1       8.706   1.577  24.473  0.00  0.00    +0.059 C 
ATOM      2  C   UNL     1       9.962   1.837  23.638  0.00  0.00    +0.184 C 
ENDROOT
BRANCH   2   3
ATOM      3  C   UNL     1      10.320   3.320  23.658  0.00  0.00    -0.006 A 
ATOM      4  C   UNL     1       9.386   4.293  24.057  0.00  0.00    +0.007 A 
ATOM      5  C   UNL     1       9.736   5.643  24.110  0.00  0.00    +0.000 A 
ATOM      6  C   UNL     1      11.028   6.046  23.783  0.00  0.00    +0.000 A 
ATOM      7  C   UNL     1      11.971   5.098  23.399  0.00  0.00    +0.000 A 
ATOM      8  C   UNL     1      11.621   3.747  23.338  0.00  0.00    +0.007 A 
ENDBRANCH   2   3
BRANCH   2   9
ATOM      9  C   UNL     1       9.794   1.279  22.206  0.00  0.00    +0.341 C 
ATOM     10  O   UNL     1      10.105   0.159  21.833  0.00  0.00    -0.247 OA
BRANCH   9  11
ATOM     11  O   UNL     1       9.250   2.206  21.367  0.00  0.00    -0.478 OA
ATOM     12  H   UNL     1       8.464   1.800  20.931  0.00  0.00    +0.295 HD
ENDBRANCH   9  11
ENDBRANCH   2   9
BRANCH   2  13
ATOM     13  O   UNL     1      11.064   1.084  24.200  0.00  0.00    -0.373 OA
ATOM     14  H   UNL     1      11.775   1.725  24.393  0.00  0.00    +0.211 HD
ENDBRANCH   2  13
TORSDOF 4
ENDMDL
MODEL 4
REMARK VINA RESULT:      -4.7      6.646      8.178
REMARK  Name = 
REMARK  5 active torsions:
REMARK  status: ('A' for Active; 'I' for Inactive)
REMARK    1  A    between atoms: C_1  and  C_2
REMARK    2  A    between atoms: C_2  and  O_3
REMARK    3  A    between atoms: C_2  and  C_4
REMARK    4  A    between atoms: C_2  and  C_7
REMARK    5  A    between atoms: C_4  and  O_5
REMARK                            x       y       z     vdW  Elec       q    Type
REMARK                         _______ _______ _______ _____ _____    ______ ____
ROOT
ATOM      1  C   UNL     1       8.709   3.936  24.900  0.00  0.00    +0.059 C 
ATOM      2  C   UNL     1       9.393   3.685  23.554  0.00  0.00    +0.184 C 
ENDROOT
BRANCH   2   3
ATOM      3  C   UNL     1       9.672   2.198  23.363  0.00  0.00    -0.006 A 
ATOM      4  C   UNL     1       9.637   1.605  22.089  0.00  0.00    +0.007 A 
ATOM      5  C   UNL     1       9.935   0.250  21.920  0.00  0.00    +0.000 A 
ATOM      6  C   UNL     1      10.286  -0.532  23.017  0.00  0.00    +0.000 A 
ATOM      7  C   UNL     1      10.339   0.039  24.285  0.00  0.00    +0.000 A 
ATOM      8  C   UNL     1      10.036   1.392  24.457  0.00  0.00    +0.007 A 
ENDBRANCH   2   3
BRANCH   2   9
ATOM      9  C   UNL     1      10.662   4.557  23.412  0.00  0.00    +0.341 C 
ATOM     10  O   UNL     1      11.815   4.162  23.489  0.00  0.00    -0.247 OA
BRANCH   9  11
ATOM     11  O   UNL     1      10.350   5.866  23.191  0.00  0.00    -0.478 OA
ATOM     12  H   UNL     1      11.186   6.351  22.999  0.00  0.00    +0.295 HD
ENDBRANCH   9  11
ENDBRANCH   2   9
BRANCH   2  13
ATOM     13  O   UNL     1       8.517   4.135  22.491  0.00  0.00    -0.373 OA
ATOM     14  H   UNL     1       7.686   4.425  22.913  0.00  0.00    +0.211 HD
ENDBRANCH   2  13
TORSDOF 4
ENDMDL
MODEL 5
REMARK VINA RESULT:      -4.6      7.011      8.789
REMARK  Name = 
REMARK  5 active torsions:
REMARK  status: ('A' for Active; 'I' for Inactive)
REMARK    1  A    between atoms: C_1  and  C_2
REMARK    2  A    between atoms: C_2  and  O_3
REMARK    3  A    between atoms: C_2  and  C_4
REMARK    4  A    between atoms: C_2  and  C_7
REMARK    5  A    between atoms: C_4  and  O_5
REMARK                            x       y       z     vdW  Elec       q    Type
REMARK                         _______ _______ _______ _____ _____    ______ ____
ROOT
ATOM      1  C   UNL     1       9.985   1.512  22.056  0.00  0.00    +0.059 C 
ATOM      2  C   UNL     1       9.596   2.082  23.421  0.00  0.00    +0.184 C 
ENDROOT
BRANCH   2   3
ATOM      3  C   UNL     1      10.149   3.493  23.590  0.00  0.00    -0.006 A 
ATOM      4  C   UNL     1       9.368   4.525  24.141  0.00  0.00    +0.007 A 
ATOM      5  C   UNL     1       9.897   5.803  24.328  0.00  0.00    +0.000 A 
ATOM      6  C   UNL     1      11.219   6.072  23.984  0.00  0.00    +0.000 A 
ATOM      7  C   UNL     1      12.014   5.062  23.450  0.00  0.00    +0.000 A 
ATOM      8  C   UNL     1      11.484   3.784  23.256  0.00  0.00    +0.007 A 
ENDBRANCH   2   3
BRANCH   2   9
ATOM      9  C   UNL     1      10.029   1.128  24.558  0.00  0.00    +0.341 C 
ATOM     10  O   UNL     1      11.079   0.507  24.611  0.00  0.00    -0.247 OA
BRANCH   9  11
ATOM     11  O   UNL     1       9.077   1.040  25.530  0.00  0.00    -0.478 OA
ATOM     12  H   UNL     1       9.349   1.622  26.278  0.00  0.00    +0.295 HD
ENDBRANCH   9  11
ENDBRANCH   2   9
BRANCH   2  13
ATOM     13  O   UNL     1       8.150   2.134  23.515  0.00  0.00    -0.373 OA
ATOM     14  H   UNL     1       7.873   2.987  23.130  0.00  0.00    +0.211 HD
ENDBRANCH   2  13
TORSDOF 4
ENDMDL
MODEL 6
REMARK VINA RESULT:      -4.6      2.280      3.489
REMARK  Name = 
REMARK  5 active torsions:
REMARK  status: ('A' for Active; 'I' for Inactive)
REMARK    1  A    between atoms: C_1  and  C_2
REMARK    2  A    between atoms: C_2  and  O_3
REMARK    3  A    between atoms: C_2  and  C_4
REMARK    4  A    between atoms: C_2  and  C_7
REMARK    5  A    between atoms: C_4  and  O_5
REMARK                            x       y       z     vdW  Elec       q    Type
REMARK                         _______ _______ _______ _____ _____    ______ ____
ROOT
ATOM      1  C   UNL     1       7.784  -4.956  23.422  0.00  0.00    +0.059 C 
ATOM      2  C   UNL     1       8.222  -3.927  24.466  0.00  0.00    +0.184 C 
ENDROOT
BRANCH   2   3
ATOM      3  C   UNL     1       8.793  -2.686  23.786  0.00  0.00    -0.006 A 
ATOM      4  C   UNL     1       9.608  -1.779  24.486  0.00  0.00    +0.007 A 
ATOM      5  C   UNL     1      10.159  -0.668  23.844  0.00  0.00    +0.000 A 
ATOM      6  C   UNL     1       9.920  -0.450  22.490  0.00  0.00    +0.000 A 
ATOM      7  C   UNL     1       9.127  -1.343  21.776  0.00  0.00    +0.000 A 
ATOM      8  C   UNL     1       8.569  -2.452  22.417  0.00  0.00    +0.007 A 
ENDBRANCH   2   3
BRANCH   2   9
ATOM      9  C   UNL     1       9.201  -4.558  25.482  0.00  0.00    +0.341 C 
ATOM     10  O   UNL     1       9.143  -4.447  26.697  0.00  0.00    -0.247 OA
BRANCH   9  11
ATOM     11  O   UNL     1      10.180  -5.273  24.858  0.00  0.00    -0.478 OA
ATOM     12  H   UNL     1      10.757  -5.672  25.552  0.00  0.00    +0.295 HD
ENDBRANCH   9  11
ENDBRANCH   2   9
BRANCH   2  13
ATOM     13  O   UNL     1       7.072  -3.538  25.256  0.00  0.00    -0.373 OA
ATOM     14  H   UNL     1       6.460  -4.299  25.258  0.00  0.00    +0.211 HD
ENDBRANCH   2  13
TORSDOF 4
ENDMDL
MODEL 7
REMARK VINA RESULT:      -4.6      5.446      6.802
REMARK  Name = 
REMARK  5 active torsions:
REMARK  status: ('A' for Active; 'I' for Inactive)
REMARK    1  A    between atoms: C_1  and  C_2
REMARK    2  A    between atoms: C_2  and  O_3
REMARK    3  A    between atoms: C_2  and  C_4
REMARK    4  A    between atoms: C_2  and  C_7
REMARK    5  A    between atoms: C_4  and  O_5
REMARK                            x       y       z     vdW  Elec       q    Type
REMARK                         _______ _______ _______ _____ _____    ______ ____
ROOT
ATOM      1  C   UNL     1       7.720   2.359  22.736  0.00  0.00    +0.059 C 
ATOM      2  C   UNL     1       9.220   2.059  22.716  0.00  0.00    +0.184 C 
ENDROOT
BRANCH   2   3
ATOM      3  C   UNL     1       9.482   0.610  23.114  0.00  0.00    -0.006 A 
ATOM      4  C   UNL     1       9.226   0.152  24.419  0.00  0.00    +0.007 A 
ATOM      5  C   UNL     1       9.430  -1.186  24.762  0.00  0.00    +0.000 A 
ATOM      6  C   UNL     1       9.878  -2.094  23.807  0.00  0.00    +0.000 A 
ATOM      7  C   UNL     1      10.124  -1.665  22.506  0.00  0.00    +0.000 A 
ATOM      8  C   UNL     1       9.926  -0.325  22.162  0.00  0.00    +0.007 A 
ENDBRANCH   2   3
BRANCH   2   9
ATOM      9  C   UNL     1       9.994   3.071  23.593  0.00  0.00    +0.341 C 
ATOM     10  O   UNL     1      11.189   3.312  23.524  0.00  0.00    -0.247 OA
BRANCH   9  11
ATOM     11  O   UNL     1       9.174   3.685  24.493  0.00  0.00    -0.478 OA
ATOM     12  H   UNL     1       8.423   3.077  24.687  0.00  0.00    +0.295 HD
ENDBRANCH   9  11
ENDBRANCH   2   9
BRANCH   2  13
ATOM     13  O   UNL     1       9.725   2.273  21.375  0.00  0.00    -0.373 OA
ATOM     14  H   UNL     1       9.295   1.609  20.802  0.00  0.00    +0.211 HD
ENDBRANCH   2  13
TORSDOF 4
ENDMDL
MODEL 8
REMARK VINA RESULT:      -4.5      4.972      6.162
REMARK  Name = 
REMARK  5 active torsions:
REMARK  status: ('A' for Active; 'I' for Inactive)
REMARK    1  A    between atoms: C_1  and  C_2
REMARK    2  A    between atoms: C_2  and  O_3
REMARK    3  A    between atoms: C_2  and  C_4
REMARK    4  A    between atoms: C_2  and  C_7
REMARK    5  A    between atoms: C_4  and  O_5
REMARK                            x       y       z     vdW  Elec       q    Type
REMARK                         _______ _______ _______ _____ _____    ______ ____
ROOT
ATOM      1  C   UNL     1       7.791   2.929  22.045  0.00  0.00    +0.059 C 
ATOM      2  C   UNL     1       8.987   2.078  22.477  0.00  0.00    +0.184 C 
ENDROOT
BRANCH   2   3
ATOM      3  C   UNL     1       8.641   0.594  22.408  0.00  0.00    -0.006 A 
ATOM      4  C   UNL     1       9.489  -0.325  21.765  0.00  0.00    +0.007 A 
ATOM      5  C   UNL     1       9.183  -1.688  21.743  0.00  0.00    +0.000 A 
ATOM      6  C   UNL     1       8.036  -2.159  22.373  0.00  0.00    +0.000 A 
ATOM      7  C   UNL     1       7.190  -1.268  23.027  0.00  0.00    +0.000 A 
ATOM      8  C   UNL     1       7.490   0.096  23.046  0.00  0.00    +0.007 A 
ENDBRANCH   2   3
BRANCH   2   9
ATOM      9  C   UNL     1       9.493   2.512  23.872  0.00  0.00    +0.341 C 
ATOM     10  O   UNL     1       9.006   3.386  24.571  0.00  0.00    -0.247 OA
BRANCH   9  11
ATOM     11  O   UNL     1      10.589   1.795  24.254  0.00  0.00    -0.478 OA
ATOM     12  H   UNL     1      11.101   1.565  23.444  0.00  0.00    +0.295 HD
ENDBRANCH   9  11
ENDBRANCH   2   9
BRANCH   2  13
ATOM     13  O   UNL     1      10.098   2.340  21.585  0.00  0.00    -0.373 OA
ATOM     14  H   UNL     1       9.789   2.999  20.934  0.00  0.00    +0.211 HD
ENDBRANCH   2  13
TORSDOF 4
ENDMDL
MODEL 9
REMARK VINA RESULT:      -4.5      3.776      5.330
REMARK  Name = 
REMARK  5 active torsions:
REMARK  status: ('A' for Active; 'I' for Inactive)
REMARK    1  A    between atoms: C_1  and  C_2
REMARK    2  A    between atoms: C_2  and  O_3
REMARK    3  A    between atoms: C_2  and  C_4
REMARK    4  A    between atoms: C_2  and  C_7
REMARK    5  A    between atoms: C_4  and  O_5
REMARK                            x       y       z     vdW  Elec       q    Type
REMARK                         _______ _______ _______ _____ _____    ______ ____
ROOT
ATOM      1  C   UNL     1       8.768  -1.933  25.498  0.00  0.00    +0.059 C 
ATOM      2  C   UNL     1       9.084  -1.901  24.002  0.00  0.00    +0.184 C 
ENDROOT
BRANCH   2   3
ATOM      3  C   UNL     1       9.549  -0.511  23.582  0.00  0.00    -0.006 A 
ATOM      4  C   UNL     1       9.508  -0.100  22.237  0.00  0.00    +0.007 A 
ATOM      5  C   UNL     1       9.898   1.189  21.870  0.00  0.00    +0.000 A 
ATOM      6  C   UNL     1      10.321   2.096  22.836  0.00  0.00    +0.000 A 
ATOM      7  C   UNL     1      10.357   1.715  24.174  0.00  0.00    +0.000 A 
ATOM      8  C   UNL     1       9.973   0.424  24.544  0.00  0.00    +0.007 A 
ENDBRANCH   2   3
BRANCH   2   9
ATOM      9  C   UNL     1       7.879  -2.406  23.175  0.00  0.00    +0.341 C 
ATOM     10  O   UNL     1       7.913  -3.266  22.309  0.00  0.00    -0.247 OA
BRANCH   9  11
ATOM     11  O   UNL     1       6.728  -1.759  23.519  0.00  0.00    -0.478 OA
ATOM     12  H   UNL     1       6.968  -0.858  23.840  0.00  0.00    +0.295 HD
ENDBRANCH   9  11
ENDBRANCH   2   9
BRANCH   2  13
ATOM     13  O   UNL     1      10.143  -2.851  23.725  0.00  0.00    -0.373 OA
ATOM     14  H   UNL     1      10.282  -3.366  24.542  0.00  0.00    +0.211 HD
ENDBRANCH   2  13
TORSDOF 4
ENDMDL
