MODEL 1
REMARK VINA RESULT:      -7.5      0.000      0.000
REMARK  Name = 
REMARK  13 active torsions:
REMARK  status: ('A' for Active; 'I' for Inactive)
REMARK    1  A    between atoms: C_1  and  C_2
REMARK    2  A    between atoms: N_4  and  C_5
REMARK    3  A    between atoms: C_5  and  C_7
REMARK    4  A    between atoms: C_5  and  C_21
REMARK    5  A    between atoms: C_7  and  C_8
REMARK    6  A    between atoms: C_11  and  C_14
REMARK    7  A    between atoms: C_14  and  P_17
REMARK    8  A    between atoms: P_17  and  O_18
REMARK    9  A    between atoms: P_17  and  O_19
REMARK   10  A    between atoms: N_23  and  C_24
REMARK   11  A    between atoms: N_30  and  C_31
REMARK   12  A    between atoms: C_31  and  C_32
REMARK   13  A    between atoms: C_35  and  C_38
REMARK                            x       y       z     vdW  Elec       q    Type
REMARK                         _______ _______ _______ _____ _____    ______ ____
ROOT
ATOM      1  C   UNL     1       7.113   1.959  26.200  0.00  0.00    +0.234 C 
ATOM      2  N   UNL     1       7.940   1.449  25.226  0.00  0.00    -0.302 N 
ATOM      3  H   UNL     1       7.742   0.553  24.803  0.00  0.00    +0.150 HD
ATOM      4  O   UNL     1       7.297   3.054  26.728  0.00  0.00    -0.274 OA
ENDROOT
BRANCH   2   5
ATOM      5  C   UNL     1       9.066   2.189  24.645  0.00  0.00    +0.159 C 
ATOM      6  C   UNL     1      10.126   1.190  24.159  0.00  0.00    +0.236 C 
ATOM      7  O   UNL     1      11.314   1.476  24.058  0.00  0.00    -0.274 OA
ATOM      8  N   UNL     1       9.532   0.101  23.504  0.00  0.00    -0.296 N 
ATOM      9  C   UNL     1       9.568   0.159  22.047  0.00  0.00    +0.108 C 
ATOM     10  C   UNL     1       9.209   1.535  21.462  0.00  0.00    +0.019 C 
ATOM     11  C   UNL     1       8.105   2.267  22.224  0.00  0.00    +0.004 C 
ATOM     12  C   UNL     1       8.606   3.049  23.458  0.00  0.00    +0.032 C 
BRANCH   8  13
ATOM     13  C   UNL     1       9.662  -1.218  24.140  0.00  0.00    +0.143 C 
BRANCH  13  14
ATOM     14  C   UNL     1       8.644  -2.235  23.696  0.00  0.00    -0.030 A 
ATOM     15  C   UNL     1       8.773  -3.584  24.040  0.00  0.00    +0.006 A 
ATOM     16  C   UNL     1       7.720  -4.476  23.806  0.00  0.00    +0.009 A 
ATOM     17  C   UNL     1       6.500  -4.041  23.258  0.00  0.00    -0.018 A 
ATOM     18  C   UNL     1       6.449  -2.717  22.792  0.00  0.00    +0.009 A 
ATOM     19  C   UNL     1       7.509  -1.834  22.990  0.00  0.00    +0.006 A 
BRANCH  17  20
ATOM     20  C   UNL     1       5.277  -4.880  23.298  0.00  0.00    -0.018 A 
ATOM     21  C   UNL     1       5.361  -6.257  23.589  0.00  0.00    +0.008 A 
ATOM     22  C   UNL     1       4.218  -7.036  23.794  0.00  0.00    +0.001 A 
ATOM     23  C   UNL     1       2.958  -6.455  23.717  0.00  0.00    +0.000 A 
ATOM     24  C   UNL     1       2.841  -5.105  23.404  0.00  0.00    +0.001 A 
ATOM     25  C   UNL     1       3.987  -4.331  23.184  0.00  0.00    +0.008 A 
ENDBRANCH  17  20
ENDBRANCH  13  14
ENDBRANCH   8  13
ENDBRANCH   2   5
BRANCH   1  26
ATOM     26  C   UNL     1       5.938   1.037  26.603  0.00  0.00    +0.163 C 
BRANCH  26  29
ATOM     27  C   UNL     1       2.660   2.434  27.918  0.00  0.00    +0.109 C 
ATOM     28  C   UNL     1       3.845   1.511  27.848  0.00  0.00    +0.211 C 
ATOM     29  N   UNL     1       4.757   1.846  26.881  0.00  0.00    -0.304 N 
ATOM     30  H   UNL     1       4.638   2.685  26.317  0.00  0.00    +0.149 HD
ATOM     31  O   UNL     1       3.964   0.546  28.586  0.00  0.00    -0.276 OA
ENDBRANCH  26  29
BRANCH  26  32
ATOM     32  C   UNL     1       5.691  -0.060  25.553  0.00  0.00    +0.067 C 
BRANCH  32  33
ATOM     33  C   UNL     1       5.575  -1.460  26.105  0.00  0.00    -0.045 A 
ATOM     34  C   UNL     1       6.688  -2.111  26.636  0.00  0.00    +0.004 A 
ATOM     35  C   UNL     1       6.592  -3.441  27.029  0.00  0.00    +0.010 A 
ATOM     36  C   UNL     1       5.381  -4.134  26.888  0.00  0.00    +0.033 A 
ATOM     37  C   UNL     1       4.250  -3.466  26.433  0.00  0.00    +0.010 A 
ATOM     38  C   UNL     1       4.357  -2.139  26.051  0.00  0.00    +0.004 A 
BRANCH  36  39
ATOM     39  C   UNL     1       5.306  -5.579  27.233  0.00  0.00    +0.371 C 
ATOM     40  F   UNL     1       6.129  -6.357  26.463  0.00  0.00    -0.187 F 
ATOM     41  F   UNL     1       4.075  -6.167  27.127  0.00  0.00    -0.187 F 
BRANCH  39  42
ATOM     42  P   UNL     1       5.899  -6.029  28.904  0.00  0.00    +0.401 P 
ATOM     43  O   UNL     1       6.400  -6.411  30.319  0.00  0.00    -0.252 OA
BRANCH  42  44
ATOM     44  O   UNL     1       7.393  -6.382  28.237  0.00  0.00    -0.320 OA
ATOM     45  H   UNL     1       8.060  -5.667  28.292  0.00  0.00    +0.220 HD
ENDBRANCH  42  44
BRANCH  42  46
ATOM     46  O   UNL     1       5.262  -7.542  28.626  0.00  0.00    -0.320 OA
ATOM     47  H   UNL     1       4.515  -7.704  29.239  0.00  0.00    +0.220 HD
ENDBRANCH  42  46
ENDBRANCH  39  42
ENDBRANCH  36  39
ENDBRANCH  32  33
ENDBRANCH  26  32
ENDBRANCH   1  26
TORSDOF 12
ENDMDL
MODEL 2
REMARK VINA RESULT:      -7.0      1.542      2.231
REMARK  Name = 
REMARK  13 active torsions:
REMARK  status: ('A' for Active; 'I' for Inactive)
REMARK    1  A    between atoms: C_1  and  C_2
REMARK    2  A    between atoms: N_4  and  C_5
REMARK    3  A    between atoms: C_5  and  C_7
REMARK    4  A    between atoms: C_5  and  C_21
REMARK    5  A    between atoms: C_7  and  C_8
REMARK    6  A    between atoms: C_11  and  C_14
REMARK    7  A    between atoms: C_14  and  P_17
REMARK    8  A    between atoms: P_17  and  O_18
REMARK    9  A    between atoms: P_17  and  O_19
REMARK   10  A    between atoms: N_23  and  C_24
REMARK   11  A    between atoms: N_30  and  C_31
REMARK   12  A    between atoms: C_31  and  C_32
REMARK   13  A    between atoms: C_35  and  C_38
REMARK                            x       y       z     vdW  Elec       q    Type
REMARK                         _______ _______ _______ _____ _____    ______ ____
ROOT
ATOM      1  C   UNL     1       6.841   2.742  27.335  0.00  0.00    +0.234 C 
ATOM      2  N   UNL     1       7.038   2.988  25.995  0.00  0.00    -0.302 N 
ATOM      3  H   UNL     1       6.715   2.328  25.300  0.00  0.00    +0.150 HD
ATOM      4  O   UNL     1       7.193   3.523  28.216  0.00  0.00    -0.274 OA
ENDROOT
BRANCH   2   5
ATOM      5  C   UNL     1       7.595   4.239  25.470  0.00  0.00    +0.159 C 
ATOM      6  C   UNL     1       8.829   3.920  24.614  0.00  0.00    +0.236 C 
ATOM      7  O   UNL     1       9.737   4.723  24.429  0.00  0.00    -0.274 OA
ATOM      8  N   UNL     1       8.600   2.804  23.795  0.00  0.00    -0.296 N 
ATOM      9  C   UNL     1       8.274   3.110  22.406  0.00  0.00    +0.108 C 
ATOM     10  C   UNL     1       7.258   4.253  22.235  0.00  0.00    +0.019 C 
ATOM     11  C   UNL     1       6.159   4.272  23.296  0.00  0.00    +0.004 C 
ATOM     12  C   UNL     1       6.564   4.982  24.607  0.00  0.00    +0.032 C 
BRANCH   8  13
ATOM     13  C   UNL     1       9.402   1.601  24.060  0.00  0.00    +0.143 C 
BRANCH  13  14
ATOM     14  C   UNL     1       8.795   0.317  23.561  0.00  0.00    -0.030 A 
ATOM     15  C   UNL     1       9.539  -0.867  23.521  0.00  0.00    +0.006 A 
ATOM     16  C   UNL     1       8.908  -2.088  23.260  0.00  0.00    +0.009 A 
ATOM     17  C   UNL     1       7.517  -2.169  23.068  0.00  0.00    -0.018 A 
ATOM     18  C   UNL     1       6.818  -0.954  22.971  0.00  0.00    +0.009 A 
ATOM     19  C   UNL     1       7.449   0.269  23.194  0.00  0.00    +0.006 A 
BRANCH  17  20
ATOM     20  C   UNL     1       6.791  -3.462  23.110  0.00  0.00    -0.018 A 
ATOM     21  C   UNL     1       5.381  -3.492  23.126  0.00  0.00    +0.008 A 
ATOM     22  C   UNL     1       4.671  -4.689  23.001  0.00  0.00    +0.001 A 
ATOM     23  C   UNL     1       5.354  -5.891  22.853  0.00  0.00    +0.000 A 
ATOM     24  C   UNL     1       6.745  -5.897  22.863  0.00  0.00    +0.001 A 
ATOM     25  C   UNL     1       7.453  -4.698  23.003  0.00  0.00    +0.008 A 
ENDBRANCH  17  20
ENDBRANCH  13  14
ENDBRANCH   8  13
ENDBRANCH   2   5
BRANCH   1  26
ATOM     26  C   UNL     1       6.161   1.391  27.654  0.00  0.00    +0.163 C 
BRANCH  26  29
ATOM     27  C   UNL     1       3.424   1.516  30.286  0.00  0.00    +0.109 C 
ATOM     28  C   UNL     1       4.792   1.251  29.719  0.00  0.00    +0.211 C 
ATOM     29  N   UNL     1       4.935   1.629  28.409  0.00  0.00    -0.304 N 
ATOM     30  H   UNL     1       4.180   2.097  27.913  0.00  0.00    +0.149 HD
ATOM     31  O   UNL     1       5.681   0.734  30.376  0.00  0.00    -0.276 OA
ENDBRANCH  26  29
BRANCH  26  32
ATOM     32  C   UNL     1       5.940   0.551  26.384  0.00  0.00    +0.067 C 
BRANCH  32  33
ATOM     33  C   UNL     1       5.936  -0.943  26.597  0.00  0.00    -0.045 A 
ATOM     34  C   UNL     1       7.131  -1.657  26.660  0.00  0.00    +0.004 A 
ATOM     35  C   UNL     1       7.108  -3.046  26.735  0.00  0.00    +0.010 A 
ATOM     36  C   UNL     1       5.885  -3.732  26.743  0.00  0.00    +0.033 A 
ATOM     37  C   UNL     1       4.691  -3.020  26.762  0.00  0.00    +0.010 A 
ATOM     38  C   UNL     1       4.729  -1.637  26.693  0.00  0.00    +0.004 A 
BRANCH  36  39
ATOM     39  C   UNL     1       5.866  -5.219  26.742  0.00  0.00    +0.371 C 
ATOM     40  F   UNL     1       6.988  -5.768  26.180  0.00  0.00    -0.187 F 
ATOM     41  F   UNL     1       4.824  -5.815  26.085  0.00  0.00    -0.187 F 
BRANCH  39  42
ATOM     42  P   UNL     1       5.901  -6.017  28.388  0.00  0.00    +0.401 P 
ATOM     43  O   UNL     1       5.930  -6.692  29.781  0.00  0.00    -0.252 OA
BRANCH  42  44
ATOM     44  O   UNL     1       7.512  -6.393  28.130  0.00  0.00    -0.320 OA
ATOM     45  H   UNL     1       7.698  -7.328  27.908  0.00  0.00    +0.220 HD
ENDBRANCH  42  44
BRANCH  42  46
ATOM     46  O   UNL     1       5.318  -7.385  27.639  0.00  0.00    -0.320 OA
ATOM     47  H   UNL     1       5.672  -8.182  28.087  0.00  0.00    +0.220 HD
ENDBRANCH  42  46
ENDBRANCH  39  42
ENDBRANCH  36  39
ENDBRANCH  32  33
ENDBRANCH  26  32
ENDBRANCH   1  26
TORSDOF 12
ENDMDL
MODEL 3
REMARK VINA RESULT:      -6.8      3.695      7.668
REMARK  Name = 
REMARK  13 active torsions:
REMARK  status: ('A' for Active; 'I' for Inactive)
REMARK    1  A    between atoms: C_1  and  C_2
REMARK    2  A    between atoms: N_4  and  C_5
REMARK    3  A    between atoms: C_5  and  C_7
REMARK    4  A    between atoms: C_5  and  C_21
REMARK    5  A    between atoms: C_7  and  C_8
REMARK    6  A    between atoms: C_11  and  C_14
REMARK    7  A    between atoms: C_14  and  P_17
REMARK    8  A    between atoms: P_17  and  O_18
REMARK    9  A    between atoms: P_17  and  O_19
REMARK   10  A    between atoms: N_23  and  C_24
REMARK   11  A    between atoms: N_30  and  C_31
REMARK   12  A    between atoms: C_31  and  C_32
REMARK   13  A    between atoms: C_35  and  C_38
REMARK                            x       y       z     vdW  Elec       q    Type
REMARK                         _______ _______ _______ _____ _____    ______ ____
ROOT
ATOM      1  C   UNL     1       3.541  -1.903  27.431  0.00  0.00    +0.234 C 
ATOM      2  N   UNL     1       4.166  -3.014  27.949  0.00  0.00    -0.302 N 
ATOM      3  H   UNL     1       5.167  -3.126  27.863  0.00  0.00    +0.150 HD
ATOM      4  O   UNL     1       2.332  -1.709  27.530  0.00  0.00    -0.274 OA
ENDROOT
BRANCH   2   5
ATOM      5  C   UNL     1       3.482  -4.032  28.754  0.00  0.00    +0.159 C 
ATOM      6  C   UNL     1       2.990  -5.156  27.830  0.00  0.00    +0.236 C 
ATOM      7  O   UNL     1       2.037  -5.876  28.106  0.00  0.00    -0.274 OA
ATOM      8  N   UNL     1       3.965  -5.490  26.879  0.00  0.00    -0.296 N 
ATOM      9  C   UNL     1       4.741  -6.689  27.179  0.00  0.00    +0.108 C 
ATOM     10  C   UNL     1       5.210  -6.785  28.641  0.00  0.00    +0.019 C 
ATOM     11  C   UNL     1       5.612  -5.445  29.256  0.00  0.00    +0.004 C 
ATOM     12  C   UNL     1       4.426  -4.627  29.810  0.00  0.00    +0.032 C 
BRANCH   8  13
ATOM     13  C   UNL     1       3.650  -5.215  25.469  0.00  0.00    +0.143 C 
BRANCH  13  14
ATOM     14  C   UNL     1       4.827  -4.791  24.632  0.00  0.00    -0.030 A 
ATOM     15  C   UNL     1       4.679  -3.869  23.591  0.00  0.00    +0.006 A 
ATOM     16  C   UNL     1       5.805  -3.325  22.963  0.00  0.00    +0.009 A 
ATOM     17  C   UNL     1       7.107  -3.655  23.380  0.00  0.00    -0.018 A 
ATOM     18  C   UNL     1       7.229  -4.686  24.327  0.00  0.00    +0.009 A 
ATOM     19  C   UNL     1       6.109  -5.258  24.929  0.00  0.00    +0.006 A 
BRANCH  17  20
ATOM     20  C   UNL     1       8.292  -2.866  22.961  0.00  0.00    -0.018 A 
ATOM     21  C   UNL     1       8.219  -1.998  21.852  0.00  0.00    +0.008 A 
ATOM     22  C   UNL     1       9.262  -1.124  21.534  0.00  0.00    +0.001 A 
ATOM     23  C   UNL     1      10.407  -1.092  22.322  0.00  0.00    +0.000 A 
ATOM     24  C   UNL     1      10.520  -1.955  23.406  0.00  0.00    +0.001 A 
ATOM     25  C   UNL     1       9.480  -2.840  23.713  0.00  0.00    +0.008 A 
ENDBRANCH  17  20
ENDBRANCH  13  14
ENDBRANCH   8  13
ENDBRANCH   2   5
BRANCH   1  26
ATOM     26  C   UNL     1       4.476  -0.919  26.689  0.00  0.00    +0.163 C 
BRANCH  26  29
ATOM     27  C   UNL     1       4.390   2.677  27.908  0.00  0.00    +0.109 C 
ATOM     28  C   UNL     1       4.096   1.512  27.003  0.00  0.00    +0.211 C 
ATOM     29  N   UNL     1       4.590   0.316  27.455  0.00  0.00    -0.304 N 
ATOM     30  H   UNL     1       5.060   0.250  28.356  0.00  0.00    +0.149 HD
ATOM     31  O   UNL     1       3.481   1.639  25.956  0.00  0.00    -0.276 OA
ENDBRANCH  26  29
BRANCH  26  32
ATOM     32  C   UNL     1       5.836  -1.562  26.364  0.00  0.00    +0.067 C 
BRANCH  32  33
ATOM     33  C   UNL     1       6.796  -0.680  25.605  0.00  0.00    -0.045 A 
ATOM     34  C   UNL     1       8.081  -0.440  26.090  0.00  0.00    +0.004 A 
ATOM     35  C   UNL     1       8.910   0.470  25.443  0.00  0.00    +0.010 A 
ATOM     36  C   UNL     1       8.456   1.153  24.305  0.00  0.00    +0.033 A 
ATOM     37  C   UNL     1       7.206   0.858  23.772  0.00  0.00    +0.010 A 
ATOM     38  C   UNL     1       6.393  -0.055  24.423  0.00  0.00    +0.004 A 
BRANCH  36  39
ATOM     39  C   UNL     1       9.315   2.184  23.664  0.00  0.00    +0.371 C 
ATOM     40  F   UNL     1       9.290   2.127  22.296  0.00  0.00    -0.187 F 
ATOM     41  F   UNL     1      10.644   2.156  23.987  0.00  0.00    -0.187 F 
BRANCH  39  42
ATOM     42  P   UNL     1       8.804   3.921  23.928  0.00  0.00    +0.401 P 
ATOM     43  O   UNL     1       8.373   5.392  24.152  0.00  0.00    -0.252 OA
BRANCH  42  44
ATOM     44  O   UNL     1       8.197   3.940  22.368  0.00  0.00    -0.320 OA
ATOM     45  H   UNL     1       8.809   4.271  21.679  0.00  0.00    +0.220 HD
ENDBRANCH  42  44
BRANCH  42  46
ATOM     46  O   UNL     1      10.349   4.350  23.480  0.00  0.00    -0.320 OA
ATOM     47  H   UNL     1      10.494   5.302  23.665  0.00  0.00    +0.220 HD
ENDBRANCH  42  46
ENDBRANCH  39  42
ENDBRANCH  36  39
ENDBRANCH  32  33
ENDBRANCH  26  32
ENDBRANCH   1  26
TORSDOF 12
ENDMDL
MODEL 4
REMARK VINA RESULT:      -6.7      3.743      8.456
REMARK  Name = 
REMARK  13 active torsions:
REMARK  status: ('A' for Active; 'I' for Inactive)
REMARK    1  A    between atoms: C_1  and  C_2
REMARK    2  A    between atoms: N_4  and  C_5
REMARK    3  A    between atoms: C_5  and  C_7
REMARK    4  A    between atoms: C_5  and  C_21
REMARK    5  A    between atoms: C_7  and  C_8
REMARK    6  A    between atoms: C_11  and  C_14
REMARK    7  A    between atoms: C_14  and  P_17
REMARK    8  A    between atoms: P_17  and  O_18
REMARK    9  A    between atoms: P_17  and  O_19
REMARK   10  A    between atoms: N_23  and  C_24
REMARK   11  A    between atoms: N_30  and  C_31
REMARK   12  A    between atoms: C_31  and  C_32
REMARK   13  A    between atoms: C_35  and  C_38
REMARK                            x       y       z     vdW  Elec       q    Type
REMARK                         _______ _______ _______ _____ _____    ______ ____
ROOT
ATOM      1  C   UNL     1       7.694  -5.203  25.116  0.00  0.00    +0.234 C 
ATOM      2  N   UNL     1       6.322  -5.177  25.018  0.00  0.00    -0.302 N 
ATOM      3  H   UNL     1       5.871  -4.660  24.275  0.00  0.00    +0.150 HD
ATOM      4  O   UNL     1       8.290  -5.836  25.986  0.00  0.00    -0.274 OA
ENDROOT
BRANCH   2   5
ATOM      5  C   UNL     1       5.429  -5.970  25.869  0.00  0.00    +0.159 C 
ATOM      6  C   UNL     1       5.170  -5.207  27.175  0.00  0.00    +0.236 C 
ATOM      7  O   UNL     1       4.865  -5.764  28.224  0.00  0.00    -0.274 OA
ATOM      8  N   UNL     1       4.948  -3.844  26.928  0.00  0.00    -0.296 N 
ATOM      9  C   UNL     1       3.548  -3.432  26.937  0.00  0.00    +0.108 C 
ATOM     10  C   UNL     1       2.607  -4.384  26.182  0.00  0.00    +0.019 C 
ATOM     11  C   UNL     1       3.214  -4.985  24.915  0.00  0.00    +0.004 C 
ATOM     12  C   UNL     1       4.088  -6.233  25.167  0.00  0.00    +0.032 C 
BRANCH   8  13
ATOM     13  C   UNL     1       5.944  -2.895  27.448  0.00  0.00    +0.143 C 
BRANCH  13  14
ATOM     14  C   UNL     1       6.124  -1.652  26.618  0.00  0.00    -0.030 A 
ATOM     15  C   UNL     1       5.864  -1.658  25.244  0.00  0.00    +0.006 A 
ATOM     16  C   UNL     1       5.829  -0.456  24.527  0.00  0.00    +0.009 A 
ATOM     17  C   UNL     1       6.016   0.783  25.166  0.00  0.00    -0.018 A 
ATOM     18  C   UNL     1       6.415   0.751  26.512  0.00  0.00    +0.009 A 
ATOM     19  C   UNL     1       6.487  -0.448  27.222  0.00  0.00    +0.006 A 
BRANCH  17  20
ATOM     20  C   UNL     1       5.670   2.067  24.507  0.00  0.00    -0.018 A 
ATOM     21  C   UNL     1       5.639   3.267  25.247  0.00  0.00    +0.008 A 
ATOM     22  C   UNL     1       5.478   4.509  24.626  0.00  0.00    +0.001 A 
ATOM     23  C   UNL     1       5.348   4.583  23.244  0.00  0.00    +0.000 A 
ATOM     24  C   UNL     1       5.347   3.415  22.489  0.00  0.00    +0.001 A 
ATOM     25  C   UNL     1       5.492   2.172  23.116  0.00  0.00    +0.008 A 
ENDBRANCH  17  20
ENDBRANCH  13  14
ENDBRANCH   8  13
ENDBRANCH   2   5
BRANCH   1  26
ATOM     26  C   UNL     1       8.438  -4.354  24.059  0.00  0.00    +0.163 C 
BRANCH  26  29
ATOM     27  C   UNL     1       5.947  -3.073  21.493  0.00  0.00    +0.109 C 
ATOM     28  C   UNL     1       6.843  -4.066  22.181  0.00  0.00    +0.211 C 
ATOM     29  N   UNL     1       7.473  -3.573  23.294  0.00  0.00    -0.304 N 
ATOM     30  H   UNL     1       7.283  -2.632  23.630  0.00  0.00    +0.149 HD
ATOM     31  O   UNL     1       6.995  -5.204  21.765  0.00  0.00    -0.276 OA
ENDBRANCH  26  29
BRANCH  26  32
ATOM     32  C   UNL     1       9.546  -3.497  24.696  0.00  0.00    +0.067 C 
BRANCH  32  33
ATOM     33  C   UNL     1       9.674  -2.100  24.139  0.00  0.00    -0.045 A 
ATOM     34  C   UNL     1       9.501  -0.986  24.960  0.00  0.00    +0.004 A 
ATOM     35  C   UNL     1       9.502   0.290  24.408  0.00  0.00    +0.010 A 
ATOM     36  C   UNL     1       9.671   0.463  23.026  0.00  0.00    +0.033 A 
ATOM     37  C   UNL     1       9.924  -0.639  22.217  0.00  0.00    +0.010 A 
ATOM     38  C   UNL     1       9.927  -1.905  22.780  0.00  0.00    +0.004 A 
BRANCH  36  39
ATOM     39  C   UNL     1       9.591   1.822  22.431  0.00  0.00    +0.371 C 
ATOM     40  F   UNL     1       8.487   1.996  21.639  0.00  0.00    -0.187 F 
ATOM     41  F   UNL     1      10.643   2.208  21.645  0.00  0.00    -0.187 F 
BRANCH  39  42
ATOM     42  P   UNL     1       9.361   3.198  23.615  0.00  0.00    +0.401 P 
ATOM     43  O   UNL     1       9.167   4.362  24.618  0.00  0.00    -0.252 OA
BRANCH  42  44
ATOM     44  O   UNL     1       8.576   4.055  22.410  0.00  0.00    -0.320 OA
ATOM     45  H   UNL     1       9.091   4.198  21.589  0.00  0.00    +0.220 HD
ENDBRANCH  42  44
BRANCH  42  46
ATOM     46  O   UNL     1      10.884   3.710  23.180  0.00  0.00    -0.320 OA
ATOM     47  H   UNL     1      10.840   4.187  22.325  0.00  0.00    +0.220 HD
ENDBRANCH  42  46
ENDBRANCH  39  42
ENDBRANCH  36  39
ENDBRANCH  32  33
ENDBRANCH  26  32
ENDBRANCH   1  26
TORSDOF 12
ENDMDL
MODEL 5
REMARK VINA RESULT:      -6.5      2.295      3.316
REMARK  Name = 
REMARK  13 active torsions:
REMARK  status: ('A' for Active; 'I' for Inactive)
REMARK    1  A    between atoms: C_1  and  C_2
REMARK    2  A    between atoms: N_4  and  C_5
REMARK    3  A    between atoms: C_5  and  C_7
REMARK    4  A    between atoms: C_5  and  C_21
REMARK    5  A    between atoms: C_7  and  C_8
REMARK    6  A    between atoms: C_11  and  C_14
REMARK    7  A    between atoms: C_14  and  P_17
REMARK    8  A    between atoms: P_17  and  O_18
REMARK    9  A    between atoms: P_17  and  O_19
REMARK   10  A    between atoms: N_23  and  C_24
REMARK   11  A    between atoms: N_30  and  C_31
REMARK   12  A    between atoms: C_31  and  C_32
REMARK   13  A    between atoms: C_35  and  C_38
REMARK                            x       y       z     vdW  Elec       q    Type
REMARK                         _______ _______ _______ _____ _____    ______ ____
ROOT
ATOM      1  C   UNL     1       5.575   1.145  26.829  0.00  0.00    +0.234 C 
ATOM      2  N   UNL     1       6.236   1.664  25.740  0.00  0.00    -0.302 N 
ATOM      3  H   UNL     1       6.483   1.070  24.959  0.00  0.00    +0.150 HD
ATOM      4  O   UNL     1       5.232   1.830  27.791  0.00  0.00    -0.274 OA
ENDROOT
BRANCH   2   5
ATOM      5  C   UNL     1       6.515   3.093  25.560  0.00  0.00    +0.159 C 
ATOM      6  C   UNL     1       7.975   3.269  25.120  0.00  0.00    +0.236 C 
ATOM      7  O   UNL     1       8.614   4.295  25.325  0.00  0.00    -0.274 OA
ATOM      8  N   UNL     1       8.330   2.314  24.156  0.00  0.00    -0.296 N 
ATOM      9  C   UNL     1       8.328   2.793  22.777  0.00  0.00    +0.108 C 
ATOM     10  C   UNL     1       7.106   3.653  22.412  0.00  0.00    +0.019 C 
ATOM     11  C   UNL     1       5.801   3.187  23.056  0.00  0.00    +0.004 C 
ATOM     12  C   UNL     1       5.592   3.706  24.496  0.00  0.00    +0.032 C 
BRANCH   8  13
ATOM     13  C   UNL     1       9.349   1.323  24.534  0.00  0.00    +0.143 C 
BRANCH  13  14
ATOM     14  C   UNL     1       9.152  -0.044  23.934  0.00  0.00    -0.030 A 
ATOM     15  C   UNL     1       9.516  -1.198  24.633  0.00  0.00    +0.006 A 
ATOM     16  C   UNL     1       9.136  -2.459  24.160  0.00  0.00    +0.009 A 
ATOM     17  C   UNL     1       8.352  -2.601  23.000  0.00  0.00    -0.018 A 
ATOM     18  C   UNL     1       8.122  -1.441  22.243  0.00  0.00    +0.009 A 
ATOM     19  C   UNL     1       8.532  -0.185  22.692  0.00  0.00    +0.006 A 
BRANCH  17  20
ATOM     20  C   UNL     1       7.674  -3.876  22.661  0.00  0.00    -0.018 A 
ATOM     21  C   UNL     1       6.679  -3.916  21.663  0.00  0.00    +0.008 A 
ATOM     22  C   UNL     1       6.140  -5.123  21.209  0.00  0.00    +0.001 A 
ATOM     23  C   UNL     1       6.589  -6.327  21.740  0.00  0.00    +0.000 A 
ATOM     24  C   UNL     1       7.550  -6.320  22.745  0.00  0.00    +0.001 A 
ATOM     25  C   UNL     1       8.075  -5.108  23.208  0.00  0.00    +0.008 A 
ENDBRANCH  17  20
ENDBRANCH  13  14
ENDBRANCH   8  13
ENDBRANCH   2   5
BRANCH   1  26
ATOM     26  C   UNL     1       5.314  -0.378  26.766  0.00  0.00    +0.163 C 
BRANCH  26  29
ATOM     27  C   UNL     1       2.009  -1.677  28.115  0.00  0.00    +0.109 C 
ATOM     28  C   UNL     1       3.499  -1.477  28.051  0.00  0.00    +0.211 C 
ATOM     29  N   UNL     1       3.907  -0.643  27.043  0.00  0.00    -0.304 N 
ATOM     30  H   UNL     1       3.231  -0.172  26.446  0.00  0.00    +0.149 HD
ATOM     31  O   UNL     1       4.264  -2.027  28.828  0.00  0.00    -0.276 OA
ENDBRANCH  26  29
BRANCH  26  32
ATOM     32  C   UNL     1       5.797  -0.983  25.437  0.00  0.00    +0.067 C 
BRANCH  32  33
ATOM     33  C   UNL     1       5.522  -2.457  25.267  0.00  0.00    -0.045 A 
ATOM     34  C   UNL     1       4.548  -2.903  24.375  0.00  0.00    +0.004 A 
ATOM     35  C   UNL     1       4.223  -4.254  24.319  0.00  0.00    +0.010 A 
ATOM     36  C   UNL     1       4.868  -5.171  25.162  0.00  0.00    +0.033 A 
ATOM     37  C   UNL     1       5.895  -4.742  25.995  0.00  0.00    +0.010 A 
ATOM     38  C   UNL     1       6.213  -3.395  26.036  0.00  0.00    +0.004 A 
BRANCH  36  39
ATOM     39  C   UNL     1       4.460  -6.601  25.156  0.00  0.00    +0.371 C 
ATOM     40  F   UNL     1       4.706  -7.233  26.346  0.00  0.00    -0.187 F 
ATOM     41  F   UNL     1       5.049  -7.399  24.213  0.00  0.00    -0.187 F 
BRANCH  39  42
ATOM     42  P   UNL     1       2.666  -6.916  24.983  0.00  0.00    +0.401 P 
ATOM     43  O   UNL     1       1.148  -7.183  24.837  0.00  0.00    -0.252 OA
BRANCH  42  44
ATOM     44  O   UNL     1       2.923  -8.470  25.551  0.00  0.00    -0.320 OA
ATOM     45  H   UNL     1       2.600  -9.191  24.972  0.00  0.00    +0.220 HD
ENDBRANCH  42  44
BRANCH  42  46
ATOM     46  O   UNL     1       2.976  -7.297  23.393  0.00  0.00    -0.320 OA
ATOM     47  H   UNL     1       2.367  -8.007  23.099  0.00  0.00    +0.220 HD
ENDBRANCH  42  46
ENDBRANCH  39  42
ENDBRANCH  36  39
ENDBRANCH  32  33
ENDBRANCH  26  32
ENDBRANCH   1  26
TORSDOF 12
ENDMDL
MODEL 6
REMARK VINA RESULT:      -6.4      2.747      5.101
REMARK  Name = 
REMARK  13 active torsions:
REMARK  status: ('A' for Active; 'I' for Inactive)
REMARK    1  A    between atoms: C_1  and  C_2
REMARK    2  A    between atoms: N_4  and  C_5
REMARK    3  A    between atoms: C_5  and  C_7
REMARK    4  A    between atoms: C_5  and  C_21
REMARK    5  A    between atoms: C_7  and  C_8
REMARK    6  A    between atoms: C_11  and  C_14
REMARK    7  A    between atoms: C_14  and  P_17
REMARK    8  A    between atoms: P_17  and  O_18
REMARK    9  A    between atoms: P_17  and  O_19
REMARK   10  A    between atoms: N_23  and  C_24
REMARK   11  A    between atoms: N_30  and  C_31
REMARK   12  A    between atoms: C_31  and  C_32
REMARK   13  A    between atoms: C_35  and  C_38
REMARK                            x       y       z     vdW  Elec       q    Type
REMARK                         _______ _______ _______ _____ _____    ______ ____
ROOT
ATOM      1  C   UNL     1       8.200  -1.964  22.341  0.00  0.00    +0.234 C 
ATOM      2  N   UNL     1       7.867  -0.658  22.617  0.00  0.00    -0.302 N 
ATOM      3  H   UNL     1       7.203  -0.441  23.348  0.00  0.00    +0.150 HD
ATOM      4  O   UNL     1       9.020  -2.277  21.480  0.00  0.00    -0.274 OA
ENDROOT
BRANCH   2   5
ATOM      5  C   UNL     1       8.519   0.498  21.992  0.00  0.00    +0.159 C 
ATOM      6  C   UNL     1       7.984   1.786  22.635  0.00  0.00    +0.236 C 
ATOM      7  O   UNL     1       7.978   2.866  22.057  0.00  0.00    -0.274 OA
ATOM      8  N   UNL     1       7.883   1.650  24.028  0.00  0.00    -0.296 N 
ATOM      9  C   UNL     1       8.969   2.256  24.791  0.00  0.00    +0.108 C 
ATOM     10  C   UNL     1      10.370   1.981  24.218  0.00  0.00    +0.019 C 
ATOM     11  C   UNL     1      10.540   0.579  23.635  0.00  0.00    +0.004 C 
ATOM     12  C   UNL     1      10.043   0.440  22.179  0.00  0.00    +0.032 C 
BRANCH   8  13
ATOM     13  C   UNL     1       6.533   1.689  24.610  0.00  0.00    +0.143 C 
BRANCH  13  14
ATOM     14  C   UNL     1       6.237   0.582  25.587  0.00  0.00    -0.030 A 
ATOM     15  C   UNL     1       4.924   0.284  25.964  0.00  0.00    +0.006 A 
ATOM     16  C   UNL     1       4.646  -0.873  26.701  0.00  0.00    +0.009 A 
ATOM     17  C   UNL     1       5.662  -1.782  27.048  0.00  0.00    -0.018 A 
ATOM     18  C   UNL     1       6.984  -1.389  26.782  0.00  0.00    +0.009 A 
ATOM     19  C   UNL     1       7.269  -0.217  26.081  0.00  0.00    +0.006 A 
BRANCH  17  20
ATOM     20  C   UNL     1       5.361  -3.150  27.536  0.00  0.00    -0.018 A 
ATOM     21  C   UNL     1       4.161  -3.418  28.226  0.00  0.00    +0.008 A 
ATOM     22  C   UNL     1       3.775  -4.721  28.552  0.00  0.00    +0.001 A 
ATOM     23  C   UNL     1       4.581  -5.795  28.191  0.00  0.00    +0.000 A 
ATOM     24  C   UNL     1       5.784  -5.562  27.534  0.00  0.00    +0.001 A 
ATOM     25  C   UNL     1       6.175  -4.254  27.223  0.00  0.00    +0.008 A 
ENDBRANCH  17  20
ENDBRANCH  13  14
ENDBRANCH   8  13
ENDBRANCH   2   5
BRANCH   1  26
ATOM     26  C   UNL     1       7.443  -3.019  23.182  0.00  0.00    +0.163 C 
BRANCH  26  29
ATOM     27  C   UNL     1       9.487  -4.919  25.759  0.00  0.00    +0.109 C 
ATOM     28  C   UNL     1       8.724  -4.700  24.482  0.00  0.00    +0.211 C 
ATOM     29  N   UNL     1       8.266  -3.418  24.318  0.00  0.00    -0.304 N 
ATOM     30  H   UNL     1       8.491  -2.691  24.993  0.00  0.00    +0.149 HD
ATOM     31  O   UNL     1       8.527  -5.597  23.678  0.00  0.00    -0.276 OA
ENDBRANCH  26  29
BRANCH  26  32
ATOM     32  C   UNL     1       6.044  -2.525  23.588  0.00  0.00    +0.067 C 
BRANCH  32  33
ATOM     33  C   UNL     1       4.974  -3.588  23.619  0.00  0.00    -0.045 A 
ATOM     34  C   UNL     1       3.828  -3.425  24.397  0.00  0.00    +0.004 A 
ATOM     35  C   UNL     1       2.911  -4.464  24.510  0.00  0.00    +0.010 A 
ATOM     36  C   UNL     1       3.136  -5.680  23.847  0.00  0.00    +0.033 A 
ATOM     37  C   UNL     1       4.236  -5.818  23.007  0.00  0.00    +0.010 A 
ATOM     38  C   UNL     1       5.138  -4.773  22.899  0.00  0.00    +0.004 A 
BRANCH  36  39
ATOM     39  C   UNL     1       2.195  -6.816  24.035  0.00  0.00    +0.371 C 
ATOM     40  F   UNL     1       2.654  -7.988  23.496  0.00  0.00    -0.187 F 
ATOM     41  F   UNL     1       0.941  -6.661  23.509  0.00  0.00    -0.187 F 
BRANCH  39  42
ATOM     42  P   UNL     1       1.916  -7.340  25.766  0.00  0.00    +0.401 P 
ATOM     43  O   UNL     1       1.681  -7.784  27.231  0.00  0.00    -0.252 OA
BRANCH  42  44
ATOM     44  O   UNL     1       3.349  -8.204  25.695  0.00  0.00    -0.320 OA
ATOM     45  H   UNL     1       3.999  -7.892  25.031  0.00  0.00    +0.220 HD
ENDBRANCH  42  44
BRANCH  42  46
ATOM     46  O   UNL     1       0.981  -8.571  25.149  0.00  0.00    -0.320 OA
ATOM     47  H   UNL     1       1.340  -9.436  25.440  0.00  0.00    +0.220 HD
ENDBRANCH  42  46
ENDBRANCH  39  42
ENDBRANCH  36  39
ENDBRANCH  32  33
ENDBRANCH  26  32
ENDBRANCH   1  26
TORSDOF 12
ENDMDL
MODEL 7
REMARK VINA RESULT:      -6.3      4.099      6.408
REMARK  Name = 
REMARK  13 active torsions:
REMARK  status: ('A' for Active; 'I' for Inactive)
REMARK    1  A    between atoms: C_1  and  C_2
REMARK    2  A    between atoms: N_4  and  C_5
REMARK    3  A    between atoms: C_5  and  C_7
REMARK    4  A    between atoms: C_5  and  C_21
REMARK    5  A    between atoms: C_7  and  C_8
REMARK    6  A    between atoms: C_11  and  C_14
REMARK    7  A    between atoms: C_14  and  P_17
REMARK    8  A    between atoms: P_17  and  O_18
REMARK    9  A    between atoms: P_17  and  O_19
REMARK   10  A    between atoms: N_23  and  C_24
REMARK   11  A    between atoms: N_30  and  C_31
REMARK   12  A    between atoms: C_31  and  C_32
REMARK   13  A    between atoms: C_35  and  C_38
REMARK                            x       y       z     vdW  Elec       q    Type
REMARK                         _______ _______ _______ _____ _____    ______ ____
ROOT
ATOM      1  C   UNL     1       7.834  -1.006  26.344  0.00  0.00    +0.234 C 
ATOM      2  N   UNL     1       8.232  -1.033  25.027  0.00  0.00    -0.302 N 
ATOM      3  H   UNL     1       7.553  -0.937  24.284  0.00  0.00    +0.150 HD
ATOM      4  O   UNL     1       8.623  -1.095  27.282  0.00  0.00    -0.274 OA
ENDROOT
BRANCH   2   5
ATOM      5  C   UNL     1       9.635  -1.072  24.601  0.00  0.00    +0.159 C 
ATOM      6  C   UNL     1       9.697  -1.430  23.109  0.00  0.00    +0.236 C 
ATOM      7  O   UNL     1      10.670  -1.966  22.593  0.00  0.00    -0.274 OA
ATOM      8  N   UNL     1       8.716  -0.738  22.383  0.00  0.00    -0.296 N 
ATOM      9  C   UNL     1       9.192   0.436  21.659  0.00  0.00    +0.108 C 
ATOM     10  C   UNL     1      10.143   1.332  22.471  0.00  0.00    +0.019 C 
ATOM     11  C   UNL     1       9.780   1.447  23.950  0.00  0.00    +0.004 C 
ATOM     12  C   UNL     1      10.315   0.288  24.820  0.00  0.00    +0.032 C 
BRANCH   8  13
ATOM     13  C   UNL     1       7.650  -1.539  21.762  0.00  0.00    +0.143 C 
BRANCH  13  14
ATOM     14  C   UNL     1       7.141  -2.675  22.608  0.00  0.00    -0.030 A 
ATOM     15  C   UNL     1       7.908  -3.827  22.807  0.00  0.00    +0.006 A 
ATOM     16  C   UNL     1       7.521  -4.777  23.759  0.00  0.00    +0.009 A 
ATOM     17  C   UNL     1       6.383  -4.587  24.563  0.00  0.00    -0.018 A 
ATOM     18  C   UNL     1       5.556  -3.497  24.246  0.00  0.00    +0.009 A 
ATOM     19  C   UNL     1       5.919  -2.567  23.272  0.00  0.00    +0.006 A 
BRANCH  17  20
ATOM     20  C   UNL     1       6.134  -5.400  25.779  0.00  0.00    -0.018 A 
ATOM     21  C   UNL     1       6.996  -5.311  26.891  0.00  0.00    +0.008 A 
ATOM     22  C   UNL     1       6.698  -5.937  28.105  0.00  0.00    +0.001 A 
ATOM     23  C   UNL     1       5.523  -6.669  28.239  0.00  0.00    +0.000 A 
ATOM     24  C   UNL     1       4.666  -6.799  27.151  0.00  0.00    +0.001 A 
ATOM     25  C   UNL     1       4.976  -6.183  25.933  0.00  0.00    +0.008 A 
ENDBRANCH  17  20
ENDBRANCH  13  14
ENDBRANCH   8  13
ENDBRANCH   2   5
BRANCH   1  26
ATOM     26  C   UNL     1       6.308  -0.878  26.560  0.00  0.00    +0.163 C 
BRANCH  26  29
ATOM     27  C   UNL     1       4.295  -3.311  28.671  0.00  0.00    +0.109 C 
ATOM     28  C   UNL     1       4.559  -2.316  27.574  0.00  0.00    +0.211 C 
ATOM     29  N   UNL     1       5.862  -1.895  27.505  0.00  0.00    -0.304 N 
ATOM     30  H   UNL     1       6.572  -2.285  28.120  0.00  0.00    +0.149 HD
ATOM     31  O   UNL     1       3.679  -1.919  26.828  0.00  0.00    -0.276 OA
ENDBRANCH  26  29
BRANCH  26  32
ATOM     32  C   UNL     1       5.910   0.551  26.970  0.00  0.00    +0.067 C 
BRANCH  32  33
ATOM     33  C   UNL     1       6.097   1.599  25.901  0.00  0.00    -0.045 A 
ATOM     34  C   UNL     1       5.665   1.372  24.595  0.00  0.00    +0.004 A 
ATOM     35  C   UNL     1       5.953   2.295  23.596  0.00  0.00    +0.010 A 
ATOM     36  C   UNL     1       6.682   3.456  23.896  0.00  0.00    +0.033 A 
ATOM     37  C   UNL     1       7.045   3.725  25.212  0.00  0.00    +0.010 A 
ATOM     38  C   UNL     1       6.746   2.799  26.197  0.00  0.00    +0.004 A 
BRANCH  36  39
ATOM     39  C   UNL     1       7.058   4.400  22.811  0.00  0.00    +0.371 C 
ATOM     40  F   UNL     1       5.984   5.077  22.295  0.00  0.00    -0.187 F 
ATOM     41  F   UNL     1       7.682   3.859  21.721  0.00  0.00    -0.187 F 
BRANCH  39  42
ATOM     42  P   UNL     1       8.119   5.805  23.310  0.00  0.00    +0.401 P 
ATOM     43  O   UNL     1       9.017   6.993  23.733  0.00  0.00    -0.252 OA
BRANCH  42  44
ATOM     44  O   UNL     1       7.981   6.412  21.756  0.00  0.00    -0.320 OA
ATOM     45  H   UNL     1       7.482   7.251  21.672  0.00  0.00    +0.220 HD
ENDBRANCH  42  44
BRANCH  42  46
ATOM     46  O   UNL     1       9.422   4.829  22.963  0.00  0.00    -0.320 OA
ATOM     47  H   UNL     1       9.626   4.880  22.005  0.00  0.00    +0.220 HD
ENDBRANCH  42  46
ENDBRANCH  39  42
ENDBRANCH  36  39
ENDBRANCH  32  33
ENDBRANCH  26  32
ENDBRANCH   1  26
TORSDOF 12
ENDMDL
MODEL 8
REMARK VINA RESULT:      -6.2      3.006      3.988
REMARK  Name = 
REMARK  13 active torsions:
REMARK  status: ('A' for Active; 'I' for Inactive)
REMARK    1  A    between atoms: C_1  and  C_2
REMARK    2  A    between atoms: N_4  and  C_5
REMARK    3  A    between atoms: C_5  and  C_7
REMARK    4  A    between atoms: C_5  and  C_21
REMARK    5  A    between atoms: C_7  and  C_8
REMARK    6  A    between atoms: C_11  and  C_14
REMARK    7  A    between atoms: C_14  and  P_17
REMARK    8  A    between atoms: P_17  and  O_18
REMARK    9  A    between atoms: P_17  and  O_19
REMARK   10  A    between atoms: N_23  and  C_24
REMARK   11  A    between atoms: N_30  and  C_31
REMARK   12  A    between atoms: C_31  and  C_32
REMARK   13  A    between atoms: C_35  and  C_38
REMARK                            x       y       z     vdW  Elec       q    Type
REMARK                         _______ _______ _______ _____ _____    ______ ____
ROOT
ATOM      1  C   UNL     1       5.940   1.729  26.127  0.00  0.00    +0.234 C 
ATOM      2  N   UNL     1       7.102   1.883  25.406  0.00  0.00    -0.302 N 
ATOM      3  H   UNL     1       7.786   1.139  25.371  0.00  0.00    +0.150 HD
ATOM      4  O   UNL     1       5.067   2.592  26.181  0.00  0.00    -0.274 OA
ENDROOT
BRANCH   2   5
ATOM      5  C   UNL     1       7.382   3.041  24.551  0.00  0.00    +0.159 C 
ATOM      6  C   UNL     1       8.836   2.968  24.065  0.00  0.00    +0.236 C 
ATOM      7  O   UNL     1       9.480   3.958  23.739  0.00  0.00    -0.274 OA
ATOM      8  N   UNL     1       9.176   1.661  23.685  0.00  0.00    -0.296 N 
ATOM      9  C   UNL     1       9.157   1.408  22.248  0.00  0.00    +0.108 C 
ATOM     10  C   UNL     1       7.932   1.992  21.522  0.00  0.00    +0.019 C 
ATOM     11  C   UNL     1       6.635   1.910  22.325  0.00  0.00    +0.004 C 
ATOM     12  C   UNL     1       6.446   3.066  23.333  0.00  0.00    +0.032 C 
BRANCH   8  13
ATOM     13  C   UNL     1      10.197   0.971  24.487  0.00  0.00    +0.143 C 
BRANCH  13  14
ATOM     14  C   UNL     1       9.750  -0.335  25.089  0.00  0.00    -0.030 A 
ATOM     15  C   UNL     1       9.230  -0.392  26.385  0.00  0.00    +0.006 A 
ATOM     16  C   UNL     1       8.625  -1.564  26.852  0.00  0.00    +0.009 A 
ATOM     17  C   UNL     1       8.488  -2.696  26.029  0.00  0.00    -0.018 A 
ATOM     18  C   UNL     1       9.142  -2.660  24.786  0.00  0.00    +0.009 A 
ATOM     19  C   UNL     1       9.779  -1.506  24.331  0.00  0.00    +0.006 A 
BRANCH  17  20
ATOM     20  C   UNL     1       7.582  -3.818  26.378  0.00  0.00    -0.018 A 
ATOM     21  C   UNL     1       6.626  -3.675  27.404  0.00  0.00    +0.008 A 
ATOM     22  C   UNL     1       5.654  -4.651  27.644  0.00  0.00    +0.001 A 
ATOM     23  C   UNL     1       5.612  -5.797  26.859  0.00  0.00    +0.000 A 
ATOM     24  C   UNL     1       6.558  -5.980  25.857  0.00  0.00    +0.001 A 
ATOM     25  C   UNL     1       7.539  -5.008  25.629  0.00  0.00    +0.008 A 
ENDBRANCH  17  20
ENDBRANCH  13  14
ENDBRANCH   8  13
ENDBRANCH   2   5
BRANCH   1  26
ATOM     26  C   UNL     1       5.822   0.388  26.890  0.00  0.00    +0.163 C 
BRANCH  26  29
ATOM     27  C   UNL     1       6.386   1.479  30.484  0.00  0.00    +0.109 C 
ATOM     28  C   UNL     1       6.638   1.399  29.004  0.00  0.00    +0.211 C 
ATOM     29  N   UNL     1       5.715   0.650  28.321  0.00  0.00    -0.304 N 
ATOM     30  H   UNL     1       4.911   0.247  28.797  0.00  0.00    +0.149 HD
ATOM     31  O   UNL     1       7.591   1.947  28.474  0.00  0.00    -0.276 OA
ENDBRANCH  26  29
BRANCH  26  32
ATOM     32  C   UNL     1       4.674  -0.478  26.342  0.00  0.00    +0.067 C 
BRANCH  32  33
ATOM     33  C   UNL     1       5.021  -1.309  25.132  0.00  0.00    -0.045 A 
ATOM     34  C   UNL     1       4.438  -2.560  24.934  0.00  0.00    +0.004 A 
ATOM     35  C   UNL     1       4.857  -3.364  23.880  0.00  0.00    +0.010 A 
ATOM     36  C   UNL     1       5.871  -2.924  23.016  0.00  0.00    +0.033 A 
ATOM     37  C   UNL     1       6.398  -1.645  23.162  0.00  0.00    +0.010 A 
ATOM     38  C   UNL     1       5.966  -0.852  24.212  0.00  0.00    +0.004 A 
BRANCH  36  39
ATOM     39  C   UNL     1       6.373  -3.819  21.940  0.00  0.00    +0.371 C 
ATOM     40  F   UNL     1       7.739  -3.841  21.856  0.00  0.00    -0.187 F 
ATOM     41  F   UNL     1       5.952  -3.539  20.669  0.00  0.00    -0.187 F 
BRANCH  39  42
ATOM     42  P   UNL     1       6.031  -5.603  22.166  0.00  0.00    +0.401 P 
ATOM     43  O   UNL     1       5.743  -7.112  22.357  0.00  0.00    -0.252 OA
BRANCH  42  44
ATOM     44  O   UNL     1       7.683  -5.873  22.222  0.00  0.00    -0.320 OA
ATOM     45  H   UNL     1       8.182  -5.315  22.854  0.00  0.00    +0.220 HD
ENDBRANCH  42  44
BRANCH  42  46
ATOM     46  O   UNL     1       5.931  -5.703  20.507  0.00  0.00    -0.320 OA
ATOM     47  H   UNL     1       6.001  -6.640  20.228  0.00  0.00    +0.220 HD
ENDBRANCH  42  46
ENDBRANCH  39  42
ENDBRANCH  36  39
ENDBRANCH  32  33
ENDBRANCH  26  32
ENDBRANCH   1  26
TORSDOF 12
ENDMDL
MODEL 9
REMARK VINA RESULT:      -6.1      3.482      6.229
REMARK  Name = 
REMARK  13 active torsions:
REMARK  status: ('A' for Active; 'I' for Inactive)
REMARK    1  A    between atoms: C_1  and  C_2
REMARK    2  A    between atoms: N_4  and  C_5
REMARK    3  A    between atoms: C_5  and  C_7
REMARK    4  A    between atoms: C_5  and  C_21
REMARK    5  A    between atoms: C_7  and  C_8
REMARK    6  A    between atoms: C_11  and  C_14
REMARK    7  A    between atoms: C_14  and  P_17
REMARK    8  A    between atoms: P_17  and  O_18
REMARK    9  A    between atoms: P_17  and  O_19
REMARK   10  A    between atoms: N_23  and  C_24
REMARK   11  A    between atoms: N_30  and  C_31
REMARK   12  A    between atoms: C_31  and  C_32
REMARK   13  A    between atoms: C_35  and  C_38
REMARK                            x       y       z     vdW  Elec       q    Type
REMARK                         _______ _______ _______ _____ _____    ______ ____
ROOT
ATOM      1  C   UNL     1       3.983   2.783  26.714  0.00  0.00    +0.234 C 
ATOM      2  N   UNL     1       3.610   3.237  25.470  0.00  0.00    -0.302 N 
ATOM      3  H   UNL     1       4.007   2.829  24.635  0.00  0.00    +0.150 HD
ATOM      4  O   UNL     1       3.512   3.229  27.758  0.00  0.00    -0.274 OA
ENDROOT
BRANCH   2   5
ATOM      5  C   UNL     1       2.547   4.224  25.249  0.00  0.00    +0.159 C 
ATOM      6  C   UNL     1       3.181   5.562  24.845  0.00  0.00    +0.236 C 
ATOM      7  O   UNL     1       2.633   6.643  25.033  0.00  0.00    -0.274 OA
ATOM      8  N   UNL     1       4.224   5.370  23.926  0.00  0.00    -0.296 N 
ATOM      9  C   UNL     1       3.878   5.628  22.532  0.00  0.00    +0.108 C 
ATOM     10  C   UNL     1       2.523   5.040  22.101  0.00  0.00    +0.019 C 
ATOM     11  C   UNL     1       2.208   3.681  22.723  0.00  0.00    +0.004 C 
ATOM     12  C   UNL     1       1.592   3.765  24.137  0.00  0.00    +0.032 C 
BRANCH   8  13
ATOM     13  C   UNL     1       5.582   5.717  24.369  0.00  0.00    +0.143 C 
BRANCH  13  14
ATOM     14  C   UNL     1       6.668   4.827  23.825  0.00  0.00    -0.030 A 
ATOM     15  C   UNL     1       7.809   4.536  24.580  0.00  0.00    +0.006 A 
ATOM     16  C   UNL     1       8.703   3.547  24.155  0.00  0.00    +0.009 A 
ATOM     17  C   UNL     1       8.466   2.796  22.990  0.00  0.00    -0.018 A 
ATOM     18  C   UNL     1       7.393   3.203  22.180  0.00  0.00    +0.009 A 
ATOM     19  C   UNL     1       6.520   4.214  22.580  0.00  0.00    +0.006 A 
BRANCH  17  20
ATOM     20  C   UNL     1       9.209   1.546  22.694  0.00  0.00    -0.018 A 
ATOM     21  C   UNL     1      10.153   1.040  23.610  0.00  0.00    +0.008 A 
ATOM     22  C   UNL     1      10.747  -0.214  23.437  0.00  0.00    +0.001 A 
ATOM     23  C   UNL     1      10.406  -0.998  22.340  0.00  0.00    +0.000 A 
ATOM     24  C   UNL     1       9.499  -0.514  21.404  0.00  0.00    +0.001 A 
ATOM     25  C   UNL     1       8.918   0.748  21.573  0.00  0.00    +0.008 A 
ENDBRANCH  17  20
ENDBRANCH  13  14
ENDBRANCH   8  13
ENDBRANCH   2   5
BRANCH   1  26
ATOM     26  C   UNL     1       5.065   1.678  26.705  0.00  0.00    +0.163 C 
BRANCH  26  29
ATOM     27  C   UNL     1       4.075  -1.457  28.608  0.00  0.00    +0.109 C 
ATOM     28  C   UNL     1       4.709  -0.112  28.386  0.00  0.00    +0.211 C 
ATOM     29  N   UNL     1       4.478   0.417  27.143  0.00  0.00    -0.304 N 
ATOM     30  H   UNL     1       3.877  -0.060  26.475  0.00  0.00    +0.149 HD
ATOM     31  O   UNL     1       5.379   0.442  29.243  0.00  0.00    -0.276 OA
ENDBRANCH  26  29
BRANCH  26  32
ATOM     32  C   UNL     1       5.766   1.580  25.338  0.00  0.00    +0.067 C 
BRANCH  32  33
ATOM     33  C   UNL     1       6.612   0.346  25.140  0.00  0.00    -0.045 A 
ATOM     34  C   UNL     1       6.363  -0.526  24.081  0.00  0.00    +0.004 A 
ATOM     35  C   UNL     1       7.071  -1.719  23.983  0.00  0.00    +0.010 A 
ATOM     36  C   UNL     1       8.033  -2.051  24.948  0.00  0.00    +0.033 A 
ATOM     37  C   UNL     1       8.340  -1.148  25.959  0.00  0.00    +0.010 A 
ATOM     38  C   UNL     1       7.632   0.040  26.042  0.00  0.00    +0.004 A 
BRANCH  36  39
ATOM     39  C   UNL     1       8.730  -3.363  24.884  0.00  0.00    +0.371 C 
ATOM     40  F   UNL     1       8.765  -4.011  26.090  0.00  0.00    -0.187 F 
ATOM     41  F   UNL     1      10.032  -3.342  24.465  0.00  0.00    -0.187 F 
BRANCH  39  42
ATOM     42  P   UNL     1       7.925  -4.642  23.851  0.00  0.00    +0.401 P 
ATOM     43  O   UNL     1       7.245  -5.723  22.976  0.00  0.00    -0.252 OA
BRANCH  42  44
ATOM     44  O   UNL     1       6.990  -5.067  25.173  0.00  0.00    -0.320 OA
ATOM     45  H   UNL     1       7.449  -5.050  26.038  0.00  0.00    +0.220 HD
ENDBRANCH  42  44
BRANCH  42  46
ATOM     46  O   UNL     1       9.196  -5.639  24.252  0.00  0.00    -0.320 OA
ATOM     47  H   UNL     1       8.874  -6.371  24.819  0.00  0.00    +0.220 HD
ENDBRANCH  42  46
ENDBRANCH  39  42
ENDBRANCH  36  39
ENDBRANCH  32  33
ENDBRANCH  26  32
ENDBRANCH   1  26
TORSDOF 12
ENDMDL
