MODEL 1
REMARK VINA RESULT:      -7.1      0.000      0.000
REMARK  Name = 
REMARK  20 active torsions:
REMARK  status: ('A' for Active; 'I' for Inactive)
REMARK    1  A    between atoms: O_1  and  C_2
REMARK    2  A    between atoms: C_2  and  C_3
REMARK    3  A    between atoms: C_6  and  S_8
REMARK    4  A    between atoms: S_8  and  C_9
REMARK    5  A    between atoms: C_11  and  O_13
REMARK    6  A    between atoms: C_14  and  C_16
REMARK    7  A    between atoms: C_16  and  O_17
REMARK    8  A    between atoms: C_19  and  O_21
REMARK    9  A    between atoms: O_21  and  C_22
REMARK   10  A    between atoms: C_24  and  O_26
REMARK   11  A    between atoms: C_27  and  C_29
REMARK   12  A    between atoms: C_29  and  O_30
REMARK   13  A    between atoms: C_32  and  O_34
REMARK   14  A    between atoms: O_34  and  C_35
REMARK   15  A    between atoms: C_38  and  N_41
REMARK   16  A    between atoms: C_44  and  O_46
REMARK   17  A    between atoms: C_47  and  O_49
REMARK   18  A    between atoms: C_50  and  O_52
REMARK   19  A    between atoms: C_53  and  O_55
REMARK   20  A    between atoms: C_56  and  O_58
REMARK                            x       y       z     vdW  Elec       q    Type
REMARK                         _______ _______ _______ _____ _____    ______ ____
ROOT
ATOM      1  C   UNL     1       8.394   0.962  25.216  0.00  0.00    +0.113 C 
ATOM      2  C   UNL     1       7.266  -0.100  25.135  0.00  0.00    +0.186 C 
ATOM      3  C   UNL     1       7.947  -1.458  24.885  0.00  0.00    +0.281 C 
ATOM      4  O   UNL     1       8.642  -1.454  23.658  0.00  0.00    -0.341 OA
ATOM      5  C   UNL     1       9.763  -0.574  23.666  0.00  0.00    +0.176 C 
ATOM      6  C   UNL     1       9.354   0.873  24.001  0.00  0.00    +0.161 C 
ENDROOT
BRANCH   6   7
ATOM      7  O   UNL     1      10.567   1.605  24.213  0.00  0.00    -0.388 OA
ATOM      8  H   UNL     1      10.351   2.541  24.398  0.00  0.00    +0.210 HD
ENDBRANCH   6   7
BRANCH   2   9
ATOM      9  O   UNL     1       6.518  -0.152  26.365  0.00  0.00    -0.386 OA
ATOM     10  H   UNL     1       7.127  -0.002  27.109  0.00  0.00    +0.210 HD
ENDBRANCH   2   9
BRANCH   3  11
ATOM     11  O   UNL     1       7.028  -2.552  24.901  0.00  0.00    -0.340 OA
BRANCH  11  12
ATOM     12  C   UNL     1       6.021  -2.494  23.852  0.00  0.00    +0.187 C 
ATOM     13  C   UNL     1       4.682  -2.950  24.467  0.00  0.00    +0.214 C 
ATOM     14  C   UNL     1       4.799  -4.432  24.929  0.00  0.00    +0.339 C 
ATOM     15  O   UNL     1       5.256  -5.282  23.855  0.00  0.00    -0.331 OA
ATOM     16  C   UNL     1       6.515  -4.856  23.331  0.00  0.00    +0.179 C 
ATOM     17  C   UNL     1       6.308  -3.469  22.684  0.00  0.00    +0.177 C 
BRANCH  17  18
ATOM     18  O   UNL     1       7.398  -3.048  21.857  0.00  0.00    -0.386 OA
ATOM     19  H   UNL     1       8.039  -3.787  21.838  0.00  0.00    +0.210 HD
ENDBRANCH  17  18
BRANCH  13  20
ATOM     20  O   UNL     1       4.291  -2.068  25.527  0.00  0.00    -0.383 OA
ATOM     21  H   UNL     1       3.343  -1.875  25.413  0.00  0.00    +0.210 HD
ENDBRANCH  13  20
BRANCH  14  22
ATOM     22  O   UNL     1       3.498  -4.835  25.377  0.00  0.00    -0.461 OA
BRANCH  22  23
ATOM     23  C   UNL     1       2.853  -5.808  24.665  0.00  0.00    +0.124 A 
ATOM     24  C   UNL     1       2.182  -5.344  23.528  0.00  0.00    +0.052 A 
ATOM     25  C   UNL     1       1.524  -6.235  22.677  0.00  0.00    +0.088 A 
ATOM     26  C   UNL     1       1.547  -7.604  22.968  0.00  0.00    +0.273 A 
ATOM     27  C   UNL     1       2.187  -8.073  24.120  0.00  0.00    +0.088 A 
ATOM     28  C   UNL     1       2.837  -7.170  24.965  0.00  0.00    +0.052 A 
BRANCH  26  29
ATOM     29  N   UNL     1       0.897  -8.558  22.067  0.00  0.00    +0.080 N 
ATOM     30  O   UNL     1       0.844  -8.266  20.863  0.00  0.00    +0.041 OA
ATOM     31  O   UNL     1       0.443  -9.601  22.557  0.00  0.00    -0.576 OA
ENDBRANCH  26  29
ENDBRANCH  22  23
ENDBRANCH  14  22
BRANCH  16  32
ATOM     32  C   UNL     1       7.117  -5.888  22.378  0.00  0.00    +0.190 C 
BRANCH  32  33
ATOM     33  O   UNL     1       6.585  -5.712  21.061  0.00  0.00    -0.392 OA
ATOM     34  H   UNL     1       7.335  -5.383  20.519  0.00  0.00    +0.210 HD
ENDBRANCH  32  33
ENDBRANCH  16  32
ENDBRANCH  11  12
ENDBRANCH   3  11
BRANCH   1  35
ATOM     35  S   UNL     1       7.652   2.652  25.411  0.00  0.00    -0.118 S 
BRANCH  35  40
ATOM     36  C   UNL     1       8.782   5.524  23.478  0.00  0.00    +0.176 C 
ATOM     37  C   UNL     1       7.472   6.063  22.872  0.00  0.00    +0.176 C 
ATOM     38  C   UNL     1       6.235   5.291  23.350  0.00  0.00    +0.177 C 
ATOM     39  C   UNL     1       6.417   3.794  23.133  0.00  0.00    +0.184 C 
ATOM     40  C   UNL     1       7.761   3.278  23.694  0.00  0.00    +0.207 C 
ATOM     41  O   UNL     1       8.919   4.089  23.472  0.00  0.00    -0.355 OA
BRANCH  39  42
ATOM     42  O   UNL     1       6.337   3.542  21.710  0.00  0.00    -0.386 OA
ATOM     43  H   UNL     1       5.585   2.941  21.556  0.00  0.00    +0.210 HD
ENDBRANCH  39  42
BRANCH  38  44
ATOM     44  O   UNL     1       5.889   5.586  24.699  0.00  0.00    -0.386 OA
ATOM     45  H   UNL     1       5.439   4.804  25.092  0.00  0.00    +0.210 HD
ENDBRANCH  38  44
BRANCH  37  46
ATOM     46  O   UNL     1       7.613   6.025  21.441  0.00  0.00    -0.386 OA
ATOM     47  H   UNL     1       6.785   6.349  21.038  0.00  0.00    +0.210 HD
ENDBRANCH  37  46
BRANCH  36  48
ATOM     48  C   UNL     1       9.111   6.157  24.843  0.00  0.00    +0.190 C 
BRANCH  48  49
ATOM     49  O   UNL     1      10.471   6.558  24.948  0.00  0.00    -0.392 OA
ATOM     50  H   UNL     1      10.999   5.750  25.097  0.00  0.00    +0.210 HD
ENDBRANCH  48  49
ENDBRANCH  36  48
ENDBRANCH  35  40
ENDBRANCH   1  35
BRANCH   5  51
ATOM     51  C   UNL     1      10.419  -0.650  22.277  0.00  0.00    +0.190 C 
BRANCH  51  52
ATOM     52  O   UNL     1      10.078  -1.880  21.632  0.00  0.00    -0.392 OA
ATOM     53  H   UNL     1      10.902  -2.366  21.469  0.00  0.00    +0.210 HD
ENDBRANCH  51  52
ENDBRANCH   5  51
TORSDOF 20
ENDMDL
MODEL 2
REMARK VINA RESULT:      -6.8      2.103      2.624
REMARK  Name = 
REMARK  20 active torsions:
REMARK  status: ('A' for Active; 'I' for Inactive)
REMARK    1  A    between atoms: O_1  and  C_2
REMARK    2  A    between atoms: C_2  and  C_3
REMARK    3  A    between atoms: C_6  and  S_8
REMARK    4  A    between atoms: S_8  and  C_9
REMARK    5  A    between atoms: C_11  and  O_13
REMARK    6  A    between atoms: C_14  and  C_16
REMARK    7  A    between atoms: C_16  and  O_17
REMARK    8  A    between atoms: C_19  and  O_21
REMARK    9  A    between atoms: O_21  and  C_22
REMARK   10  A    between atoms: C_24  and  O_26
REMARK   11  A    between atoms: C_27  and  C_29
REMARK   12  A    between atoms: C_29  and  O_30
REMARK   13  A    between atoms: C_32  and  O_34
REMARK   14  A    between atoms: O_34  and  C_35
REMARK   15  A    between atoms: C_38  and  N_41
REMARK   16  A    between atoms: C_44  and  O_46
REMARK   17  A    between atoms: C_47  and  O_49
REMARK   18  A    between atoms: C_50  and  O_52
REMARK   19  A    between atoms: C_53  and  O_55
REMARK   20  A    between atoms: C_56  and  O_58
REMARK                            x       y       z     vdW  Elec       q    Type
REMARK                         _______ _______ _______ _____ _____    ______ ____
ROOT
ATOM      1  C   UNL     1       8.781   2.400  24.906  0.00  0.00    +0.113 C 
ATOM      2  C   UNL     1       8.026   1.190  25.517  0.00  0.00    +0.186 C 
ATOM      3  C   UNL     1       8.797  -0.075  25.098  0.00  0.00    +0.281 C 
ATOM      4  O   UNL     1       8.804  -0.219  23.695  0.00  0.00    -0.341 OA
ATOM      5  C   UNL     1       9.560   0.800  23.045  0.00  0.00    +0.176 C 
ATOM      6  C   UNL     1       9.040   2.208  23.390  0.00  0.00    +0.161 C 
ENDROOT
BRANCH   6   7
ATOM      7  O   UNL     1      10.004   3.138  22.882  0.00  0.00    -0.388 OA
ATOM      8  H   UNL     1      10.842   2.667  22.699  0.00  0.00    +0.210 HD
ENDBRANCH   6   7
BRANCH   2   9
ATOM      9  O   UNL     1       7.987   1.278  26.954  0.00  0.00    -0.386 OA
ATOM     10  H   UNL     1       7.182   1.758  27.217  0.00  0.00    +0.210 HD
ENDBRANCH   2   9
BRANCH   3  11
ATOM     11  O   UNL     1       8.275  -1.267  25.689  0.00  0.00    -0.340 OA
BRANCH  11  12
ATOM     12  C   UNL     1       7.606  -2.151  24.746  0.00  0.00    +0.187 C 
ATOM     13  C   UNL     1       6.289  -2.617  25.398  0.00  0.00    +0.214 C 
ATOM     14  C   UNL     1       6.605  -3.444  26.677  0.00  0.00    +0.339 C 
ATOM     15  O   UNL     1       7.518  -4.527  26.390  0.00  0.00    -0.331 OA
ATOM     16  C   UNL     1       8.743  -4.060  25.821  0.00  0.00    +0.179 C 
ATOM     17  C   UNL     1       8.413  -3.438  24.447  0.00  0.00    +0.177 C 
BRANCH  17  18
ATOM     18  O   UNL     1       9.564  -3.201  23.629  0.00  0.00    -0.386 OA
ATOM     19  H   UNL     1      10.112  -4.010  23.672  0.00  0.00    +0.210 HD
ENDBRANCH  17  18
BRANCH  13  20
ATOM     20  O   UNL     1       5.435  -1.496  25.659  0.00  0.00    -0.383 OA
ATOM     21  H   UNL     1       5.881  -0.701  25.316  0.00  0.00    +0.210 HD
ENDBRANCH  13  20
BRANCH  14  22
ATOM     22  O   UNL     1       5.357  -3.950  27.169  0.00  0.00    -0.461 OA
BRANCH  22  23
ATOM     23  C   UNL     1       4.647  -4.790  26.358  0.00  0.00    +0.124 A 
ATOM     24  C   UNL     1       5.054  -6.128  26.410  0.00  0.00    +0.052 A 
ATOM     25  C   UNL     1       4.383  -7.106  25.673  0.00  0.00    +0.088 A 
ATOM     26  C   UNL     1       3.289  -6.737  24.881  0.00  0.00    +0.273 A 
ATOM     27  C   UNL     1       2.895  -5.396  24.796  0.00  0.00    +0.088 A 
ATOM     28  C   UNL     1       3.579  -4.429  25.536  0.00  0.00    +0.052 A 
BRANCH  26  29
ATOM     29  N   UNL     1       2.547  -7.753  24.132  0.00  0.00    +0.080 N 
ATOM     30  O   UNL     1       2.022  -7.409  23.063  0.00  0.00    +0.041 OA
ATOM     31  O   UNL     1       2.491  -8.896  24.607  0.00  0.00    -0.576 OA
ENDBRANCH  26  29
ENDBRANCH  22  23
ENDBRANCH  14  22
BRANCH  16  32
ATOM     32  C   UNL     1       9.798  -5.162  25.753  0.00  0.00    +0.190 C 
BRANCH  32  33
ATOM     33  O   UNL     1       9.661  -5.902  24.535  0.00  0.00    -0.392 OA
ATOM     34  H   UNL     1      10.578  -6.126  24.261  0.00  0.00    +0.210 HD
ENDBRANCH  32  33
ENDBRANCH  16  32
ENDBRANCH  11  12
ENDBRANCH   3  11
BRANCH   1  35
ATOM     35  S   UNL     1       7.856   3.966  25.275  0.00  0.00    -0.118 S 
BRANCH  35  40
ATOM     36  C   UNL     1       6.726   5.728  22.295  0.00  0.00    +0.176 C 
ATOM     37  C   UNL     1       5.335   6.242  22.711  0.00  0.00    +0.176 C 
ATOM     38  C   UNL     1       4.994   5.918  24.171  0.00  0.00    +0.177 C 
ATOM     39  C   UNL     1       5.187   4.434  24.454  0.00  0.00    +0.184 C 
ATOM     40  C   UNL     1       6.564   3.920  23.979  0.00  0.00    +0.207 C 
ATOM     41  O   UNL     1       7.036   4.383  22.710  0.00  0.00    -0.355 OA
BRANCH  39  42
ATOM     42  O   UNL     1       4.124   3.715  23.781  0.00  0.00    -0.386 OA
ATOM     43  H   UNL     1       4.335   2.765  23.824  0.00  0.00    +0.210 HD
ENDBRANCH  39  42
BRANCH  38  44
ATOM     44  O   UNL     1       5.715   6.725  25.097  0.00  0.00    -0.386 OA
ATOM     45  H   UNL     1       5.271   7.601  25.169  0.00  0.00    +0.210 HD
ENDBRANCH  38  44
BRANCH  37  46
ATOM     46  O   UNL     1       4.378   5.679  21.795  0.00  0.00    -0.386 OA
ATOM     47  H   UNL     1       3.732   6.370  21.557  0.00  0.00    +0.210 HD
ENDBRANCH  37  46
BRANCH  36  48
ATOM     48  C   UNL     1       7.850   6.732  22.613  0.00  0.00    +0.190 C 
BRANCH  48  49
ATOM     49  O   UNL     1       9.127   6.115  22.707  0.00  0.00    -0.392 OA
ATOM     50  H   UNL     1       9.574   6.493  23.488  0.00  0.00    +0.210 HD
ENDBRANCH  48  49
ENDBRANCH  36  48
ENDBRANCH  35  40
ENDBRANCH   1  35
BRANCH   5  51
ATOM     51  C   UNL     1       9.475   0.541  21.531  0.00  0.00    +0.190 C 
BRANCH  51  52
ATOM     52  O   UNL     1       8.647   1.523  20.903  0.00  0.00    -0.392 OA
ATOM     53  H   UNL     1       7.803   1.548  21.382  0.00  0.00    +0.210 HD
ENDBRANCH  51  52
ENDBRANCH   5  51
TORSDOF 20
ENDMDL
MODEL 3
REMARK VINA RESULT:      -6.6      3.559      8.840
REMARK  Name = 
REMARK  20 active torsions:
REMARK  status: ('A' for Active; 'I' for Inactive)
REMARK    1  A    between atoms: O_1  and  C_2
REMARK    2  A    between atoms: C_2  and  C_3
REMARK    3  A    between atoms: C_6  and  S_8
REMARK    4  A    between atoms: S_8  and  C_9
REMARK    5  A    between atoms: C_11  and  O_13
REMARK    6  A    between atoms: C_14  and  C_16
REMARK    7  A    between atoms: C_16  and  O_17
REMARK    8  A    between atoms: C_19  and  O_21
REMARK    9  A    between atoms: O_21  and  C_22
REMARK   10  A    between atoms: C_24  and  O_26
REMARK   11  A    between atoms: C_27  and  C_29
REMARK   12  A    between atoms: C_29  and  O_30
REMARK   13  A    between atoms: C_32  and  O_34
REMARK   14  A    between atoms: O_34  and  C_35
REMARK   15  A    between atoms: C_38  and  N_41
REMARK   16  A    between atoms: C_44  and  O_46
REMARK   17  A    between atoms: C_47  and  O_49
REMARK   18  A    between atoms: C_50  and  O_52
REMARK   19  A    between atoms: C_53  and  O_55
REMARK   20  A    between atoms: C_56  and  O_58
REMARK                            x       y       z     vdW  Elec       q    Type
REMARK                         _______ _______ _______ _____ _____    ______ ____
ROOT
ATOM      1  C   UNL     1       5.199   2.178  26.708  0.00  0.00    +0.113 C 
ATOM      2  C   UNL     1       6.656   2.376  26.211  0.00  0.00    +0.186 C 
ATOM      3  C   UNL     1       6.725   3.775  25.574  0.00  0.00    +0.281 C 
ATOM      4  O   UNL     1       5.861   3.865  24.463  0.00  0.00    -0.341 OA
ATOM      5  C   UNL     1       4.486   3.791  24.831  0.00  0.00    +0.176 C 
ATOM      6  C   UNL     1       4.167   2.492  25.595  0.00  0.00    +0.161 C 
ENDROOT
BRANCH   6   7
ATOM      7  O   UNL     1       2.839   2.634  26.112  0.00  0.00    -0.388 OA
ATOM      8  H   UNL     1       2.199   2.601  25.373  0.00  0.00    +0.210 HD
ENDBRANCH   6   7
BRANCH   2   9
ATOM      9  O   UNL     1       7.589   2.296  27.306  0.00  0.00    -0.386 OA
ATOM     10  H   UNL     1       7.438   3.050  27.903  0.00  0.00    +0.210 HD
ENDBRANCH   2   9
BRANCH   3  11
ATOM     11  O   UNL     1       8.046   4.140  25.172  0.00  0.00    -0.340 OA
BRANCH  11  12
ATOM     12  C   UNL     1       8.121   4.715  23.837  0.00  0.00    +0.187 C 
ATOM     13  C   UNL     1       8.610   3.609  22.880  0.00  0.00    +0.214 C 
ATOM     14  C   UNL     1      10.047   3.167  23.286  0.00  0.00    +0.339 C 
ATOM     15  O   UNL     1      10.942   4.299  23.361  0.00  0.00    -0.331 OA
ATOM     16  C   UNL     1      10.480   5.290  24.281  0.00  0.00    +0.179 C 
ATOM     17  C   UNL     1       9.156   5.861  23.729  0.00  0.00    +0.177 C 
BRANCH  17  18
ATOM     18  O   UNL     1       8.731   7.064  24.378  0.00  0.00    -0.386 OA
ATOM     19  H   UNL     1       7.768   7.145  24.219  0.00  0.00    +0.210 HD
ENDBRANCH  17  18
BRANCH  13  20
ATOM     20  O   UNL     1       7.681   2.518  22.858  0.00  0.00    -0.383 OA
ATOM     21  H   UNL     1       6.790   2.894  22.745  0.00  0.00    +0.210 HD
ENDBRANCH  13  20
BRANCH  14  22
ATOM     22  O   UNL     1      10.494   2.232  22.295  0.00  0.00    -0.461 OA
BRANCH  22  23
ATOM     23  C   UNL     1      10.184   0.914  22.479  0.00  0.00    +0.124 A 
ATOM     24  C   UNL     1      10.456   0.429  23.763  0.00  0.00    +0.052 A 
ATOM     25  C   UNL     1      10.141  -0.887  24.109  0.00  0.00    +0.088 A 
ATOM     26  C   UNL     1       9.542  -1.721  23.157  0.00  0.00    +0.273 A 
ATOM     27  C   UNL     1       9.296  -1.255  21.861  0.00  0.00    +0.088 A 
ATOM     28  C   UNL     1       9.621   0.062  21.528  0.00  0.00    +0.052 A 
BRANCH  26  29
ATOM     29  N   UNL     1       9.167  -3.091  23.512  0.00  0.00    +0.080 N 
ATOM     30  O   UNL     1       8.221  -3.605  22.897  0.00  0.00    +0.041 OA
ATOM     31  O   UNL     1       9.817  -3.657  24.402  0.00  0.00    -0.576 OA
ENDBRANCH  26  29
ENDBRANCH  22  23
ENDBRANCH  14  22
BRANCH  16  32
ATOM     32  C   UNL     1      11.539   6.357  24.551  0.00  0.00    +0.190 C 
BRANCH  32  33
ATOM     33  O   UNL     1      12.828   5.887  24.144  0.00  0.00    -0.392 OA
ATOM     34  H   UNL     1      13.166   6.562  23.516  0.00  0.00    +0.210 HD
ENDBRANCH  32  33
ENDBRANCH  16  32
ENDBRANCH  11  12
ENDBRANCH   3  11
BRANCH   1  35
ATOM     35  S   UNL     1       5.000   0.467  27.398  0.00  0.00    -0.118 S 
BRANCH  35  40
ATOM     36  C   UNL     1       4.504  -2.939  26.209  0.00  0.00    +0.176 C 
ATOM     37  C   UNL     1       5.832  -3.246  25.491  0.00  0.00    +0.176 C 
ATOM     38  C   UNL     1       6.849  -2.103  25.610  0.00  0.00    +0.177 C 
ATOM     39  C   UNL     1       6.230  -0.782  25.174  0.00  0.00    +0.184 C 
ATOM     40  C   UNL     1       4.871  -0.516  25.859  0.00  0.00    +0.207 C 
ATOM     41  O   UNL     1       3.970  -1.620  25.981  0.00  0.00    -0.355 OA
BRANCH  39  42
ATOM     42  O   UNL     1       6.067  -0.825  23.736  0.00  0.00    -0.386 OA
ATOM     43  H   UNL     1       5.965  -1.758  23.476  0.00  0.00    +0.210 HD
ENDBRANCH  39  42
BRANCH  38  44
ATOM     44  O   UNL     1       7.421  -2.009  26.911  0.00  0.00    -0.386 OA
ATOM     45  H   UNL     1       6.796  -2.400  27.563  0.00  0.00    +0.210 HD
ENDBRANCH  38  44
BRANCH  37  46
ATOM     46  O   UNL     1       5.519  -3.548  24.120  0.00  0.00    -0.386 OA
ATOM     47  H   UNL     1       5.037  -4.396  24.090  0.00  0.00    +0.210 HD
ENDBRANCH  37  46
BRANCH  36  48
ATOM     48  C   UNL     1       4.530  -3.332  27.699  0.00  0.00    +0.190 C 
BRANCH  48  49
ATOM     49  O   UNL     1       5.599  -4.213  28.015  0.00  0.00    -0.392 OA
ATOM     50  H   UNL     1       5.282  -5.122  27.850  0.00  0.00    +0.210 HD
ENDBRANCH  48  49
ENDBRANCH  36  48
ENDBRANCH  35  40
ENDBRANCH   1  35
BRANCH   5  51
ATOM     51  C   UNL     1       3.657   3.883  23.539  0.00  0.00    +0.190 C 
BRANCH  51  52
ATOM     52  O   UNL     1       3.099   2.608  23.212  0.00  0.00    -0.392 OA
ATOM     53  H   UNL     1       3.099   2.524  22.245  0.00  0.00    +0.210 HD
ENDBRANCH  51  52
ENDBRANCH   5  51
TORSDOF 20
ENDMDL
MODEL 4
REMARK VINA RESULT:      -6.5      3.866     10.697
REMARK  Name = 
REMARK  20 active torsions:
REMARK  status: ('A' for Active; 'I' for Inactive)
REMARK    1  A    between atoms: O_1  and  C_2
REMARK    2  A    between atoms: C_2  and  C_3
REMARK    3  A    between atoms: C_6  and  S_8
REMARK    4  A    between atoms: S_8  and  C_9
REMARK    5  A    between atoms: C_11  and  O_13
REMARK    6  A    between atoms: C_14  and  C_16
REMARK    7  A    between atoms: C_16  and  O_17
REMARK    8  A    between atoms: C_19  and  O_21
REMARK    9  A    between atoms: O_21  and  C_22
REMARK   10  A    between atoms: C_24  and  O_26
REMARK   11  A    between atoms: C_27  and  C_29
REMARK   12  A    between atoms: C_29  and  O_30
REMARK   13  A    between atoms: C_32  and  O_34
REMARK   14  A    between atoms: O_34  and  C_35
REMARK   15  A    between atoms: C_38  and  N_41
REMARK   16  A    between atoms: C_44  and  O_46
REMARK   17  A    between atoms: C_47  and  O_49
REMARK   18  A    between atoms: C_50  and  O_52
REMARK   19  A    between atoms: C_53  and  O_55
REMARK   20  A    between atoms: C_56  and  O_58
REMARK                            x       y       z     vdW  Elec       q    Type
REMARK                         _______ _______ _______ _____ _____    ______ ____
ROOT
ATOM      1  C   UNL     1       7.055  -3.086  24.686  0.00  0.00    +0.113 C 
ATOM      2  C   UNL     1       7.159  -2.023  25.811  0.00  0.00    +0.186 C 
ATOM      3  C   UNL     1       7.422  -0.670  25.126  0.00  0.00    +0.281 C 
ATOM      4  O   UNL     1       8.644  -0.692  24.423  0.00  0.00    -0.341 OA
ATOM      5  C   UNL     1       8.616  -1.574  23.303  0.00  0.00    +0.176 C 
ATOM      6  C   UNL     1       8.264  -3.015  23.717  0.00  0.00    +0.161 C 
ENDROOT
BRANCH   6   7
ATOM      7  O   UNL     1       8.034  -3.746  22.508  0.00  0.00    -0.388 OA
ATOM      8  H   UNL     1       8.845  -4.238  22.269  0.00  0.00    +0.210 HD
ENDBRANCH   6   7
BRANCH   2   9
ATOM      9  O   UNL     1       5.935  -1.952  26.568  0.00  0.00    -0.386 OA
ATOM     10  H   UNL     1       6.154  -1.872  27.513  0.00  0.00    +0.210 HD
ENDBRANCH   2   9
BRANCH   3  11
ATOM     11  O   UNL     1       7.428   0.426  26.043  0.00  0.00    -0.340 OA
BRANCH  11  12
ATOM     12  C   UNL     1       6.244   1.269  25.963  0.00  0.00    +0.187 C 
ATOM     13  C   UNL     1       6.594   2.483  25.080  0.00  0.00    +0.214 C 
ATOM     14  C   UNL     1       7.721   3.314  25.759  0.00  0.00    +0.339 C 
ATOM     15  O   UNL     1       7.365   3.673  27.113  0.00  0.00    -0.331 OA
ATOM     16  C   UNL     1       7.081   2.526  27.916  0.00  0.00    +0.179 C 
ATOM     17  C   UNL     1       5.821   1.848  27.336  0.00  0.00    +0.177 C 
BRANCH  17  18
ATOM     18  O   UNL     1       5.241   0.868  28.204  0.00  0.00    -0.386 OA
ATOM     19  H   UNL     1       5.904   0.156  28.308  0.00  0.00    +0.210 HD
ENDBRANCH  17  18
BRANCH  13  20
ATOM     20  O   UNL     1       6.942   2.056  23.756  0.00  0.00    -0.383 OA
ATOM     21  H   UNL     1       7.712   1.464  23.832  0.00  0.00    +0.210 HD
ENDBRANCH  13  20
BRANCH  14  22
ATOM     22  O   UNL     1       7.918   4.487  24.959  0.00  0.00    -0.461 OA
BRANCH  22  23
ATOM     23  C   UNL     1       9.177   4.732  24.488  0.00  0.00    +0.124 A 
ATOM     24  C   UNL     1       9.818   3.616  23.938  0.00  0.00    +0.052 A 
ATOM     25  C   UNL     1      11.089   3.731  23.371  0.00  0.00    +0.088 A 
ATOM     26  C   UNL     1      11.719   4.981  23.352  0.00  0.00    +0.273 A 
ATOM     27  C   UNL     1      11.101   6.096  23.928  0.00  0.00    +0.088 A 
ATOM     28  C   UNL     1       9.832   5.964  24.496  0.00  0.00    +0.052 A 
BRANCH  26  29
ATOM     29  N   UNL     1      13.035   5.131  22.726  0.00  0.00    +0.080 N 
ATOM     30  O   UNL     1      14.028   4.806  23.393  0.00  0.00    +0.041 OA
ATOM     31  O   UNL     1      13.078   5.570  21.568  0.00  0.00    -0.576 OA
ENDBRANCH  26  29
ENDBRANCH  22  23
ENDBRANCH  14  22
BRANCH  16  32
ATOM     32  C   UNL     1       6.955   2.882  29.396  0.00  0.00    +0.190 C 
BRANCH  32  33
ATOM     33  O   UNL     1       8.141   2.495  30.099  0.00  0.00    -0.392 OA
ATOM     34  H   UNL     1       7.886   1.707  30.627  0.00  0.00    +0.210 HD
ENDBRANCH  32  33
ENDBRANCH  16  32
ENDBRANCH  11  12
ENDBRANCH   3  11
BRANCH   1  35
ATOM     35  S   UNL     1       6.843  -4.771  25.433  0.00  0.00    -0.118 S 
BRANCH  35  40
ATOM     36  C   UNL     1       3.305  -4.766  26.293  0.00  0.00    +0.176 C 
ATOM     37  C   UNL     1       2.963  -6.267  26.337  0.00  0.00    +0.176 C 
ATOM     38  C   UNL     1       4.187  -7.162  26.104  0.00  0.00    +0.177 C 
ATOM     39  C   UNL     1       4.917  -6.757  24.830  0.00  0.00    +0.184 C 
ATOM     40  C   UNL     1       5.201  -5.240  24.773  0.00  0.00    +0.207 C 
ATOM     41  O   UNL     1       4.159  -4.360  25.205  0.00  0.00    -0.355 OA
BRANCH  39  42
ATOM     42  O   UNL     1       4.096  -7.156  23.706  0.00  0.00    -0.386 OA
ATOM     43  H   UNL     1       4.438  -6.705  22.913  0.00  0.00    +0.210 HD
ENDBRANCH  39  42
BRANCH  38  44
ATOM     44  O   UNL     1       5.067  -7.194  27.223  0.00  0.00    -0.386 OA
ATOM     45  H   UNL     1       5.101  -8.112  27.577  0.00  0.00    +0.210 HD
ENDBRANCH  38  44
BRANCH  37  46
ATOM     46  O   UNL     1       1.930  -6.501  25.363  0.00  0.00    -0.386 OA
ATOM     47  H   UNL     1       1.724  -5.657  24.919  0.00  0.00    +0.210 HD
ENDBRANCH  37  46
BRANCH  36  48
ATOM     48  C   UNL     1       3.764  -4.220  27.658  0.00  0.00    +0.190 C 
BRANCH  48  49
ATOM     49  O   UNL     1       3.389  -5.063  28.740  0.00  0.00    -0.392 OA
ATOM     50  H   UNL     1       3.808  -5.932  28.588  0.00  0.00    +0.210 HD
ENDBRANCH  48  49
ENDBRANCH  36  48
ENDBRANCH  35  40
ENDBRANCH   1  35
BRANCH   5  51
ATOM     51  C   UNL     1      10.001  -1.518  22.638  0.00  0.00    +0.190 C 
BRANCH  51  52
ATOM     52  O   UNL     1       9.871  -1.537  21.213  0.00  0.00    -0.392 OA
ATOM     53  H   UNL     1      10.016  -0.632  20.892  0.00  0.00    +0.210 HD
ENDBRANCH  51  52
ENDBRANCH   5  51
TORSDOF 20
ENDMDL
MODEL 5
REMARK VINA RESULT:      -6.3      3.774     10.316
REMARK  Name = 
REMARK  20 active torsions:
REMARK  status: ('A' for Active; 'I' for Inactive)
REMARK    1  A    between atoms: O_1  and  C_2
REMARK    2  A    between atoms: C_2  and  C_3
REMARK    3  A    between atoms: C_6  and  S_8
REMARK    4  A    between atoms: S_8  and  C_9
REMARK    5  A    between atoms: C_11  and  O_13
REMARK    6  A    between atoms: C_14  and  C_16
REMARK    7  A    between atoms: C_16  and  O_17
REMARK    8  A    between atoms: C_19  and  O_21
REMARK    9  A    between atoms: O_21  and  C_22
REMARK   10  A    between atoms: C_24  and  O_26
REMARK   11  A    between atoms: C_27  and  C_29
REMARK   12  A    between atoms: C_29  and  O_30
REMARK   13  A    between atoms: C_32  and  O_34
REMARK   14  A    between atoms: O_34  and  C_35
REMARK   15  A    between atoms: C_38  and  N_41
REMARK   16  A    between atoms: C_44  and  O_46
REMARK   17  A    between atoms: C_47  and  O_49
REMARK   18  A    between atoms: C_50  and  O_52
REMARK   19  A    between atoms: C_53  and  O_55
REMARK   20  A    between atoms: C_56  and  O_58
REMARK                            x       y       z     vdW  Elec       q    Type
REMARK                         _______ _______ _______ _____ _____    ______ ____
ROOT
ATOM      1  C   UNL     1       6.731  -3.819  25.141  0.00  0.00    +0.113 C 
ATOM      2  C   UNL     1       6.476  -2.467  25.858  0.00  0.00    +0.186 C 
ATOM      3  C   UNL     1       6.939  -1.357  24.897  0.00  0.00    +0.281 C 
ATOM      4  O   UNL     1       8.320  -1.465  24.631  0.00  0.00    -0.341 OA
ATOM      5  C   UNL     1       8.644  -2.636  23.886  0.00  0.00    +0.176 C 
ATOM      6  C   UNL     1       8.182  -3.918  24.604  0.00  0.00    +0.161 C 
ENDROOT
BRANCH   6   7
ATOM      7  O   UNL     1       8.342  -4.993  23.670  0.00  0.00    -0.388 OA
ATOM      8  H   UNL     1       9.141  -4.833  23.128  0.00  0.00    +0.210 HD
ENDBRANCH   6   7
BRANCH   2   9
ATOM      9  O   UNL     1       5.077  -2.296  26.156  0.00  0.00    -0.386 OA
ATOM     10  H   UNL     1       4.945  -1.418  26.552  0.00  0.00    +0.210 HD
ENDBRANCH   2   9
BRANCH   3  11
ATOM     11  O   UNL     1       6.656  -0.044  25.385  0.00  0.00    -0.340 OA
BRANCH  11  12
ATOM     12  C   UNL     1       5.526   0.599  24.731  0.00  0.00    +0.187 C 
ATOM     13  C   UNL     1       6.090   1.658  23.761  0.00  0.00    +0.214 C 
ATOM     14  C   UNL     1       6.853   2.748  24.567  0.00  0.00    +0.339 C 
ATOM     15  O   UNL     1       6.023   3.308  25.609  0.00  0.00    -0.331 OA
ATOM     16  C   UNL     1       5.546   2.308  26.512  0.00  0.00    +0.179 C 
ATOM     17  C   UNL     1       4.614   1.368  25.718  0.00  0.00    +0.177 C 
BRANCH  17  18
ATOM     18  O   UNL     1       3.827   0.502  26.544  0.00  0.00    -0.386 OA
ATOM     19  H   UNL     1       4.437   0.106  27.198  0.00  0.00    +0.210 HD
ENDBRANCH  17  18
BRANCH  13  20
ATOM     20  O   UNL     1       6.906   1.036  22.760  0.00  0.00    -0.383 OA
ATOM     21  H   UNL     1       6.323   0.481  22.211  0.00  0.00    +0.210 HD
ENDBRANCH  13  20
BRANCH  14  22
ATOM     22  O   UNL     1       7.247   3.762  23.633  0.00  0.00    -0.461 OA
BRANCH  22  23
ATOM     23  C   UNL     1       8.565   4.122  23.602  0.00  0.00    +0.124 A 
ATOM     24  C   UNL     1       8.797   5.488  23.791  0.00  0.00    +0.052 A 
ATOM     25  C   UNL     1      10.100   5.990  23.835  0.00  0.00    +0.088 A 
ATOM     26  C   UNL     1      11.178   5.109  23.696  0.00  0.00    +0.273 A 
ATOM     27  C   UNL     1      10.956   3.745  23.474  0.00  0.00    +0.088 A 
ATOM     28  C   UNL     1       9.647   3.259  23.426  0.00  0.00    +0.052 A 
BRANCH  26  29
ATOM     29  N   UNL     1      12.552   5.609  23.780  0.00  0.00    +0.080 N 
ATOM     30  O   UNL     1      12.831   6.365  24.722  0.00  0.00    +0.041 OA
ATOM     31  O   UNL     1      13.355   5.246  22.909  0.00  0.00    -0.576 OA
ENDBRANCH  26  29
ENDBRANCH  22  23
ENDBRANCH  14  22
BRANCH  16  32
ATOM     32  C   UNL     1       4.886   2.921  27.746  0.00  0.00    +0.190 C 
BRANCH  32  33
ATOM     33  O   UNL     1       3.512   3.218  27.474  0.00  0.00    -0.392 OA
ATOM     34  H   UNL     1       3.347   2.879  26.567  0.00  0.00    +0.210 HD
ENDBRANCH  32  33
ENDBRANCH  16  32
ENDBRANCH  11  12
ENDBRANCH   3  11
BRANCH   1  35
ATOM     35  S   UNL     1       6.298  -5.221  26.277  0.00  0.00    -0.118 S 
BRANCH  35  40
ATOM     36  C   UNL     1       4.615  -5.257  23.048  0.00  0.00    +0.176 C 
ATOM     37  C   UNL     1       3.161  -5.599  23.425  0.00  0.00    +0.176 C 
ATOM     38  C   UNL     1       2.951  -5.704  24.941  0.00  0.00    +0.177 C 
ATOM     39  C   UNL     1       3.964  -6.657  25.562  0.00  0.00    +0.184 C 
ATOM     40  C   UNL     1       5.412  -6.338  25.128  0.00  0.00    +0.207 C 
ATOM     41  O   UNL     1       5.627  -6.003  23.754  0.00  0.00    -0.355 OA
BRANCH  39  42
ATOM     42  O   UNL     1       3.606  -8.002  25.164  0.00  0.00    -0.386 OA
ATOM     43  H   UNL     1       2.635  -8.078  25.214  0.00  0.00    +0.210 HD
ENDBRANCH  39  42
BRANCH  38  44
ATOM     44  O   UNL     1       2.961  -4.436  25.588  0.00  0.00    -0.386 OA
ATOM     45  H   UNL     1       2.309  -4.448  26.326  0.00  0.00    +0.210 HD
ENDBRANCH  38  44
BRANCH  37  46
ATOM     46  O   UNL     1       2.817  -6.819  22.746  0.00  0.00    -0.386 OA
ATOM     47  H   UNL     1       3.422  -6.936  21.990  0.00  0.00    +0.210 HD
ENDBRANCH  37  46
BRANCH  36  48
ATOM     48  C   UNL     1       4.884  -3.741  23.029  0.00  0.00    +0.190 C 
BRANCH  48  49
ATOM     49  O   UNL     1       5.359  -3.283  21.770  0.00  0.00    -0.392 OA
ATOM     50  H   UNL     1       5.600  -4.072  21.248  0.00  0.00    +0.210 HD
ENDBRANCH  48  49
ENDBRANCH  36  48
ENDBRANCH  35  40
ENDBRANCH   1  35
BRANCH   5  51
ATOM     51  C   UNL     1      10.167  -2.644  23.679  0.00  0.00    +0.190 C 
BRANCH  51  52
ATOM     52  O   UNL     1      10.513  -1.921  22.494  0.00  0.00    -0.392 OA
ATOM     53  H   UNL     1       9.751  -1.955  21.894  0.00  0.00    +0.210 HD
ENDBRANCH  51  52
ENDBRANCH   5  51
TORSDOF 20
ENDMDL
MODEL 6
REMARK VINA RESULT:      -6.3      2.180      3.091
REMARK  Name = 
REMARK  20 active torsions:
REMARK  status: ('A' for Active; 'I' for Inactive)
REMARK    1  A    between atoms: O_1  and  C_2
REMARK    2  A    between atoms: C_2  and  C_3
REMARK    3  A    between atoms: C_6  and  S_8
REMARK    4  A    between atoms: S_8  and  C_9
REMARK    5  A    between atoms: C_11  and  O_13
REMARK    6  A    between atoms: C_14  and  C_16
REMARK    7  A    between atoms: C_16  and  O_17
REMARK    8  A    between atoms: C_19  and  O_21
REMARK    9  A    between atoms: O_21  and  C_22
REMARK   10  A    between atoms: C_24  and  O_26
REMARK   11  A    between atoms: C_27  and  C_29
REMARK   12  A    between atoms: C_29  and  O_30
REMARK   13  A    between atoms: C_32  and  O_34
REMARK   14  A    between atoms: O_34  and  C_35
REMARK   15  A    between atoms: C_38  and  N_41
REMARK   16  A    between atoms: C_44  and  O_46
REMARK   17  A    between atoms: C_47  and  O_49
REMARK   18  A    between atoms: C_50  and  O_52
REMARK   19  A    between atoms: C_53  and  O_55
REMARK   20  A    between atoms: C_56  and  O_58
REMARK                            x       y       z     vdW  Elec       q    Type
REMARK                         _______ _______ _______ _____ _____    ______ ____
ROOT
ATOM      1  C   UNL     1       7.128   1.622  24.833  0.00  0.00    +0.113 C 
ATOM      2  C   UNL     1       6.376   0.321  24.450  0.00  0.00    +0.186 C 
ATOM      3  C   UNL     1       7.440  -0.693  23.993  0.00  0.00    +0.281 C 
ATOM      4  O   UNL     1       8.125  -0.224  22.853  0.00  0.00    -0.341 OA
ATOM      5  C   UNL     1       8.927   0.922  23.129  0.00  0.00    +0.176 C 
ATOM      6  C   UNL     1       8.093   2.079  23.709  0.00  0.00    +0.161 C 
ENDROOT
BRANCH   6   7
ATOM      7  O   UNL     1       9.023   3.070  24.162  0.00  0.00    -0.388 OA
ATOM      8  H   UNL     1       9.361   3.571  23.392  0.00  0.00    +0.210 HD
ENDBRANCH   6   7
BRANCH   2   9
ATOM      9  O   UNL     1       5.655  -0.210  25.579  0.00  0.00    -0.386 OA
ATOM     10  H   UNL     1       6.062   0.126  26.396  0.00  0.00    +0.210 HD
ENDBRANCH   2   9
BRANCH   3  11
ATOM     11  O   UNL     1       6.896  -1.985  23.715  0.00  0.00    -0.340 OA
BRANCH  11  12
ATOM     12  C   UNL     1       7.700  -2.781  22.799  0.00  0.00    +0.187 C 
ATOM     13  C   UNL     1       6.804  -3.910  22.254  0.00  0.00    +0.214 C 
ATOM     14  C   UNL     1       6.364  -4.837  23.425  0.00  0.00    +0.339 C 
ATOM     15  O   UNL     1       7.505  -5.318  24.170  0.00  0.00    -0.331 OA
ATOM     16  C   UNL     1       8.295  -4.248  24.692  0.00  0.00    +0.179 C 
ATOM     17  C   UNL     1       8.894  -3.480  23.494  0.00  0.00    +0.177 C 
BRANCH  17  18
ATOM     18  O   UNL     1       9.942  -2.575  23.854  0.00  0.00    -0.386 OA
ATOM     19  H   UNL     1       9.518  -1.817  24.306  0.00  0.00    +0.210 HD
ENDBRANCH  17  18
BRANCH  13  20
ATOM     20  O   UNL     1       5.692  -3.365  21.532  0.00  0.00    -0.383 OA
ATOM     21  H   UNL     1       6.008  -2.571  21.063  0.00  0.00    +0.210 HD
ENDBRANCH  13  20
BRANCH  14  22
ATOM     22  O   UNL     1       5.639  -5.930  22.845  0.00  0.00    -0.461 OA
BRANCH  22  23
ATOM     23  C   UNL     1       4.443  -6.271  23.410  0.00  0.00    +0.124 A 
ATOM     24  C   UNL     1       4.546  -7.113  24.523  0.00  0.00    +0.052 A 
ATOM     25  C   UNL     1       3.406  -7.499  25.232  0.00  0.00    +0.088 A 
ATOM     26  C   UNL     1       2.153  -7.030  24.822  0.00  0.00    +0.273 A 
ATOM     27  C   UNL     1       2.036  -6.215  23.691  0.00  0.00    +0.088 A 
ATOM     28  C   UNL     1       3.184  -5.840  22.989  0.00  0.00    +0.052 A 
BRANCH  26  29
ATOM     29  N   UNL     1       0.950  -7.391  25.577  0.00  0.00    +0.080 N 
ATOM     30  O   UNL     1       0.509  -6.561  26.384  0.00  0.00    +0.041 OA
ATOM     31  O   UNL     1       0.443  -8.501  25.361  0.00  0.00    -0.576 OA
ENDBRANCH  26  29
ENDBRANCH  22  23
ENDBRANCH  14  22
BRANCH  16  32
ATOM     32  C   UNL     1       9.346  -4.746  25.683  0.00  0.00    +0.190 C 
BRANCH  32  33
ATOM     33  O   UNL     1      10.479  -5.267  24.980  0.00  0.00    -0.392 OA
ATOM     34  H   UNL     1      11.242  -4.725  25.277  0.00  0.00    +0.210 HD
ENDBRANCH  32  33
ENDBRANCH  16  32
ENDBRANCH  11  12
ENDBRANCH   3  11
BRANCH   1  35
ATOM     35  S   UNL     1       5.906   2.939  25.297  0.00  0.00    -0.118 S 
BRANCH  35  40
ATOM     36  C   UNL     1       5.270   5.056  22.403  0.00  0.00    +0.176 C 
ATOM     37  C   UNL     1       3.795   5.459  22.594  0.00  0.00    +0.176 C 
ATOM     38  C   UNL     1       3.198   4.924  23.902  0.00  0.00    +0.177 C 
ATOM     39  C   UNL     1       3.423   3.423  24.024  0.00  0.00    +0.184 C 
ATOM     40  C   UNL     1       4.895   3.028  23.773  0.00  0.00    +0.207 C 
ATOM     41  O   UNL     1       5.575   3.678  22.695  0.00  0.00    -0.355 OA
BRANCH  39  42
ATOM     42  O   UNL     1       2.557   2.768  23.066  0.00  0.00    -0.386 OA
ATOM     43  H   UNL     1       2.379   1.868  23.394  0.00  0.00    +0.210 HD
ENDBRANCH  39  42
BRANCH  38  44
ATOM     44  O   UNL     1       3.674   5.620  25.050  0.00  0.00    -0.386 OA
ATOM     45  H   UNL     1       3.243   5.246  25.852  0.00  0.00    +0.210 HD
ENDBRANCH  38  44
BRANCH  37  46
ATOM     46  O   UNL     1       3.071   4.995  21.441  0.00  0.00    -0.386 OA
ATOM     47  H   UNL     1       2.843   5.765  20.886  0.00  0.00    +0.210 HD
ENDBRANCH  37  46
BRANCH  36  48
ATOM     48  C   UNL     1       6.247   6.045  23.067  0.00  0.00    +0.190 C 
BRANCH  48  49
ATOM     49  O   UNL     1       7.330   6.399  22.218  0.00  0.00    -0.392 OA
ATOM     50  H   UNL     1       7.174   7.316  21.917  0.00  0.00    +0.210 HD
ENDBRANCH  48  49
ENDBRANCH  36  48
ENDBRANCH  35  40
ENDBRANCH   1  35
BRANCH   5  51
ATOM     51  C   UNL     1       9.601   1.340  21.811  0.00  0.00    +0.190 C 
BRANCH  51  52
ATOM     52  O   UNL     1      10.567   2.368  22.049  0.00  0.00    -0.392 OA
ATOM     53  H   UNL     1      10.806   2.337  22.990  0.00  0.00    +0.210 HD
ENDBRANCH  51  52
ENDBRANCH   5  51
TORSDOF 20
ENDMDL
MODEL 7
REMARK VINA RESULT:      -6.2      3.672     10.604
REMARK  Name = 
REMARK  20 active torsions:
REMARK  status: ('A' for Active; 'I' for Inactive)
REMARK    1  A    between atoms: O_1  and  C_2
REMARK    2  A    between atoms: C_2  and  C_3
REMARK    3  A    between atoms: C_6  and  S_8
REMARK    4  A    between atoms: S_8  and  C_9
REMARK    5  A    between atoms: C_11  and  O_13
REMARK    6  A    between atoms: C_14  and  C_16
REMARK    7  A    between atoms: C_16  and  O_17
REMARK    8  A    between atoms: C_19  and  O_21
REMARK    9  A    between atoms: O_21  and  C_22
REMARK   10  A    between atoms: C_24  and  O_26
REMARK   11  A    between atoms: C_27  and  C_29
REMARK   12  A    between atoms: C_29  and  O_30
REMARK   13  A    between atoms: C_32  and  O_34
REMARK   14  A    between atoms: O_34  and  C_35
REMARK   15  A    between atoms: C_38  and  N_41
REMARK   16  A    between atoms: C_44  and  O_46
REMARK   17  A    between atoms: C_47  and  O_49
REMARK   18  A    between atoms: C_50  and  O_52
REMARK   19  A    between atoms: C_53  and  O_55
REMARK   20  A    between atoms: C_56  and  O_58
REMARK                            x       y       z     vdW  Elec       q    Type
REMARK                         _______ _______ _______ _____ _____    ______ ____
ROOT
ATOM      1  C   UNL     1       5.196  -4.460  26.124  0.00  0.00    +0.113 C 
ATOM      2  C   UNL     1       5.299  -2.997  25.620  0.00  0.00    +0.186 C 
ATOM      3  C   UNL     1       6.531  -2.926  24.699  0.00  0.00    +0.281 C 
ATOM      4  O   UNL     1       7.709  -3.235  25.411  0.00  0.00    -0.341 OA
ATOM      5  C   UNL     1       7.752  -4.595  25.836  0.00  0.00    +0.176 C 
ATOM      6  C   UNL     1       6.540  -4.959  26.714  0.00  0.00    +0.161 C 
ENDROOT
BRANCH   6   7
ATOM      7  O   UNL     1       6.565  -6.382  26.879  0.00  0.00    -0.388 OA
ATOM      8  H   UNL     1       5.886  -6.643  27.533  0.00  0.00    +0.210 HD
ENDBRANCH   6   7
BRANCH   2   9
ATOM      9  O   UNL     1       4.121  -2.622  24.881  0.00  0.00    -0.386 OA
ATOM     10  H   UNL     1       3.337  -2.966  25.344  0.00  0.00    +0.210 HD
ENDBRANCH   2   9
BRANCH   3  11
ATOM     11  O   UNL     1       6.683  -1.653  24.069  0.00  0.00    -0.340 OA
BRANCH  11  12
ATOM     12  C   UNL     1       7.584  -0.750  24.770  0.00  0.00    +0.187 C 
ATOM     13  C   UNL     1       6.901   0.631  24.835  0.00  0.00    +0.214 C 
ATOM     14  C   UNL     1       6.704   1.184  23.394  0.00  0.00    +0.339 C 
ATOM     15  O   UNL     1       7.950   1.193  22.661  0.00  0.00    -0.331 OA
ATOM     16  C   UNL     1       8.539  -0.106  22.586  0.00  0.00    +0.179 C 
ATOM     17  C   UNL     1       8.922  -0.530  24.021  0.00  0.00    +0.177 C 
BRANCH  17  18
ATOM     18  O   UNL     1       9.789  -1.668  24.076  0.00  0.00    -0.386 OA
ATOM     19  H   UNL     1      10.541  -1.421  24.651  0.00  0.00    +0.210 HD
ENDBRANCH  17  18
BRANCH  13  20
ATOM     20  O   UNL     1       5.673   0.549  25.569  0.00  0.00    -0.383 OA
ATOM     21  H   UNL     1       5.285   1.442  25.592  0.00  0.00    +0.210 HD
ENDBRANCH  13  20
BRANCH  14  22
ATOM     22  O   UNL     1       6.181   2.512  23.521  0.00  0.00    -0.461 OA
BRANCH  22  23
ATOM     23  C   UNL     1       7.033   3.494  23.945  0.00  0.00    +0.124 A 
ATOM     24  C   UNL     1       7.008   3.727  25.324  0.00  0.00    +0.052 A 
ATOM     25  C   UNL     1       7.865   4.666  25.904  0.00  0.00    +0.088 A 
ATOM     26  C   UNL     1       8.759   5.371  25.090  0.00  0.00    +0.273 A 
ATOM     27  C   UNL     1       8.769   5.168  23.705  0.00  0.00    +0.088 A 
ATOM     28  C   UNL     1       7.903   4.230  23.140  0.00  0.00    +0.052 A 
BRANCH  26  29
ATOM     29  N   UNL     1       9.693   6.330  25.684  0.00  0.00    +0.080 N 
ATOM     30  O   UNL     1       9.518   6.642  26.871  0.00  0.00    +0.041 OA
ATOM     31  O   UNL     1      10.604   6.769  24.968  0.00  0.00    -0.576 OA
ENDBRANCH  26  29
ENDBRANCH  22  23
ENDBRANCH  14  22
BRANCH  16  32
ATOM     32  C   UNL     1       9.711  -0.147  21.607  0.00  0.00    +0.190 C 
BRANCH  32  33
ATOM     33  O   UNL     1      10.102  -1.503  21.361  0.00  0.00    -0.392 OA
ATOM     34  H   UNL     1       9.267  -2.021  21.374  0.00  0.00    +0.210 HD
ENDBRANCH  32  33
ENDBRANCH  16  32
ENDBRANCH  11  12
ENDBRANCH   3  11
BRANCH   1  35
ATOM     35  S   UNL     1       3.793  -4.610  27.330  0.00  0.00    -0.118 S 
BRANCH  35  40
ATOM     36  C   UNL     1       2.947  -7.338  25.070  0.00  0.00    +0.176 C 
ATOM     37  C   UNL     1       1.581  -7.809  25.603  0.00  0.00    +0.176 C 
ATOM     38  C   UNL     1       1.068  -6.950  26.766  0.00  0.00    +0.177 C 
ATOM     39  C   UNL     1       2.123  -6.835  27.858  0.00  0.00    +0.184 C 
ATOM     40  C   UNL     1       3.502  -6.417  27.301  0.00  0.00    +0.207 C 
ATOM     41  O   UNL     1       3.928  -7.028  26.079  0.00  0.00    -0.355 OA
BRANCH  39  42
ATOM     42  O   UNL     1       2.217  -8.121  28.518  0.00  0.00    -0.386 OA
ATOM     43  H   UNL     1       1.718  -8.765  27.984  0.00  0.00    +0.210 HD
ENDBRANCH  39  42
BRANCH  38  44
ATOM     44  O   UNL     1       0.610  -5.670  26.344  0.00  0.00    -0.386 OA
ATOM     45  H   UNL     1       1.369  -5.166  25.969  0.00  0.00    +0.210 HD
ENDBRANCH  38  44
BRANCH  37  46
ATOM     46  O   UNL     1       1.719  -9.193  25.974  0.00  0.00    -0.386 OA
ATOM     47  H   UNL     1       2.669  -9.412  26.008  0.00  0.00    +0.210 HD
ENDBRANCH  37  46
BRANCH  36  48
ATOM     48  C   UNL     1       2.819  -6.243  23.994  0.00  0.00    +0.190 C 
BRANCH  48  49
ATOM     49  O   UNL     1       3.124  -6.717  22.690  0.00  0.00    -0.392 OA
ATOM     50  H   UNL     1       2.274  -6.866  22.231  0.00  0.00    +0.210 HD
ENDBRANCH  48  49
ENDBRANCH  36  48
ENDBRANCH  35  40
ENDBRANCH   1  35
BRANCH   5  51
ATOM     51  C   UNL     1       9.067  -4.795  26.607  0.00  0.00    +0.190 C 
BRANCH  51  52
ATOM     52  O   UNL     1       9.977  -5.591  25.843  0.00  0.00    -0.392 OA
ATOM     53  H   UNL     1      10.830  -5.129  25.824  0.00  0.00    +0.210 HD
ENDBRANCH  51  52
ENDBRANCH   5  51
TORSDOF 20
ENDMDL
MODEL 8
REMARK VINA RESULT:      -6.2      4.117     10.615
REMARK  Name = 
REMARK  20 active torsions:
REMARK  status: ('A' for Active; 'I' for Inactive)
REMARK    1  A    between atoms: O_1  and  C_2
REMARK    2  A    between atoms: C_2  and  C_3
REMARK    3  A    between atoms: C_6  and  S_8
REMARK    4  A    between atoms: S_8  and  C_9
REMARK    5  A    between atoms: C_11  and  O_13
REMARK    6  A    between atoms: C_14  and  C_16
REMARK    7  A    between atoms: C_16  and  O_17
REMARK    8  A    between atoms: C_19  and  O_21
REMARK    9  A    between atoms: O_21  and  C_22
REMARK   10  A    between atoms: C_24  and  O_26
REMARK   11  A    between atoms: C_27  and  C_29
REMARK   12  A    between atoms: C_29  and  O_30
REMARK   13  A    between atoms: C_32  and  O_34
REMARK   14  A    between atoms: O_34  and  C_35
REMARK   15  A    between atoms: C_38  and  N_41
REMARK   16  A    between atoms: C_44  and  O_46
REMARK   17  A    between atoms: C_47  and  O_49
REMARK   18  A    between atoms: C_50  and  O_52
REMARK   19  A    between atoms: C_53  and  O_55
REMARK   20  A    between atoms: C_56  and  O_58
REMARK                            x       y       z     vdW  Elec       q    Type
REMARK                         _______ _______ _______ _____ _____    ______ ____
ROOT
ATOM      1  C   UNL     1       6.026  -4.441  25.634  0.00  0.00    +0.113 C 
ATOM      2  C   UNL     1       6.697  -3.065  25.887  0.00  0.00    +0.186 C 
ATOM      3  C   UNL     1       6.276  -2.142  24.730  0.00  0.00    +0.281 C 
ATOM      4  O   UNL     1       6.740  -2.640  23.495  0.00  0.00    -0.341 OA
ATOM      5  C   UNL     1       6.107  -3.862  23.125  0.00  0.00    +0.176 C 
ATOM      6  C   UNL     1       6.297  -4.954  24.195  0.00  0.00    +0.161 C 
ENDROOT
BRANCH   6   7
ATOM      7  O   UNL     1       5.434  -6.038  23.835  0.00  0.00    -0.388 OA
ATOM      8  H   UNL     1       5.944  -6.873  23.844  0.00  0.00    +0.210 HD
ENDBRANCH   6   7
BRANCH   2   9
ATOM      9  O   UNL     1       6.259  -2.502  27.139  0.00  0.00    -0.386 OA
ATOM     10  H   UNL     1       5.488  -3.003  27.456  0.00  0.00    +0.210 HD
ENDBRANCH   2   9
BRANCH   3  11
ATOM     11  O   UNL     1       6.733  -0.798  24.895  0.00  0.00    -0.340 OA
BRANCH  11  12
ATOM     12  C   UNL     1       5.666   0.191  24.915  0.00  0.00    +0.187 C 
ATOM     13  C   UNL     1       6.058   1.319  23.939  0.00  0.00    +0.214 C 
ATOM     14  C   UNL     1       7.356   2.014  24.442  0.00  0.00    +0.339 C 
ATOM     15  O   UNL     1       7.217   2.461  25.809  0.00  0.00    -0.331 OA
ATOM     16  C   UNL     1       6.889   1.388  26.694  0.00  0.00    +0.179 C 
ATOM     17  C   UNL     1       5.491   0.865  26.298  0.00  0.00    +0.177 C 
BRANCH  17  18
ATOM     18  O   UNL     1       4.900  -0.001  27.273  0.00  0.00    -0.386 OA
ATOM     19  H   UNL     1       4.244   0.534  27.764  0.00  0.00    +0.210 HD
ENDBRANCH  17  18
BRANCH  13  20
ATOM     20  O   UNL     1       6.185   0.807  22.606  0.00  0.00    -0.383 OA
ATOM     21  H   UNL     1       6.680   1.466  22.085  0.00  0.00    +0.210 HD
ENDBRANCH  13  20
BRANCH  14  22
ATOM     22  O   UNL     1       7.603   3.124  23.569  0.00  0.00    -0.461 OA
BRANCH  22  23
ATOM     23  C   UNL     1       8.868   3.640  23.537  0.00  0.00    +0.124 A 
ATOM     24  C   UNL     1       8.942   5.011  23.804  0.00  0.00    +0.052 A 
ATOM     25  C   UNL     1      10.177   5.662  23.857  0.00  0.00    +0.088 A 
ATOM     26  C   UNL     1      11.348   4.926  23.645  0.00  0.00    +0.273 A 
ATOM     27  C   UNL     1      11.283   3.560  23.344  0.00  0.00    +0.088 A 
ATOM     28  C   UNL     1      10.041   2.925  23.290  0.00  0.00    +0.052 A 
BRANCH  26  29
ATOM     29  N   UNL     1      12.655   5.581  23.736  0.00  0.00    +0.080 N 
ATOM     30  O   UNL     1      13.534   5.222  22.938  0.00  0.00    +0.041 OA
ATOM     31  O   UNL     1      12.805   6.456  24.600  0.00  0.00    -0.576 OA
ENDBRANCH  26  29
ENDBRANCH  22  23
ENDBRANCH  14  22
BRANCH  16  32
ATOM     32  C   UNL     1       6.990   1.805  28.160  0.00  0.00    +0.190 C 
BRANCH  32  33
ATOM     33  O   UNL     1       7.641   0.781  28.920  0.00  0.00    -0.392 OA
ATOM     34  H   UNL     1       8.598   0.875  28.718  0.00  0.00    +0.210 HD
ENDBRANCH  32  33
ENDBRANCH  16  32
ENDBRANCH  11  12
ENDBRANCH   3  11
BRANCH   1  35
ATOM     35  S   UNL     1       6.568  -5.652  26.931  0.00  0.00    -0.118 S 
BRANCH  35  40
ATOM     36  C   UNL     1       2.968  -5.118  26.804  0.00  0.00    +0.176 C 
ATOM     37  C   UNL     1       2.571  -5.121  28.292  0.00  0.00    +0.176 C 
ATOM     38  C   UNL     1       3.779  -5.252  29.229  0.00  0.00    +0.177 C 
ATOM     39  C   UNL     1       4.636  -6.449  28.841  0.00  0.00    +0.184 C 
ATOM     40  C   UNL     1       4.978  -6.463  27.335  0.00  0.00    +0.207 C 
ATOM     41  O   UNL     1       3.932  -6.118  26.421  0.00  0.00    -0.355 OA
BRANCH  39  42
ATOM     42  O   UNL     1       3.907  -7.648  29.202  0.00  0.00    -0.386 OA
ATOM     43  H   UNL     1       3.000  -7.558  28.858  0.00  0.00    +0.210 HD
ENDBRANCH  39  42
BRANCH  38  44
ATOM     44  O   UNL     1       4.551  -4.057  29.301  0.00  0.00    -0.386 OA
ATOM     45  H   UNL     1       5.489  -4.294  29.483  0.00  0.00    +0.210 HD
ENDBRANCH  38  44
BRANCH  37  46
ATOM     46  O   UNL     1       1.624  -6.187  28.481  0.00  0.00    -0.386 OA
ATOM     47  H   UNL     1       2.114  -7.012  28.660  0.00  0.00    +0.210 HD
ENDBRANCH  37  46
BRANCH  36  48
ATOM     48  C   UNL     1       3.319  -3.710  26.286  0.00  0.00    +0.190 C 
BRANCH  48  49
ATOM     49  O   UNL     1       3.240  -2.717  27.299  0.00  0.00    -0.392 OA
ATOM     50  H   UNL     1       3.190  -1.850  26.851  0.00  0.00    +0.210 HD
ENDBRANCH  48  49
ENDBRANCH  36  48
ENDBRANCH  35  40
ENDBRANCH   1  35
BRANCH   5  51
ATOM     51  C   UNL     1       6.708  -4.304  21.780  0.00  0.00    +0.190 C 
BRANCH  51  52
ATOM     52  O   UNL     1       5.806  -5.175  21.093  0.00  0.00    -0.392 OA
ATOM     53  H   UNL     1       6.312  -5.647  20.412  0.00  0.00    +0.210 HD
ENDBRANCH  51  52
ENDBRANCH   5  51
TORSDOF 20
ENDMDL
MODEL 9
REMARK VINA RESULT:      -6.2      3.920      7.399
REMARK  Name = 
REMARK  20 active torsions:
REMARK  status: ('A' for Active; 'I' for Inactive)
REMARK    1  A    between atoms: O_1  and  C_2
REMARK    2  A    between atoms: C_2  and  C_3
REMARK    3  A    between atoms: C_6  and  S_8
REMARK    4  A    between atoms: S_8  and  C_9
REMARK    5  A    between atoms: C_11  and  O_13
REMARK    6  A    between atoms: C_14  and  C_16
REMARK    7  A    between atoms: C_16  and  O_17
REMARK    8  A    between atoms: C_19  and  O_21
REMARK    9  A    between atoms: O_21  and  C_22
REMARK   10  A    between atoms: C_24  and  O_26
REMARK   11  A    between atoms: C_27  and  C_29
REMARK   12  A    between atoms: C_29  and  O_30
REMARK   13  A    between atoms: C_32  and  O_34
REMARK   14  A    between atoms: O_34  and  C_35
REMARK   15  A    between atoms: C_38  and  N_41
REMARK   16  A    between atoms: C_44  and  O_46
REMARK   17  A    between atoms: C_47  and  O_49
REMARK   18  A    between atoms: C_50  and  O_52
REMARK   19  A    between atoms: C_53  and  O_55
REMARK   20  A    between atoms: C_56  and  O_58
REMARK                            x       y       z     vdW  Elec       q    Type
REMARK                         _______ _______ _______ _____ _____    ______ ____
ROOT
ATOM      1  C   UNL     1       4.012  -2.572  27.928  0.00  0.00    +0.113 C 
ATOM      2  C   UNL     1       4.769  -2.705  26.580  0.00  0.00    +0.186 C 
ATOM      3  C   UNL     1       4.648  -4.176  26.143  0.00  0.00    +0.281 C 
ATOM      4  O   UNL     1       5.260  -5.031  27.081  0.00  0.00    -0.341 OA
ATOM      5  C   UNL     1       4.576  -5.053  28.331  0.00  0.00    +0.176 C 
ATOM      6  C   UNL     1       4.468  -3.646  28.949  0.00  0.00    +0.161 C 
ENDROOT
BRANCH   6   7
ATOM      7  O   UNL     1       3.571  -3.752  30.061  0.00  0.00    -0.388 OA
ATOM      8  H   UNL     1       3.784  -4.559  30.571  0.00  0.00    +0.210 HD
ENDBRANCH   6   7
BRANCH   2   9
ATOM      9  O   UNL     1       4.186  -1.852  25.576  0.00  0.00    -0.386 OA
ATOM     10  H   UNL     1       4.814  -1.761  24.838  0.00  0.00    +0.210 HD
ENDBRANCH   2   9
BRANCH   3  11
ATOM     11  O   UNL     1       5.207  -4.420  24.850  0.00  0.00    -0.340 OA
BRANCH  11  12
ATOM     12  C   UNL     1       6.178  -5.504  24.821  0.00  0.00    +0.187 C 
ATOM     13  C   UNL     1       7.580  -4.876  24.959  0.00  0.00    +0.214 C 
ATOM     14  C   UNL     1       7.862  -3.956  23.736  0.00  0.00    +0.339 C 
ATOM     15  O   UNL     1       7.669  -4.664  22.491  0.00  0.00    -0.331 OA
ATOM     16  C   UNL     1       6.350  -5.202  22.377  0.00  0.00    +0.179 C 
ATOM     17  C   UNL     1       6.185  -6.273  23.477  0.00  0.00    +0.177 C 
BRANCH  17  18
ATOM     18  O   UNL     1       5.035  -7.107  23.303  0.00  0.00    -0.386 OA
ATOM     19  H   UNL     1       5.313  -8.020  23.521  0.00  0.00    +0.210 HD
ENDBRANCH  17  18
BRANCH  13  20
ATOM     20  O   UNL     1       7.700  -4.187  26.210  0.00  0.00    -0.383 OA
ATOM     21  H   UNL     1       7.841  -4.859  26.902  0.00  0.00    +0.210 HD
ENDBRANCH  13  20
BRANCH  14  22
ATOM     22  O   UNL     1       9.216  -3.501  23.856  0.00  0.00    -0.461 OA
BRANCH  22  23
ATOM     23  C   UNL     1       9.433  -2.152  23.884  0.00  0.00    +0.124 A 
ATOM     24  C   UNL     1       9.838  -1.605  22.661  0.00  0.00    +0.052 A 
ATOM     25  C   UNL     1      10.046  -0.230  22.529  0.00  0.00    +0.088 A 
ATOM     26  C   UNL     1       9.839   0.603  23.634  0.00  0.00    +0.273 A 
ATOM     27  C   UNL     1       9.466   0.062  24.870  0.00  0.00    +0.088 A 
ATOM     28  C   UNL     1       9.266  -1.315  24.988  0.00  0.00    +0.052 A 
BRANCH  26  29
ATOM     29  N   UNL     1      10.012   2.051  23.506  0.00  0.00    +0.080 N 
ATOM     30  O   UNL     1      10.634   2.470  22.518  0.00  0.00    +0.041 OA
ATOM     31  O   UNL     1       9.524   2.773  24.387  0.00  0.00    -0.576 OA
ENDBRANCH  26  29
ENDBRANCH  22  23
ENDBRANCH  14  22
BRANCH  16  32
ATOM     32  C   UNL     1       6.066  -5.726  20.970  0.00  0.00    +0.190 C 
BRANCH  32  33
ATOM     33  O   UNL     1       5.797  -4.634  20.083  0.00  0.00    -0.392 OA
ATOM     34  H   UNL     1       4.918  -4.829  19.690  0.00  0.00    +0.210 HD
ENDBRANCH  32  33
ENDBRANCH  16  32
ENDBRANCH  11  12
ENDBRANCH   3  11
BRANCH   1  35
ATOM     35  S   UNL     1       4.198  -0.846  28.584  0.00  0.00    -0.118 S 
BRANCH  35  40
ATOM     36  C   UNL     1       7.171   1.182  28.028  0.00  0.00    +0.176 C 
ATOM     37  C   UNL     1       6.592   2.477  27.426  0.00  0.00    +0.176 C 
ATOM     38  C   UNL     1       5.059   2.471  27.369  0.00  0.00    +0.177 C 
ATOM     39  C   UNL     1       4.549   1.215  26.674  0.00  0.00    +0.184 C 
ATOM     40  C   UNL     1       5.183  -0.071  27.249  0.00  0.00    +0.207 C 
ATOM     41  O   UNL     1       6.583  -0.040  27.540  0.00  0.00    -0.355 OA
BRANCH  39  42
ATOM     42  O   UNL     1       4.854   1.338  25.264  0.00  0.00    -0.386 OA
ATOM     43  H   UNL     1       5.823   1.380  25.171  0.00  0.00    +0.210 HD
ENDBRANCH  39  42
BRANCH  38  44
ATOM     44  O   UNL     1       4.459   2.641  28.649  0.00  0.00    -0.386 OA
ATOM     45  H   UNL     1       3.490   2.485  28.571  0.00  0.00    +0.210 HD
ENDBRANCH  38  44
BRANCH  37  46
ATOM     46  O   UNL     1       7.180   2.646  26.124  0.00  0.00    -0.386 OA
ATOM     47  H   UNL     1       7.000   3.555  25.817  0.00  0.00    +0.210 HD
ENDBRANCH  37  46
BRANCH  36  48
ATOM     48  C   UNL     1       7.272   1.234  29.564  0.00  0.00    +0.190 C 
BRANCH  48  49
ATOM     49  O   UNL     1       8.616   1.204  30.026  0.00  0.00    -0.392 OA
ATOM     50  H   UNL     1       9.114   1.866  29.508  0.00  0.00    +0.210 HD
ENDBRANCH  48  49
ENDBRANCH  36  48
ENDBRANCH  35  40
ENDBRANCH   1  35
BRANCH   5  51
ATOM     51  C   UNL     1       5.347  -6.002  29.263  0.00  0.00    +0.190 C 
BRANCH  51  52
ATOM     52  O   UNL     1       5.970  -5.267  30.320  0.00  0.00    -0.392 OA
ATOM     53  H   UNL     1       5.467  -5.435  31.133  0.00  0.00    +0.210 HD
ENDBRANCH  51  52
ENDBRANCH   5  51
TORSDOF 20
ENDMDL
