MODEL 1
REMARK VINA RESULT:      -6.9      0.000      0.000
REMARK  Name = 
REMARK  7 active torsions:
REMARK  status: ('A' for Active; 'I' for Inactive)
REMARK    1  A    between atoms: C_1  and  N_2
REMARK    2  A    between atoms: C_3  and  C_4
REMARK    3  A    between atoms: C_4  and  S_5
REMARK    4  A    between atoms: S_5  and  C_6
REMARK    5  A    between atoms: C_6  and  C_7
REMARK    6  A    between atoms: C_16  and  S_22
REMARK    7  A    between atoms: S_22  and  N_23
REMARK                            x       y       z     vdW  Elec       q    Type
REMARK                         _______ _______ _______ _____ _____    ______ ____
ROOT
ATOM      1  C   UNL     1       9.793  -0.276  21.794  0.00  0.00    +0.134 C 
ATOM      2  N   UNL     1       8.643  -0.818  22.550  0.00  0.00    -0.159 NA
ATOM      3  S   UNL     1       9.162  -1.835  23.809  0.00  0.00    +0.064 S 
ATOM      4  O   UNL     1       9.883  -1.016  24.763  0.00  0.00    -0.153 OA
ATOM      5  O   UNL     1       9.767  -3.005  23.215  0.00  0.00    -0.153 OA
ATOM      6  C   UNL     1       7.667  -2.321  24.582  0.00  0.00    +0.128 A 
ATOM      7  C   UNL     1       6.507  -1.598  24.326  0.00  0.00    +0.056 A 
ATOM      8  C   UNL     1       5.327  -2.059  24.928  0.00  0.00    +0.047 A 
ATOM      9  C   UNL     1       5.323  -3.158  25.809  0.00  0.00    +0.069 A 
ATOM     10  C   UNL     1       6.516  -3.834  26.070  0.00  0.00    +0.125 A 
ATOM     11 CL   UNL     1       3.805  -3.581  26.515  0.00  0.00    -0.081 Cl
ATOM     12  N   UNL     1       6.448  -0.552  23.405  0.00  0.00    -0.325 N 
ATOM     13  H   UNL     1       5.674   0.092  23.572  0.00  0.00    +0.148 HD
ATOM     14  C   UNL     1       7.695  -3.421  25.444  0.00  0.00    +0.060 A 
ATOM     15  C   UNL     1       7.680   0.166  23.070  0.00  0.00    +0.172 C 
ENDROOT
BRANCH  10  16
ATOM     16  S   UNL     1       6.596  -5.233  27.141  0.00  0.00    +0.057 S 
ATOM     17  O   UNL     1       5.944  -6.349  26.495  0.00  0.00    -0.153 OA
ATOM     18  O   UNL     1       6.259  -4.829  28.482  0.00  0.00    -0.153 OA
BRANCH  16  19
ATOM     19  N   UNL     1       8.223  -5.641  27.132  0.00  0.00    -0.203 NA
ATOM     20  H   UNL     1       8.538  -5.774  26.169  0.00  0.00    +0.144 HD
ATOM     21  H   UNL     1       8.372  -6.457  27.728  0.00  0.00    +0.144 HD
ENDBRANCH  16  19
ENDBRANCH  10  16
BRANCH  15  22
ATOM     22  C   UNL     1       7.331   1.278  22.040  0.00  0.00    +0.109 C 
BRANCH  22  23
ATOM     23  S   UNL     1       7.653   2.958  22.732  0.00  0.00    -0.149 S 
BRANCH  23  24
ATOM     24  C   UNL     1       8.984   2.561  23.940  0.00  0.00    +0.182 C 
BRANCH  24  25
ATOM     25  C   UNL     1      10.431   2.822  23.523  0.00  0.00    +0.399 C 
ATOM     26  F   UNL     1      10.588   2.664  22.190  0.00  0.00    -0.170 F 
ATOM     27  F   UNL     1      11.262   1.946  24.137  0.00  0.00    -0.170 F 
ATOM     28  F   UNL     1      10.862   4.063  23.836  0.00  0.00    -0.170 F 
ENDBRANCH  24  25
ENDBRANCH  23  24
ENDBRANCH  22  23
ENDBRANCH  15  22
TORSDOF 6
ENDMDL
MODEL 2
REMARK VINA RESULT:      -6.7      2.180      2.423
REMARK  Name = 
REMARK  7 active torsions:
REMARK  status: ('A' for Active; 'I' for Inactive)
REMARK    1  A    between atoms: C_1  and  N_2
REMARK    2  A    between atoms: C_3  and  C_4
REMARK    3  A    between atoms: C_4  and  S_5
REMARK    4  A    between atoms: S_5  and  C_6
REMARK    5  A    between atoms: C_6  and  C_7
REMARK    6  A    between atoms: C_16  and  S_22
REMARK    7  A    between atoms: S_22  and  N_23
REMARK                            x       y       z     vdW  Elec       q    Type
REMARK                         _______ _______ _______ _____ _____    ______ ____
ROOT
ATOM      1  C   UNL     1      10.660  -1.885  23.226  0.00  0.00    +0.134 C 
ATOM      2  N   UNL     1       9.287  -2.422  23.110  0.00  0.00    -0.159 NA
ATOM      3  S   UNL     1       8.855  -3.306  24.496  0.00  0.00    +0.064 S 
ATOM      4  O   UNL     1       8.799  -2.377  25.606  0.00  0.00    -0.153 OA
ATOM      5  O   UNL     1       9.685  -4.488  24.547  0.00  0.00    -0.153 OA
ATOM      6  C   UNL     1       7.209  -3.804  24.165  0.00  0.00    +0.128 A 
ATOM      7  C   UNL     1       6.499  -3.164  23.154  0.00  0.00    +0.056 A 
ATOM      8  C   UNL     1       5.204  -3.635  22.893  0.00  0.00    +0.047 A 
ATOM      9  C   UNL     1       4.617  -4.658  23.663  0.00  0.00    +0.069 A 
ATOM     10  C   UNL     1       5.349  -5.249  24.694  0.00  0.00    +0.125 A 
ATOM     11 CL   UNL     1       2.997  -5.100  23.261  0.00  0.00    -0.081 Cl
ATOM     12  N   UNL     1       7.063  -2.201  22.318  0.00  0.00    -0.325 N 
ATOM     13  H   UNL     1       6.374  -1.586  21.884  0.00  0.00    +0.148 HD
ATOM     14  C   UNL     1       6.658  -4.827  24.941  0.00  0.00    +0.060 A 
ATOM     15  C   UNL     1       8.230  -1.450  22.789  0.00  0.00    +0.172 C 
ENDROOT
BRANCH  10  16
ATOM     16  S   UNL     1       4.699  -6.550  25.692  0.00  0.00    +0.057 S 
ATOM     17  O   UNL     1       5.617  -6.801  26.781  0.00  0.00    -0.153 OA
ATOM     18  O   UNL     1       4.221  -7.611  24.843  0.00  0.00    -0.153 OA
BRANCH  16  19
ATOM     19  N   UNL     1       3.363  -5.852  26.427  0.00  0.00    -0.203 NA
ATOM     20  H   UNL     1       3.555  -5.708  27.420  0.00  0.00    +0.144 HD
ATOM     21  H   UNL     1       2.538  -6.428  26.249  0.00  0.00    +0.144 HD
ENDBRANCH  16  19
ENDBRANCH  10  16
BRANCH  15  22
ATOM     22  C   UNL     1       8.644  -0.444  21.677  0.00  0.00    +0.109 C 
BRANCH  22  23
ATOM     23  S   UNL     1       8.351   1.299  22.207  0.00  0.00    -0.149 S 
BRANCH  23  24
ATOM     24  C   UNL     1      10.087   1.901  22.315  0.00  0.00    +0.182 C 
BRANCH  24  25
ATOM     25  C   UNL     1      10.622   2.309  23.687  0.00  0.00    +0.399 C 
ATOM     26  F   UNL     1      11.443   3.378  23.591  0.00  0.00    -0.170 F 
ATOM     27  F   UNL     1      11.336   1.295  24.233  0.00  0.00    -0.170 F 
ATOM     28  F   UNL     1       9.648   2.627  24.567  0.00  0.00    -0.170 F 
ENDBRANCH  24  25
ENDBRANCH  23  24
ENDBRANCH  22  23
ENDBRANCH  15  22
TORSDOF 6
ENDMDL
MODEL 3
REMARK VINA RESULT:      -6.6      4.464      7.245
REMARK  Name = 
REMARK  7 active torsions:
REMARK  status: ('A' for Active; 'I' for Inactive)
REMARK    1  A    between atoms: C_1  and  N_2
REMARK    2  A    between atoms: C_3  and  C_4
REMARK    3  A    between atoms: C_4  and  S_5
REMARK    4  A    between atoms: S_5  and  C_6
REMARK    5  A    between atoms: C_6  and  C_7
REMARK    6  A    between atoms: C_16  and  S_22
REMARK    7  A    between atoms: S_22  and  N_23
REMARK                            x       y       z     vdW  Elec       q    Type
REMARK                         _______ _______ _______ _____ _____    ______ ____
ROOT
ATOM      1  C   UNL     1       9.223  -5.101  24.878  0.00  0.00    +0.134 C 
ATOM      2  N   UNL     1       8.932  -3.684  25.185  0.00  0.00    -0.159 NA
ATOM      3  S   UNL     1       9.124  -2.706  23.808  0.00  0.00    +0.064 S 
ATOM      4  O   UNL     1       8.108  -3.096  22.851  0.00  0.00    -0.153 OA
ATOM      5  O   UNL     1      10.525  -2.703  23.456  0.00  0.00    -0.153 OA
ATOM      6  C   UNL     1       8.697  -1.107  24.381  0.00  0.00    +0.128 A 
ATOM      7  C   UNL     1       8.001  -0.982  25.580  0.00  0.00    +0.056 A 
ATOM      8  C   UNL     1       7.729   0.322  26.021  0.00  0.00    +0.047 A 
ATOM      9  C   UNL     1       8.077   1.452  25.257  0.00  0.00    +0.069 A 
ATOM     10  C   UNL     1       8.741   1.282  24.041  0.00  0.00    +0.125 A 
ATOM     11 CL   UNL     1       7.634   2.991  25.902  0.00  0.00    -0.081 Cl
ATOM     12  N   UNL     1       7.703  -2.066  26.405  0.00  0.00    -0.325 N 
ATOM     13  H   UNL     1       6.918  -1.892  27.034  0.00  0.00    +0.148 HD
ATOM     14  C   UNL     1       9.064  -0.005  23.604  0.00  0.00    +0.060 A 
ATOM     15  C   UNL     1       7.633  -3.406  25.817  0.00  0.00    +0.172 C 
ENDROOT
BRANCH  10  16
ATOM     16  S   UNL     1       9.233   2.643  23.033  0.00  0.00    +0.057 S 
ATOM     17  O   UNL     1      10.329   3.327  23.681  0.00  0.00    -0.153 OA
ATOM     18  O   UNL     1       8.064   3.348  22.575  0.00  0.00    -0.153 OA
BRANCH  16  19
ATOM     19  N   UNL     1       9.934   1.909  21.697  0.00  0.00    -0.203 NA
ATOM     20  H   UNL     1      10.950   1.897  21.806  0.00  0.00    +0.144 HD
ATOM     21  H   UNL     1       9.619   2.379  20.847  0.00  0.00    +0.144 HD
ENDBRANCH  16  19
ENDBRANCH  10  16
BRANCH  15  22
ATOM     22  C   UNL     1       7.276  -4.415  26.945  0.00  0.00    +0.109 C 
BRANCH  22  23
ATOM     23  S   UNL     1       5.872  -5.505  26.450  0.00  0.00    -0.149 S 
BRANCH  23  24
ATOM     24  C   UNL     1       5.486  -4.803  24.792  0.00  0.00    +0.182 C 
BRANCH  24  25
ATOM     25  C   UNL     1       5.403  -5.765  23.607  0.00  0.00    +0.399 C 
ATOM     26  F   UNL     1       6.613  -5.920  23.023  0.00  0.00    -0.170 F 
ATOM     27  F   UNL     1       4.557  -5.281  22.667  0.00  0.00    -0.170 F 
ATOM     28  F   UNL     1       4.959  -6.994  23.946  0.00  0.00    -0.170 F 
ENDBRANCH  24  25
ENDBRANCH  23  24
ENDBRANCH  22  23
ENDBRANCH  15  22
TORSDOF 6
ENDMDL
MODEL 4
REMARK VINA RESULT:      -6.6      5.286      7.775
REMARK  Name = 
REMARK  7 active torsions:
REMARK  status: ('A' for Active; 'I' for Inactive)
REMARK    1  A    between atoms: C_1  and  N_2
REMARK    2  A    between atoms: C_3  and  C_4
REMARK    3  A    between atoms: C_4  and  S_5
REMARK    4  A    between atoms: S_5  and  C_6
REMARK    5  A    between atoms: C_6  and  C_7
REMARK    6  A    between atoms: C_16  and  S_22
REMARK    7  A    between atoms: S_22  and  N_23
REMARK                            x       y       z     vdW  Elec       q    Type
REMARK                         _______ _______ _______ _____ _____    ______ ____
ROOT
ATOM      1  C   UNL     1       9.859  -2.254  23.815  0.00  0.00    +0.134 C 
ATOM      2  N   UNL     1       9.132  -0.985  24.037  0.00  0.00    -0.159 NA
ATOM      3  S   UNL     1      10.007   0.338  23.427  0.00  0.00    +0.064 S 
ATOM      4  O   UNL     1      10.070   0.192  21.986  0.00  0.00    -0.153 OA
ATOM      5  O   UNL     1      11.206   0.483  24.220  0.00  0.00    -0.153 OA
ATOM      6  C   UNL     1       8.961   1.704  23.755  0.00  0.00    +0.128 A 
ATOM      7  C   UNL     1       7.623   1.474  24.059  0.00  0.00    +0.056 A 
ATOM      8  C   UNL     1       6.840   2.597  24.366  0.00  0.00    +0.047 A 
ATOM      9  C   UNL     1       7.360   3.904  24.299  0.00  0.00    +0.069 A 
ATOM     10  C   UNL     1       8.698   4.096  23.953  0.00  0.00    +0.125 A 
ATOM     11 CL   UNL     1       6.266   5.192  24.653  0.00  0.00    -0.081 Cl
ATOM     12  N   UNL     1       7.084   0.196  24.209  0.00  0.00    -0.325 N 
ATOM     13  H   UNL     1       6.073   0.165  24.079  0.00  0.00    +0.148 HD
ATOM     14  C   UNL     1       9.509   2.988  23.690  0.00  0.00    +0.060 A 
ATOM     15  C   UNL     1       7.745  -0.933  23.550  0.00  0.00    +0.172 C 
ENDROOT
BRANCH  10  16
ATOM     16  S   UNL     1       9.436   5.696  23.869  0.00  0.00    +0.057 S 
ATOM     17  O   UNL     1       9.659   6.174  25.216  0.00  0.00    -0.153 OA
ATOM     18  O   UNL     1       8.745   6.490  22.887  0.00  0.00    -0.153 OA
BRANCH  16  19
ATOM     19  N   UNL     1      10.974   5.388  23.277  0.00  0.00    -0.203 NA
ATOM     20  H   UNL     1      11.617   5.230  24.056  0.00  0.00    +0.144 HD
ATOM     21  H   UNL     1      11.260   6.151  22.660  0.00  0.00    +0.144 HD
ENDBRANCH  16  19
ENDBRANCH  10  16
BRANCH  15  22
ATOM     22  C   UNL     1       6.938  -2.224  23.870  0.00  0.00    +0.109 C 
BRANCH  22  23
ATOM     23  S   UNL     1       6.076  -2.864  22.369  0.00  0.00    -0.149 S 
BRANCH  23  24
ATOM     24  C   UNL     1       7.030  -4.413  22.083  0.00  0.00    +0.182 C 
BRANCH  24  25
ATOM     25  C   UNL     1       6.270  -5.643  21.590  0.00  0.00    +0.399 C 
ATOM     26  F   UNL     1       5.018  -5.676  22.099  0.00  0.00    -0.170 F 
ATOM     27  F   UNL     1       6.899  -6.775  21.988  0.00  0.00    -0.170 F 
ATOM     28  F   UNL     1       6.161  -5.702  20.246  0.00  0.00    -0.170 F 
ENDBRANCH  24  25
ENDBRANCH  23  24
ENDBRANCH  22  23
ENDBRANCH  15  22
TORSDOF 6
ENDMDL
MODEL 5
REMARK VINA RESULT:      -6.5      4.291      7.082
REMARK  Name = 
REMARK  7 active torsions:
REMARK  status: ('A' for Active; 'I' for Inactive)
REMARK    1  A    between atoms: C_1  and  N_2
REMARK    2  A    between atoms: C_3  and  C_4
REMARK    3  A    between atoms: C_4  and  S_5
REMARK    4  A    between atoms: S_5  and  C_6
REMARK    5  A    between atoms: C_6  and  C_7
REMARK    6  A    between atoms: C_16  and  S_22
REMARK    7  A    between atoms: S_22  and  N_23
REMARK                            x       y       z     vdW  Elec       q    Type
REMARK                         _______ _______ _______ _____ _____    ______ ____
ROOT
ATOM      1  C   UNL     1       7.085  -4.163  26.912  0.00  0.00    +0.134 C 
ATOM      2  N   UNL     1       6.943  -3.010  25.996  0.00  0.00    -0.159 NA
ATOM      3  S   UNL     1       8.441  -2.253  25.726  0.00  0.00    +0.064 S 
ATOM      4  O   UNL     1       9.283  -3.193  25.014  0.00  0.00    -0.153 OA
ATOM      5  O   UNL     1       8.868  -1.655  26.971  0.00  0.00    -0.153 OA
ATOM      6  C   UNL     1       8.051  -0.966  24.604  0.00  0.00    +0.128 A 
ATOM      7  C   UNL     1       6.841  -1.011  23.918  0.00  0.00    +0.056 A 
ATOM      8  C   UNL     1       6.553   0.069  23.071  0.00  0.00    +0.047 A 
ATOM      9  C   UNL     1       7.472   1.116  22.863  0.00  0.00    +0.069 A 
ATOM     10  C   UNL     1       8.692   1.104  23.541  0.00  0.00    +0.125 A 
ATOM     11 CL   UNL     1       7.002   2.352  21.753  0.00  0.00    -0.081 Cl
ATOM     12  N   UNL     1       5.870  -1.986  24.147  0.00  0.00    -0.325 N 
ATOM     13  H   UNL     1       5.225  -2.107  23.366  0.00  0.00    +0.148 HD
ATOM     14  C   UNL     1       8.980   0.062  24.427  0.00  0.00    +0.060 A 
ATOM     15  C   UNL     1       6.280  -3.275  24.710  0.00  0.00    +0.172 C 
ENDROOT
BRANCH  10  16
ATOM     16  S   UNL     1       9.890   2.386  23.358  0.00  0.00    +0.057 S 
ATOM     17  O   UNL     1      11.109   1.978  24.020  0.00  0.00    -0.153 OA
ATOM     18  O   UNL     1       9.272   3.660  23.623  0.00  0.00    -0.153 OA
BRANCH  16  19
ATOM     19  N   UNL     1      10.268   2.339  21.725  0.00  0.00    -0.203 NA
ATOM     20  H   UNL     1       9.429   2.526  21.173  0.00  0.00    +0.144 HD
ATOM     21  H   UNL     1      10.713   1.446  21.504  0.00  0.00    +0.144 HD
ENDBRANCH  16  19
ENDBRANCH  10  16
BRANCH  15  22
ATOM     22  C   UNL     1       5.015  -4.170  24.849  0.00  0.00    +0.109 C 
BRANCH  22  23
ATOM     23  S   UNL     1       5.322  -5.870  24.202  0.00  0.00    -0.149 S 
BRANCH  23  24
ATOM     24  C   UNL     1       5.141  -5.567  22.395  0.00  0.00    +0.182 C 
BRANCH  24  25
ATOM     25  C   UNL     1       6.409  -5.528  21.543  0.00  0.00    +0.399 C 
ATOM     26  F   UNL     1       7.336  -6.391  22.014  0.00  0.00    -0.170 F 
ATOM     27  F   UNL     1       6.955  -4.289  21.571  0.00  0.00    -0.170 F 
ATOM     28  F   UNL     1       6.191  -5.837  20.247  0.00  0.00    -0.170 F 
ENDBRANCH  24  25
ENDBRANCH  23  24
ENDBRANCH  22  23
ENDBRANCH  15  22
TORSDOF 6
ENDMDL
MODEL 6
REMARK VINA RESULT:      -6.1      2.030      2.386
REMARK  Name = 
REMARK  7 active torsions:
REMARK  status: ('A' for Active; 'I' for Inactive)
REMARK    1  A    between atoms: C_1  and  N_2
REMARK    2  A    between atoms: C_3  and  C_4
REMARK    3  A    between atoms: C_4  and  S_5
REMARK    4  A    between atoms: S_5  and  C_6
REMARK    5  A    between atoms: C_6  and  C_7
REMARK    6  A    between atoms: C_16  and  S_22
REMARK    7  A    between atoms: S_22  and  N_23
REMARK                            x       y       z     vdW  Elec       q    Type
REMARK                         _______ _______ _______ _____ _____    ______ ____
ROOT
ATOM      1  C   UNL     1      10.192   1.835  21.861  0.00  0.00    +0.134 C 
ATOM      2  N   UNL     1       9.223   0.958  22.552  0.00  0.00    -0.159 NA
ATOM      3  S   UNL     1      10.007  -0.339  23.319  0.00  0.00    +0.064 S 
ATOM      4  O   UNL     1      10.831   0.212  24.376  0.00  0.00    -0.153 OA
ATOM      5  O   UNL     1      10.570  -1.188  22.294  0.00  0.00    -0.153 OA
ATOM      6  C   UNL     1       8.698  -1.207  24.095  0.00  0.00    +0.128 A 
ATOM      7  C   UNL     1       7.470  -0.572  24.259  0.00  0.00    +0.056 A 
ATOM      8  C   UNL     1       6.439  -1.328  24.837  0.00  0.00    +0.047 A 
ATOM      9  C   UNL     1       6.650  -2.641  25.299  0.00  0.00    +0.069 A 
ATOM     10  C   UNL     1       7.908  -3.229  25.150  0.00  0.00    +0.125 A 
ATOM     11 CL   UNL     1       5.303  -3.430  26.035  0.00  0.00    -0.081 Cl
ATOM     12  N   UNL     1       7.194   0.697  23.751  0.00  0.00    -0.325 N 
ATOM     13  H   UNL     1       6.424   1.165  24.228  0.00  0.00    +0.148 HD
ATOM     14  C   UNL     1       8.936  -2.512  24.534  0.00  0.00    +0.060 A 
ATOM     15  C   UNL     1       8.307   1.616  23.498  0.00  0.00    +0.172 C 
ENDROOT
BRANCH  10  16
ATOM     16  S   UNL     1       8.252  -4.876  25.679  0.00  0.00    +0.057 S 
ATOM     17  O   UNL     1       7.335  -5.776  25.016  0.00  0.00    -0.153 OA
ATOM     18  O   UNL     1       8.431  -4.892  27.108  0.00  0.00    -0.153 OA
BRANCH  16  19
ATOM     19  N   UNL     1       9.740  -5.209  24.980  0.00  0.00    -0.203 NA
ATOM     20  H   UNL     1       9.706  -4.993  23.982  0.00  0.00    +0.144 HD
ATOM     21  H   UNL     1      10.000  -6.177  25.181  0.00  0.00    +0.144 HD
ENDBRANCH  16  19
ENDBRANCH  10  16
BRANCH  15  22
ATOM     22  C   UNL     1       7.722   2.950  22.952  0.00  0.00    +0.109 C 
BRANCH  22  23
ATOM     23  S   UNL     1       7.874   4.306  24.194  0.00  0.00    -0.149 S 
BRANCH  23  24
ATOM     24  C   UNL     1       9.689   4.602  24.131  0.00  0.00    +0.182 C 
BRANCH  24  25
ATOM     25  C   UNL     1      10.176   5.992  23.725  0.00  0.00    +0.399 C 
ATOM     26  F   UNL     1      10.421   6.758  24.812  0.00  0.00    -0.170 F 
ATOM     27  F   UNL     1       9.232   6.624  22.988  0.00  0.00    -0.170 F 
ATOM     28  F   UNL     1      11.306   5.969  22.987  0.00  0.00    -0.170 F 
ENDBRANCH  24  25
ENDBRANCH  23  24
ENDBRANCH  22  23
ENDBRANCH  15  22
TORSDOF 6
ENDMDL
MODEL 7
REMARK VINA RESULT:      -6.1      4.563      7.406
REMARK  Name = 
REMARK  7 active torsions:
REMARK  status: ('A' for Active; 'I' for Inactive)
REMARK    1  A    between atoms: C_1  and  N_2
REMARK    2  A    between atoms: C_3  and  C_4
REMARK    3  A    between atoms: C_4  and  S_5
REMARK    4  A    between atoms: S_5  and  C_6
REMARK    5  A    between atoms: C_6  and  C_7
REMARK    6  A    between atoms: C_16  and  S_22
REMARK    7  A    between atoms: S_22  and  N_23
REMARK                            x       y       z     vdW  Elec       q    Type
REMARK                         _______ _______ _______ _____ _____    ______ ____
ROOT
ATOM      1  C   UNL     1       9.798  -1.991  23.339  0.00  0.00    +0.134 C 
ATOM      2  N   UNL     1       8.833  -0.873  23.399  0.00  0.00    -0.159 NA
ATOM      3  S   UNL     1       9.551   0.585  22.901  0.00  0.00    +0.064 S 
ATOM      4  O   UNL     1       9.880   0.452  21.496  0.00  0.00    -0.153 OA
ATOM      5  O   UNL     1      10.554   0.943  23.877  0.00  0.00    -0.153 OA
ATOM      6  C   UNL     1       8.240   1.743  23.009  0.00  0.00    +0.128 A 
ATOM      7  C   UNL     1       6.932   1.277  23.094  0.00  0.00    +0.056 A 
ATOM      8  C   UNL     1       5.924   2.243  23.232  0.00  0.00    +0.047 A 
ATOM      9  C   UNL     1       6.209   3.622  23.212  0.00  0.00    +0.069 A 
ATOM     10  C   UNL     1       7.531   4.049  23.086  0.00  0.00    +0.125 A 
ATOM     11 CL   UNL     1       4.862   4.694  23.340  0.00  0.00    -0.081 Cl
ATOM     12  N   UNL     1       6.609  -0.076  23.192  0.00  0.00    -0.325 N 
ATOM     13  H   UNL     1       5.655  -0.288  22.898  0.00  0.00    +0.148 HD
ATOM     14  C   UNL     1       8.557   3.104  22.996  0.00  0.00    +0.060 A 
ATOM     15  C   UNL     1       7.560  -1.070  22.686  0.00  0.00    +0.172 C 
ENDROOT
BRANCH  10  16
ATOM     16  S   UNL     1       7.979   5.755  23.077  0.00  0.00    +0.057 S 
ATOM     17  O   UNL     1       7.632   6.332  24.356  0.00  0.00    -0.153 OA
ATOM     18  O   UNL     1       7.559   6.352  21.835  0.00  0.00    -0.153 OA
BRANCH  16  19
ATOM     19  N   UNL     1       9.656   5.721  23.078  0.00  0.00    -0.203 NA
ATOM     20  H   UNL     1       9.979   4.754  23.129  0.00  0.00    +0.144 HD
ATOM     21  H   UNL     1      10.007   6.311  23.835  0.00  0.00    +0.144 HD
ENDBRANCH  16  19
ENDBRANCH  10  16
BRANCH  15  22
ATOM     22  C   UNL     1       6.950  -2.484  22.908  0.00  0.00    +0.109 C 
BRANCH  22  23
ATOM     23  S   UNL     1       6.295  -2.669  24.623  0.00  0.00    -0.149 S 
BRANCH  23  24
ATOM     24  C   UNL     1       6.741  -4.424  24.953  0.00  0.00    +0.182 C 
BRANCH  24  25
ATOM     25  C   UNL     1       8.133  -4.718  25.512  0.00  0.00    +0.399 C 
ATOM     26  F   UNL     1       8.704  -3.596  26.005  0.00  0.00    -0.170 F 
ATOM     27  F   UNL     1       8.942  -5.189  24.534  0.00  0.00    -0.170 F 
ATOM     28  F   UNL     1       8.129  -5.636  26.501  0.00  0.00    -0.170 F 
ENDBRANCH  24  25
ENDBRANCH  23  24
ENDBRANCH  22  23
ENDBRANCH  15  22
TORSDOF 6
ENDMDL
MODEL 8
REMARK VINA RESULT:      -6.1      4.471      7.071
REMARK  Name = 
REMARK  7 active torsions:
REMARK  status: ('A' for Active; 'I' for Inactive)
REMARK    1  A    between atoms: C_1  and  N_2
REMARK    2  A    between atoms: C_3  and  C_4
REMARK    3  A    between atoms: C_4  and  S_5
REMARK    4  A    between atoms: S_5  and  C_6
REMARK    5  A    between atoms: C_6  and  C_7
REMARK    6  A    between atoms: C_16  and  S_22
REMARK    7  A    between atoms: S_22  and  N_23
REMARK                            x       y       z     vdW  Elec       q    Type
REMARK                         _______ _______ _______ _____ _____    ______ ____
ROOT
ATOM      1  C   UNL     1       4.852  -6.510  23.628  0.00  0.00    +0.134 C 
ATOM      2  N   UNL     1       5.259  -5.108  23.870  0.00  0.00    -0.159 NA
ATOM      3  S   UNL     1       6.383  -4.587  22.707  0.00  0.00    +0.064 S 
ATOM      4  O   UNL     1       5.707  -4.563  21.425  0.00  0.00    -0.153 OA
ATOM      5  O   UNL     1       7.603  -5.338  22.899  0.00  0.00    -0.153 OA
ATOM      6  C   UNL     1       6.688  -2.920  23.153  0.00  0.00    +0.128 A 
ATOM      7  C   UNL     1       5.802  -2.278  24.013  0.00  0.00    +0.056 A 
ATOM      8  C   UNL     1       6.118  -0.962  24.381  0.00  0.00    +0.047 A 
ATOM      9  C   UNL     1       7.238  -0.292  23.852  0.00  0.00    +0.069 A 
ATOM     10  C   UNL     1       8.081  -0.959  22.962  0.00  0.00    +0.125 A 
ATOM     11 CL   UNL     1       7.474   1.343  24.356  0.00  0.00    -0.081 Cl
ATOM     12  N   UNL     1       4.725  -2.924  24.620  0.00  0.00    -0.325 N 
ATOM     13  H   UNL     1       3.987  -2.286  24.921  0.00  0.00    +0.148 HD
ATOM     14  C   UNL     1       7.811  -2.286  22.618  0.00  0.00    +0.060 A 
ATOM     15  C   UNL     1       4.171  -4.124  23.987  0.00  0.00    +0.172 C 
ENDROOT
BRANCH  10  16
ATOM     16  S   UNL     1       9.517  -0.203  22.270  0.00  0.00    +0.057 S 
ATOM     17  O   UNL     1      10.394   0.197  23.347  0.00  0.00    -0.153 OA
ATOM     18  O   UNL     1       9.121   0.715  21.233  0.00  0.00    -0.153 OA
BRANCH  16  19
ATOM     19  N   UNL     1      10.317  -1.480  21.534  0.00  0.00    -0.203 NA
ATOM     20  H   UNL     1      11.272  -1.539  21.892  0.00  0.00    +0.144 HD
ATOM     21  H   UNL     1      10.267  -1.373  20.519  0.00  0.00    +0.144 HD
ENDBRANCH  16  19
ENDBRANCH  10  16
BRANCH  15  22
ATOM     22  C   UNL     1       2.984  -4.629  24.857  0.00  0.00    +0.109 C 
BRANCH  22  23
ATOM     23  S   UNL     1       3.163  -4.090  26.612  0.00  0.00    -0.149 S 
BRANCH  23  24
ATOM     24  C   UNL     1       4.224  -5.446  27.262  0.00  0.00    +0.182 C 
BRANCH  24  25
ATOM     25  C   UNL     1       5.692  -5.134  27.548  0.00  0.00    +0.399 C 
ATOM     26  F   UNL     1       6.043  -5.544  28.788  0.00  0.00    -0.170 F 
ATOM     27  F   UNL     1       5.909  -3.798  27.486  0.00  0.00    -0.170 F 
ATOM     28  F   UNL     1       6.543  -5.715  26.676  0.00  0.00    -0.170 F 
ENDBRANCH  24  25
ENDBRANCH  23  24
ENDBRANCH  22  23
ENDBRANCH  15  22
TORSDOF 6
ENDMDL
MODEL 9
REMARK VINA RESULT:      -6.0      5.335      7.951
REMARK  Name = 
REMARK  7 active torsions:
REMARK  status: ('A' for Active; 'I' for Inactive)
REMARK    1  A    between atoms: C_1  and  N_2
REMARK    2  A    between atoms: C_3  and  C_4
REMARK    3  A    between atoms: C_4  and  S_5
REMARK    4  A    between atoms: S_5  and  C_6
REMARK    5  A    between atoms: C_6  and  C_7
REMARK    6  A    between atoms: C_16  and  S_22
REMARK    7  A    between atoms: S_22  and  N_23
REMARK                            x       y       z     vdW  Elec       q    Type
REMARK                         _______ _______ _______ _____ _____    ______ ____
ROOT
ATOM      1  C   UNL     1       5.646  -5.236  23.715  0.00  0.00    +0.134 C 
ATOM      2  N   UNL     1       6.669  -4.180  23.870  0.00  0.00    -0.159 NA
ATOM      3  S   UNL     1       6.086  -2.677  23.332  0.00  0.00    +0.064 S 
ATOM      4  O   UNL     1       5.008  -2.284  24.217  0.00  0.00    -0.153 OA
ATOM      5  O   UNL     1       5.892  -2.761  21.903  0.00  0.00    -0.153 OA
ATOM      6  C   UNL     1       7.422  -1.587  23.642  0.00  0.00    +0.128 A 
ATOM      7  C   UNL     1       8.437  -1.989  24.505  0.00  0.00    +0.056 A 
ATOM      8  C   UNL     1       9.509  -1.102  24.679  0.00  0.00    +0.047 A 
ATOM      9  C   UNL     1       9.529   0.168  24.069  0.00  0.00    +0.069 A 
ATOM     10  C   UNL     1       8.472   0.549  23.241  0.00  0.00    +0.125 A 
ATOM     11 CL   UNL     1      10.889   1.173  24.415  0.00  0.00    -0.081 Cl
ATOM     12  N   UNL     1       8.497  -3.262  25.070  0.00  0.00    -0.325 N 
ATOM     13  H   UNL     1       9.061  -3.303  25.920  0.00  0.00    +0.148 HD
ATOM     14  C   UNL     1       7.416  -0.338  23.015  0.00  0.00    +0.060 A 
ATOM     15  C   UNL     1       7.259  -4.034  25.211  0.00  0.00    +0.172 C 
ENDROOT
BRANCH  10  16
ATOM     16  S   UNL     1       8.428   2.110  22.420  0.00  0.00    +0.057 S 
ATOM     17  O   UNL     1       8.642   3.153  23.398  0.00  0.00    -0.153 OA
ATOM     18  O   UNL     1       7.312   2.140  21.510  0.00  0.00    -0.153 OA
BRANCH  16  19
ATOM     19  N   UNL     1       9.830   2.109  21.499  0.00  0.00    -0.203 NA
ATOM     20  H   UNL     1      10.126   3.071  21.324  0.00  0.00    +0.144 HD
ATOM     21  H   UNL     1       9.676   1.567  20.647  0.00  0.00    +0.144 HD
ENDBRANCH  16  19
ENDBRANCH  10  16
BRANCH  15  22
ATOM     22  C   UNL     1       7.608  -5.397  25.874  0.00  0.00    +0.109 C 
BRANCH  22  23
ATOM     23  S   UNL     1       6.978  -5.480  27.606  0.00  0.00    -0.149 S 
BRANCH  23  24
ATOM     24  C   UNL     1       5.174  -5.272  27.306  0.00  0.00    +0.182 C 
BRANCH  24  25
ATOM     25  C   UNL     1       4.292  -6.519  27.344  0.00  0.00    +0.399 C 
ATOM     26  F   UNL     1       4.587  -7.354  26.323  0.00  0.00    -0.170 F 
ATOM     27  F   UNL     1       2.987  -6.175  27.223  0.00  0.00    -0.170 F 
ATOM     28  F   UNL     1       4.412  -7.224  28.489  0.00  0.00    -0.170 F 
ENDBRANCH  24  25
ENDBRANCH  23  24
ENDBRANCH  22  23
ENDBRANCH  15  22
TORSDOF 6
ENDMDL
