MODEL 1
REMARK VINA RESULT:      -8.0      0.000      0.000
REMARK  Name = 
REMARK  7 active torsions:
REMARK  status: ('A' for Active; 'I' for Inactive)
REMARK    1  A    between atoms: C_2  and  N_3
REMARK    2  A    between atoms: C_2  and  C_15
REMARK    3  A    between atoms: C_2  and  C_21
REMARK    4  A    between atoms: N_3  and  S_4
REMARK    5  A    between atoms: S_4  and  C_7
REMARK    6  A    between atoms: C_9  and  C_10
REMARK    7  A    between atoms: N_23  and  O_24
REMARK                            x       y       z     vdW  Elec       q    Type
REMARK                         _______ _______ _______ _____ _____    ______ ____
ROOT
ATOM      1  C   UNL     1       6.927  -4.969  24.488  0.00  0.00    +0.167 C 
ENDROOT
BRANCH   1   2
ATOM      2  C   UNL     1       5.644  -5.155  23.623  0.00  0.00    +0.021 C 
ATOM      3  C   UNL     1       5.805  -6.186  22.493  0.00  0.00    +0.033 C 
ATOM      4  C   UNL     1       6.520  -5.607  21.279  0.00  0.00    +0.160 C 
ATOM      5  O   UNL     1       5.838  -4.456  20.790  0.00  0.00    -0.380 OA
ATOM      6  C   UNL     1       5.730  -3.402  21.741  0.00  0.00    +0.160 C 
ATOM      7  C   UNL     1       5.042  -3.868  23.021  0.00  0.00    +0.033 C 
ENDBRANCH   1   2
BRANCH   1   8
ATOM      8  C   UNL     1       6.683  -5.542  25.890  0.00  0.00    +0.254 C 
ATOM      9  N   UNL     1       7.815  -5.761  26.637  0.00  0.00    -0.196 N 
ATOM     10  H   UNL     1       8.747  -5.434  26.407  0.00  0.00    +0.182 HD
ATOM     11  O   UNL     1       5.554  -5.822  26.303  0.00  0.00    -0.272 OA
BRANCH   9  12
ATOM     12  O   UNL     1       7.598  -6.168  27.972  0.00  0.00    -0.295 OA
ATOM     13  H   UNL     1       7.703  -5.329  28.474  0.00  0.00    +0.241 HD
ENDBRANCH   9  12
ENDBRANCH   1   8
BRANCH   1  14
ATOM     14  N   UNL     1       7.346  -3.554  24.580  0.00  0.00    -0.178 NA
ATOM     15  H   UNL     1       6.785  -2.981  25.210  0.00  0.00    +0.149 HD
BRANCH  14  16
ATOM     16  S   UNL     1       8.951  -3.193  24.961  0.00  0.00    +0.059 S 
ATOM     17  O   UNL     1       9.777  -4.318  24.575  0.00  0.00    -0.153 OA
ATOM     18  O   UNL     1       8.931  -2.665  26.306  0.00  0.00    -0.153 OA
BRANCH  16  19
ATOM     19  C   UNL     1       9.325  -1.846  23.877  0.00  0.00    +0.106 A 
ATOM     20  C   UNL     1       9.049  -1.947  22.512  0.00  0.00    +0.031 A 
ATOM     21  C   UNL     1       9.328  -0.860  21.685  0.00  0.00    +0.040 A 
ATOM     22  C   UNL     1       9.870   0.305  22.229  0.00  0.00    +0.126 A 
ATOM     23  F   UNL     1      10.126   1.340  21.416  0.00  0.00    -0.205 F 
ATOM     24  C   UNL     1      10.137   0.418  23.596  0.00  0.00    -0.013 A 
ATOM     25  C   UNL     1      10.680   1.690  24.168  0.00  0.00    +0.047 C 
ATOM     26  C   UNL     1       9.858  -0.673  24.424  0.00  0.00    +0.034 A 
ENDBRANCH  16  19
ENDBRANCH  14  16
ENDBRANCH   1  14
TORSDOF 6
ENDMDL
MODEL 2
REMARK VINA RESULT:      -7.2      2.084      2.895
REMARK  Name = 
REMARK  7 active torsions:
REMARK  status: ('A' for Active; 'I' for Inactive)
REMARK    1  A    between atoms: C_2  and  N_3
REMARK    2  A    between atoms: C_2  and  C_15
REMARK    3  A    between atoms: C_2  and  C_21
REMARK    4  A    between atoms: N_3  and  S_4
REMARK    5  A    between atoms: S_4  and  C_7
REMARK    6  A    between atoms: C_9  and  C_10
REMARK    7  A    between atoms: N_23  and  O_24
REMARK                            x       y       z     vdW  Elec       q    Type
REMARK                         _______ _______ _______ _____ _____    ______ ____
ROOT
ATOM      1  C   UNL     1       7.719  -4.057  23.820  0.00  0.00    +0.167 C 
ENDROOT
BRANCH   1   2
ATOM      2  C   UNL     1       7.057  -5.455  23.637  0.00  0.00    +0.021 C 
ATOM      3  C   UNL     1       7.194  -6.022  22.213  0.00  0.00    +0.033 C 
ATOM      4  C   UNL     1       6.171  -5.430  21.253  0.00  0.00    +0.160 C 
ATOM      5  O   UNL     1       4.846  -5.640  21.732  0.00  0.00    -0.380 OA
ATOM      6  C   UNL     1       4.594  -5.059  23.007  0.00  0.00    +0.160 C 
ATOM      7  C   UNL     1       5.576  -5.563  24.059  0.00  0.00    +0.033 C 
ENDBRANCH   1   2
BRANCH   1   8
ATOM      8  C   UNL     1       9.105  -4.229  24.455  0.00  0.00    +0.254 C 
ATOM      9  N   UNL     1       9.208  -5.248  25.370  0.00  0.00    -0.196 N 
ATOM     10  H   UNL     1       8.513  -5.969  25.531  0.00  0.00    +0.182 HD
ATOM     11  O   UNL     1      10.051  -3.481  24.190  0.00  0.00    -0.272 OA
BRANCH   9  12
ATOM     12  O   UNL     1      10.506  -5.497  25.866  0.00  0.00    -0.295 OA
ATOM     13  H   UNL     1      10.400  -6.360  26.326  0.00  0.00    +0.241 HD
ENDBRANCH   9  12
ENDBRANCH   1   8
BRANCH   1  14
ATOM     14  N   UNL     1       6.893  -3.143  24.638  0.00  0.00    -0.178 NA
ATOM     15  H   UNL     1       7.285  -2.911  25.550  0.00  0.00    +0.149 HD
BRANCH  14  16
ATOM     16  S   UNL     1       6.394  -1.670  23.980  0.00  0.00    +0.059 S 
ATOM     17  O   UNL     1       5.382  -1.103  24.846  0.00  0.00    -0.153 OA
ATOM     18  O   UNL     1       6.168  -1.919  22.574  0.00  0.00    -0.153 OA
BRANCH  16  19
ATOM     19  C   UNL     1       7.843  -0.665  24.106  0.00  0.00    +0.106 A 
ATOM     20  C   UNL     1       8.573  -0.633  25.297  0.00  0.00    +0.031 A 
ATOM     21  C   UNL     1       9.727   0.147  25.360  0.00  0.00    +0.040 A 
ATOM     22  C   UNL     1      10.137   0.873  24.240  0.00  0.00    +0.126 A 
ATOM     23  F   UNL     1      11.253   1.611  24.321  0.00  0.00    -0.205 F 
ATOM     24  C   UNL     1       9.419   0.835  23.041  0.00  0.00    -0.013 A 
ATOM     25  C   UNL     1       9.896   1.588  21.839  0.00  0.00    +0.047 C 
ATOM     26  C   UNL     1       8.261   0.055  22.980  0.00  0.00    +0.034 A 
ENDBRANCH  16  19
ENDBRANCH  14  16
ENDBRANCH   1  14
TORSDOF 6
ENDMDL
MODEL 3
REMARK VINA RESULT:      -7.1      1.879      2.432
REMARK  Name = 
REMARK  7 active torsions:
REMARK  status: ('A' for Active; 'I' for Inactive)
REMARK    1  A    between atoms: C_2  and  N_3
REMARK    2  A    between atoms: C_2  and  C_15
REMARK    3  A    between atoms: C_2  and  C_21
REMARK    4  A    between atoms: N_3  and  S_4
REMARK    5  A    between atoms: S_4  and  C_7
REMARK    6  A    between atoms: C_9  and  C_10
REMARK    7  A    between atoms: N_23  and  O_24
REMARK                            x       y       z     vdW  Elec       q    Type
REMARK                         _______ _______ _______ _____ _____    ______ ____
ROOT
ATOM      1  C   UNL     1       8.055  -4.327  24.106  0.00  0.00    +0.167 C 
ENDROOT
BRANCH   1   2
ATOM      2  C   UNL     1       6.586  -4.776  23.850  0.00  0.00    +0.021 C 
ATOM      3  C   UNL     1       6.454  -5.882  22.788  0.00  0.00    +0.033 C 
ATOM      4  C   UNL     1       6.518  -5.334  21.369  0.00  0.00    +0.160 C 
ATOM      5  O   UNL     1       5.514  -4.344  21.163  0.00  0.00    -0.380 OA
ATOM      6  C   UNL     1       5.618  -3.226  22.039  0.00  0.00    +0.160 C 
ATOM      7  C   UNL     1       5.586  -3.653  23.502  0.00  0.00    +0.033 C 
ENDBRANCH   1   2
BRANCH   1   8
ATOM      8  C   UNL     1       8.549  -4.933  25.427  0.00  0.00    +0.254 C 
ATOM      9  N   UNL     1       7.565  -5.239  26.335  0.00  0.00    -0.196 N 
ATOM     10  H   UNL     1       6.569  -5.248  26.146  0.00  0.00    +0.182 HD
ATOM     11  O   UNL     1       9.748  -5.098  25.671  0.00  0.00    -0.272 OA
BRANCH   9  12
ATOM     12  O   UNL     1       7.995  -5.911  27.500  0.00  0.00    -0.295 OA
ATOM     13  H   UNL     1       7.682  -5.317  28.219  0.00  0.00    +0.241 HD
ENDBRANCH   9  12
ENDBRANCH   1   8
BRANCH   1  14
ATOM     14  N   UNL     1       8.200  -2.856  24.134  0.00  0.00    -0.178 NA
ATOM     15  H   UNL     1       8.406  -2.462  25.052  0.00  0.00    +0.149 HD
BRANCH  14  16
ATOM     16  S   UNL     1       9.289  -2.115  23.077  0.00  0.00    +0.059 S 
ATOM     17  O   UNL     1       8.723  -2.140  21.745  0.00  0.00    -0.153 OA
ATOM     18  O   UNL     1      10.585  -2.676  23.384  0.00  0.00    -0.153 OA
BRANCH  16  19
ATOM     19  C   UNL     1       9.303  -0.436  23.631  0.00  0.00    +0.106 A 
ATOM     20  C   UNL     1      10.514   0.195  23.927  0.00  0.00    +0.031 A 
ATOM     21  C   UNL     1      10.499   1.528  24.334  0.00  0.00    +0.040 A 
ATOM     22  C   UNL     1       9.285   2.210  24.435  0.00  0.00    +0.126 A 
ATOM     23  F   UNL     1       9.294   3.492  24.823  0.00  0.00    -0.205 F 
ATOM     24  C   UNL     1       8.071   1.589  24.128  0.00  0.00    -0.013 A 
ATOM     25  C   UNL     1       6.782   2.348  24.202  0.00  0.00    +0.047 C 
ATOM     26  C   UNL     1       8.087   0.252  23.721  0.00  0.00    +0.034 A 
ENDBRANCH  16  19
ENDBRANCH  14  16
ENDBRANCH   1  14
TORSDOF 6
ENDMDL
MODEL 4
REMARK VINA RESULT:      -6.8      2.336      3.654
REMARK  Name = 
REMARK  7 active torsions:
REMARK  status: ('A' for Active; 'I' for Inactive)
REMARK    1  A    between atoms: C_2  and  N_3
REMARK    2  A    between atoms: C_2  and  C_15
REMARK    3  A    between atoms: C_2  and  C_21
REMARK    4  A    between atoms: N_3  and  S_4
REMARK    5  A    between atoms: S_4  and  C_7
REMARK    6  A    between atoms: C_9  and  C_10
REMARK    7  A    between atoms: N_23  and  O_24
REMARK                            x       y       z     vdW  Elec       q    Type
REMARK                         _______ _______ _______ _____ _____    ______ ____
ROOT
ATOM      1  C   UNL     1       7.864  -2.574  24.182  0.00  0.00    +0.167 C 
ENDROOT
BRANCH   1   2
ATOM      2  C   UNL     1       7.234  -3.991  24.027  0.00  0.00    +0.021 C 
ATOM      3  C   UNL     1       7.236  -4.512  22.579  0.00  0.00    +0.033 C 
ATOM      4  C   UNL     1       6.095  -3.932  21.753  0.00  0.00    +0.160 C 
ATOM      5  O   UNL     1       4.837  -4.205  22.365  0.00  0.00    -0.380 OA
ATOM      6  C   UNL     1       4.705  -3.669  23.677  0.00  0.00    +0.160 C 
ATOM      7  C   UNL     1       5.813  -4.166  24.601  0.00  0.00    +0.033 C 
ENDBRANCH   1   2
BRANCH   1   8
ATOM      8  C   UNL     1       9.199  -2.525  23.428  0.00  0.00    +0.254 C 
ATOM      9  N   UNL     1       9.185  -1.805  22.258  0.00  0.00    -0.196 N 
ATOM     10  H   UNL     1       8.437  -1.193  21.950  0.00  0.00    +0.182 HD
ATOM     11  O   UNL     1      10.205  -3.121  23.824  0.00  0.00    -0.272 OA
BRANCH   9  12
ATOM     12  O   UNL     1      10.435  -1.647  21.621  0.00  0.00    -0.295 OA
ATOM     13  H   UNL     1      11.056  -1.572  22.380  0.00  0.00    +0.241 HD
ENDBRANCH   9  12
ENDBRANCH   1   8
BRANCH   1  14
ATOM     14  N   UNL     1       8.063  -2.195  25.597  0.00  0.00    -0.178 NA
ATOM     15  H   UNL     1       9.000  -2.370  25.960  0.00  0.00    +0.149 HD
BRANCH  14  16
ATOM     16  S   UNL     1       7.678  -0.628  26.094  0.00  0.00    +0.059 S 
ATOM     17  O   UNL     1       8.191  -0.435  27.434  0.00  0.00    -0.153 OA
ATOM     18  O   UNL     1       6.286  -0.434  25.756  0.00  0.00    -0.153 OA
BRANCH  16  19
ATOM     19  C   UNL     1       8.627   0.383  24.997  0.00  0.00    +0.106 A 
ATOM     20  C   UNL     1      10.020   0.410  25.096  0.00  0.00    +0.031 A 
ATOM     21  C   UNL     1      10.745   1.194  24.200  0.00  0.00    +0.040 A 
ATOM     22  C   UNL     1      10.075   1.931  23.221  0.00  0.00    +0.126 A 
ATOM     23  F   UNL     1      10.792   2.674  22.367  0.00  0.00    -0.205 F 
ATOM     24  C   UNL     1       8.682   1.899  23.109  0.00  0.00    -0.013 A 
ATOM     25  C   UNL     1       7.984   2.663  22.027  0.00  0.00    +0.047 C 
ATOM     26  C   UNL     1       7.957   1.114  24.008  0.00  0.00    +0.034 A 
ENDBRANCH  16  19
ENDBRANCH  14  16
ENDBRANCH   1  14
TORSDOF 6
ENDMDL
MODEL 5
REMARK VINA RESULT:      -6.7      2.121      2.863
REMARK  Name = 
REMARK  7 active torsions:
REMARK  status: ('A' for Active; 'I' for Inactive)
REMARK    1  A    between atoms: C_2  and  N_3
REMARK    2  A    between atoms: C_2  and  C_15
REMARK    3  A    between atoms: C_2  and  C_21
REMARK    4  A    between atoms: N_3  and  S_4
REMARK    5  A    between atoms: S_4  and  C_7
REMARK    6  A    between atoms: C_9  and  C_10
REMARK    7  A    between atoms: N_23  and  O_24
REMARK                            x       y       z     vdW  Elec       q    Type
REMARK                         _______ _______ _______ _____ _____    ______ ____
ROOT
ATOM      1  C   UNL     1       6.655  -4.800  25.052  0.00  0.00    +0.167 C 
ENDROOT
BRANCH   1   2
ATOM      2  C   UNL     1       5.369  -5.227  25.820  0.00  0.00    +0.021 C 
ATOM      3  C   UNL     1       4.890  -6.649  25.480  0.00  0.00    +0.033 C 
ATOM      4  C   UNL     1       4.107  -6.699  24.175  0.00  0.00    +0.160 C 
ATOM      5  O   UNL     1       2.994  -5.810  24.216  0.00  0.00    -0.380 OA
ATOM      6  C   UNL     1       3.351  -4.448  24.426  0.00  0.00    +0.160 C 
ATOM      7  C   UNL     1       4.163  -4.270  25.705  0.00  0.00    +0.033 C 
ENDBRANCH   1   2
BRANCH   1   8
ATOM      8  C   UNL     1       7.892  -5.292  25.815  0.00  0.00    +0.254 C 
ATOM      9  N   UNL     1       9.053  -5.337  25.082  0.00  0.00    -0.196 N 
ATOM     10  H   UNL     1       9.186  -4.933  24.162  0.00  0.00    +0.182 HD
ATOM     11  O   UNL     1       7.839  -5.658  26.993  0.00  0.00    -0.272 OA
BRANCH   9  12
ATOM     12  O   UNL     1      10.220  -5.667  25.805  0.00  0.00    -0.295 OA
ATOM     13  H   UNL     1      10.872  -5.846  25.091  0.00  0.00    +0.241 HD
ENDBRANCH   9  12
ENDBRANCH   1   8
BRANCH   1  14
ATOM     14  N   UNL     1       6.731  -3.338  24.845  0.00  0.00    -0.178 NA
ATOM     15  H   UNL     1       7.340  -2.843  25.498  0.00  0.00    +0.149 HD
BRANCH  14  16
ATOM     16  S   UNL     1       7.139  -2.741  23.319  0.00  0.00    +0.059 S 
ATOM     17  O   UNL     1       5.959  -2.137  22.735  0.00  0.00    -0.153 OA
ATOM     18  O   UNL     1       7.880  -3.794  22.664  0.00  0.00    -0.153 OA
BRANCH  16  19
ATOM     19  C   UNL     1       8.286  -1.447  23.689  0.00  0.00    +0.106 A 
ATOM     20  C   UNL     1       8.907  -1.397  24.940  0.00  0.00    +0.031 A 
ATOM     21  C   UNL     1       9.828  -0.383  25.195  0.00  0.00    +0.040 A 
ATOM     22  C   UNL     1      10.120   0.557  24.205  0.00  0.00    +0.126 A 
ATOM     23  F   UNL     1      11.013   1.520  24.469  0.00  0.00    -0.205 F 
ATOM     24  C   UNL     1       9.512   0.504  22.946  0.00  0.00    -0.013 A 
ATOM     25  C   UNL     1       9.868   1.496  21.883  0.00  0.00    +0.047 C 
ATOM     26  C   UNL     1       8.588  -0.512  22.692  0.00  0.00    +0.034 A 
ENDBRANCH  16  19
ENDBRANCH  14  16
ENDBRANCH   1  14
TORSDOF 6
ENDMDL
MODEL 6
REMARK VINA RESULT:      -6.6      1.863      3.818
REMARK  Name = 
REMARK  7 active torsions:
REMARK  status: ('A' for Active; 'I' for Inactive)
REMARK    1  A    between atoms: C_2  and  N_3
REMARK    2  A    between atoms: C_2  and  C_15
REMARK    3  A    between atoms: C_2  and  C_21
REMARK    4  A    between atoms: N_3  and  S_4
REMARK    5  A    between atoms: S_4  and  C_7
REMARK    6  A    between atoms: C_9  and  C_10
REMARK    7  A    between atoms: N_23  and  O_24
REMARK                            x       y       z     vdW  Elec       q    Type
REMARK                         _______ _______ _______ _____ _____    ______ ____
ROOT
ATOM      1  C   UNL     1       6.258  -3.789  24.223  0.00  0.00    +0.167 C 
ENDROOT
BRANCH   1   2
ATOM      2  C   UNL     1       6.771  -5.159  24.759  0.00  0.00    +0.021 C 
ATOM      3  C   UNL     1       5.893  -5.753  25.873  0.00  0.00    +0.033 C 
ATOM      4  C   UNL     1       6.182  -5.131  27.233  0.00  0.00    +0.160 C 
ATOM      5  O   UNL     1       7.558  -5.274  27.573  0.00  0.00    -0.380 OA
ATOM      6  C   UNL     1       8.448  -4.661  26.646  0.00  0.00    +0.160 C 
ATOM      7  C   UNL     1       8.240  -5.193  25.232  0.00  0.00    +0.033 C 
ENDBRANCH   1   2
BRANCH   1   8
ATOM      8  C   UNL     1       5.565  -3.999  22.870  0.00  0.00    +0.254 C 
ATOM      9  N   UNL     1       6.279  -3.579  21.774  0.00  0.00    -0.196 N 
ATOM     10  H   UNL     1       7.255  -3.303  21.776  0.00  0.00    +0.182 HD
ATOM     11  O   UNL     1       4.430  -4.477  22.776  0.00  0.00    -0.272 OA
BRANCH   9  12
ATOM     12  O   UNL     1       5.708  -3.881  20.519  0.00  0.00    -0.295 OA
ATOM     13  H   UNL     1       5.327  -3.017  20.242  0.00  0.00    +0.241 HD
ENDBRANCH   9  12
ENDBRANCH   1   8
BRANCH   1  14
ATOM     14  N   UNL     1       7.342  -2.792  24.091  0.00  0.00    -0.178 NA
ATOM     15  H   UNL     1       7.645  -2.611  23.133  0.00  0.00    +0.149 HD
BRANCH  14  16
ATOM     16  S   UNL     1       7.150  -1.267  24.791  0.00  0.00    +0.059 S 
ATOM     17  O   UNL     1       7.671  -1.316  26.141  0.00  0.00    -0.153 OA
ATOM     18  O   UNL     1       5.796  -0.860  24.492  0.00  0.00    -0.153 OA
BRANCH  16  19
ATOM     19  C   UNL     1       8.227  -0.246  23.829  0.00  0.00    +0.106 A 
ATOM     20  C   UNL     1       8.772  -0.730  22.637  0.00  0.00    +0.031 A 
ATOM     21  C   UNL     1       9.595   0.105  21.884  0.00  0.00    +0.040 A 
ATOM     22  C   UNL     1       9.856   1.404  22.324  0.00  0.00    +0.126 A 
ATOM     23  F   UNL     1      10.646   2.193  21.582  0.00  0.00    -0.205 F 
ATOM     24  C   UNL     1       9.303   1.899  23.510  0.00  0.00    -0.013 A 
ATOM     25  C   UNL     1       9.562   3.308  23.945  0.00  0.00    +0.047 C 
ATOM     26  C   UNL     1       8.480   1.060  24.264  0.00  0.00    +0.034 A 
ENDBRANCH  16  19
ENDBRANCH  14  16
ENDBRANCH   1  14
TORSDOF 6
ENDMDL
MODEL 7
REMARK VINA RESULT:      -6.5      2.299      4.104
REMARK  Name = 
REMARK  7 active torsions:
REMARK  status: ('A' for Active; 'I' for Inactive)
REMARK    1  A    between atoms: C_2  and  N_3
REMARK    2  A    between atoms: C_2  and  C_15
REMARK    3  A    between atoms: C_2  and  C_21
REMARK    4  A    between atoms: N_3  and  S_4
REMARK    5  A    between atoms: S_4  and  C_7
REMARK    6  A    between atoms: C_9  and  C_10
REMARK    7  A    between atoms: N_23  and  O_24
REMARK                            x       y       z     vdW  Elec       q    Type
REMARK                         _______ _______ _______ _____ _____    ______ ____
ROOT
ATOM      1  C   UNL     1       5.644  -5.200  24.934  0.00  0.00    +0.167 C 
ENDROOT
BRANCH   1   2
ATOM      2  C   UNL     1       6.495  -5.212  26.239  0.00  0.00    +0.021 C 
ATOM      3  C   UNL     1       6.272  -3.979  27.133  0.00  0.00    +0.033 C 
ATOM      4  C   UNL     1       7.057  -2.766  26.652  0.00  0.00    +0.160 C 
ATOM      5  O   UNL     1       8.449  -3.061  26.573  0.00  0.00    -0.380 OA
ATOM      6  C   UNL     1       8.762  -4.129  25.684  0.00  0.00    +0.160 C 
ATOM      7  C   UNL     1       8.015  -5.406  26.054  0.00  0.00    +0.033 C 
ENDBRANCH   1   2
BRANCH   1   8
ATOM      8  C   UNL     1       4.498  -6.211  25.064  0.00  0.00    +0.254 C 
ATOM      9  N   UNL     1       4.354  -7.073  24.004  0.00  0.00    -0.196 N 
ATOM     10  H   UNL     1       5.019  -7.196  23.249  0.00  0.00    +0.182 HD
ATOM     11  O   UNL     1       3.735  -6.224  26.035  0.00  0.00    -0.272 OA
BRANCH   9  12
ATOM     12  O   UNL     1       3.385  -8.087  24.167  0.00  0.00    -0.295 OA
ATOM     13  H   UNL     1       2.858  -8.016  23.339  0.00  0.00    +0.241 HD
ENDBRANCH   9  12
ENDBRANCH   1   8
BRANCH   1  14
ATOM     14  N   UNL     1       6.451  -5.495  23.731  0.00  0.00    -0.178 NA
ATOM     15  H   UNL     1       6.452  -6.474  23.444  0.00  0.00    +0.149 HD
BRANCH  14  16
ATOM     16  S   UNL     1       6.172  -4.618  22.315  0.00  0.00    +0.059 S 
ATOM     17  O   UNL     1       4.744  -4.433  22.165  0.00  0.00    -0.153 OA
ATOM     18  O   UNL     1       6.990  -5.238  21.296  0.00  0.00    -0.153 OA
BRANCH  16  19
ATOM     19  C   UNL     1       6.890  -3.042  22.673  0.00  0.00    +0.106 A 
ATOM     20  C   UNL     1       6.113  -2.031  23.243  0.00  0.00    +0.031 A 
ATOM     21  C   UNL     1       6.711  -0.807  23.540  0.00  0.00    +0.040 A 
ATOM     22  C   UNL     1       8.067  -0.613  23.272  0.00  0.00    +0.126 A 
ATOM     23  F   UNL     1       8.624   0.569  23.571  0.00  0.00    -0.205 F 
ATOM     24  C   UNL     1       8.854  -1.626  22.713  0.00  0.00    -0.013 A 
ATOM     25  C   UNL     1      10.316  -1.413  22.471  0.00  0.00    +0.047 C 
ATOM     26  C   UNL     1       8.253  -2.851  22.414  0.00  0.00    +0.034 A 
ENDBRANCH  16  19
ENDBRANCH  14  16
ENDBRANCH   1  14
TORSDOF 6
ENDMDL
MODEL 8
REMARK VINA RESULT:      -6.5      2.331      4.118
REMARK  Name = 
REMARK  7 active torsions:
REMARK  status: ('A' for Active; 'I' for Inactive)
REMARK    1  A    between atoms: C_2  and  N_3
REMARK    2  A    between atoms: C_2  and  C_15
REMARK    3  A    between atoms: C_2  and  C_21
REMARK    4  A    between atoms: N_3  and  S_4
REMARK    5  A    between atoms: S_4  and  C_7
REMARK    6  A    between atoms: C_9  and  C_10
REMARK    7  A    between atoms: N_23  and  O_24
REMARK                            x       y       z     vdW  Elec       q    Type
REMARK                         _______ _______ _______ _____ _____    ______ ____
ROOT
ATOM      1  C   UNL     1       8.112  -2.986  24.255  0.00  0.00    +0.167 C 
ENDROOT
BRANCH   1   2
ATOM      2  C   UNL     1       8.250  -4.537  24.326  0.00  0.00    +0.021 C 
ATOM      3  C   UNL     1       6.926  -5.285  24.092  0.00  0.00    +0.033 C 
ATOM      4  C   UNL     1       6.053  -5.322  25.340  0.00  0.00    +0.160 C 
ATOM      5  O   UNL     1       6.755  -5.908  26.432  0.00  0.00    -0.380 OA
ATOM      6  C   UNL     1       7.949  -5.219  26.788  0.00  0.00    +0.160 C 
ATOM      7  C   UNL     1       8.904  -5.100  25.605  0.00  0.00    +0.033 C 
ENDBRANCH   1   2
BRANCH   1   8
ATOM      8  C   UNL     1       8.503  -2.504  22.851  0.00  0.00    +0.254 C 
ATOM      9  N   UNL     1       9.756  -1.951  22.750  0.00  0.00    -0.196 N 
ATOM     10  H   UNL     1      10.476  -1.985  23.464  0.00  0.00    +0.182 HD
ATOM     11  O   UNL     1       7.732  -2.573  21.890  0.00  0.00    -0.272 OA
BRANCH   9  12
ATOM     12  O   UNL     1      10.176  -1.620  21.443  0.00  0.00    -0.295 OA
ATOM     13  H   UNL     1       9.607  -2.194  20.882  0.00  0.00    +0.241 HD
ENDBRANCH   9  12
ENDBRANCH   1   8
BRANCH   1  14
ATOM     14  N   UNL     1       8.930  -2.299  25.277  0.00  0.00    -0.178 NA
ATOM     15  H   UNL     1       9.811  -1.914  24.934  0.00  0.00    +0.149 HD
BRANCH  14  16
ATOM     16  S   UNL     1       8.235  -1.066  26.197  0.00  0.00    +0.059 S 
ATOM     17  O   UNL     1       9.150  -0.721  27.265  0.00  0.00    -0.153 OA
ATOM     18  O   UNL     1       6.869  -1.473  26.441  0.00  0.00    -0.153 OA
BRANCH  16  19
ATOM     19  C   UNL     1       8.179   0.294  25.067  0.00  0.00    +0.106 A 
ATOM     20  C   UNL     1       6.958   0.713  24.534  0.00  0.00    +0.031 A 
ATOM     21  C   UNL     1       6.939   1.805  23.668  0.00  0.00    +0.040 A 
ATOM     22  C   UNL     1       8.130   2.462  23.353  0.00  0.00    +0.126 A 
ATOM     23  F   UNL     1       8.088   3.513  22.523  0.00  0.00    -0.205 F 
ATOM     24  C   UNL     1       9.354   2.056  23.893  0.00  0.00    -0.013 A 
ATOM     25  C   UNL     1      10.614   2.799  23.577  0.00  0.00    +0.047 C 
ATOM     26  C   UNL     1       9.371   0.961  24.760  0.00  0.00    +0.034 A 
ENDBRANCH  16  19
ENDBRANCH  14  16
ENDBRANCH   1  14
TORSDOF 6
ENDMDL
MODEL 9
REMARK VINA RESULT:      -6.5      1.634      2.331
REMARK  Name = 
REMARK  7 active torsions:
REMARK  status: ('A' for Active; 'I' for Inactive)
REMARK    1  A    between atoms: C_2  and  N_3
REMARK    2  A    between atoms: C_2  and  C_15
REMARK    3  A    between atoms: C_2  and  C_21
REMARK    4  A    between atoms: N_3  and  S_4
REMARK    5  A    between atoms: S_4  and  C_7
REMARK    6  A    between atoms: C_9  and  C_10
REMARK    7  A    between atoms: N_23  and  O_24
REMARK                            x       y       z     vdW  Elec       q    Type
REMARK                         _______ _______ _______ _____ _____    ______ ____
ROOT
ATOM      1  C   UNL     1       8.012  -3.554  24.142  0.00  0.00    +0.167 C 
ENDROOT
BRANCH   1   2
ATOM      2  C   UNL     1       7.680  -4.202  22.765  0.00  0.00    +0.021 C 
ATOM      3  C   UNL     1       6.757  -3.342  21.884  0.00  0.00    +0.033 C 
ATOM      4  C   UNL     1       5.292  -3.472  22.280  0.00  0.00    +0.160 C 
ATOM      5  O   UNL     1       4.873  -4.833  22.235  0.00  0.00    -0.380 OA
ATOM      6  C   UNL     1       5.608  -5.692  23.101  0.00  0.00    +0.160 C 
ATOM      7  C   UNL     1       7.105  -5.634  22.812  0.00  0.00    +0.033 C 
ENDBRANCH   1   2
BRANCH   1   8
ATOM      8  C   UNL     1       8.578  -4.624  25.085  0.00  0.00    +0.254 C 
ATOM      9  N   UNL     1       7.812  -4.891  26.193  0.00  0.00    -0.196 N 
ATOM     10  H   UNL     1       6.863  -4.569  26.347  0.00  0.00    +0.182 HD
ATOM     11  O   UNL     1       9.663  -5.177  24.882  0.00  0.00    -0.272 OA
BRANCH   9  12
ATOM     12  O   UNL     1       8.258  -5.960  27.002  0.00  0.00    -0.295 OA
ATOM     13  H   UNL     1       9.128  -6.185  26.601  0.00  0.00    +0.241 HD
ENDBRANCH   9  12
ENDBRANCH   1   8
BRANCH   1  14
ATOM     14  N   UNL     1       6.837  -2.901  24.757  0.00  0.00    -0.178 NA
ATOM     15  H   UNL     1       6.318  -3.483  25.415  0.00  0.00    +0.149 HD
BRANCH  14  16
ATOM     16  S   UNL     1       7.032  -1.416  25.536  0.00  0.00    +0.059 S 
ATOM     17  O   UNL     1       7.824  -1.626  26.730  0.00  0.00    -0.153 OA
ATOM     18  O   UNL     1       5.721  -0.807  25.567  0.00  0.00    -0.153 OA
BRANCH  16  19
ATOM     19  C   UNL     1       8.011  -0.489  24.391  0.00  0.00    +0.106 A 
ATOM     20  C   UNL     1       7.468  -0.091  23.167  0.00  0.00    +0.031 A 
ATOM     21  C   UNL     1       8.252   0.663  22.295  0.00  0.00    +0.040 A 
ATOM     22  C   UNL     1       9.555   1.011  22.656  0.00  0.00    +0.126 A 
ATOM     23  F   UNL     1      10.289   1.741  21.805  0.00  0.00    -0.205 F 
ATOM     24  C   UNL     1      10.100   0.627  23.885  0.00  0.00    -0.013 A 
ATOM     25  C   UNL     1      11.484   1.044  24.273  0.00  0.00    +0.047 C 
ATOM     26  C   UNL     1       9.313  -0.130  24.758  0.00  0.00    +0.034 A 
ENDBRANCH  16  19
ENDBRANCH  14  16
ENDBRANCH   1  14
TORSDOF 6
ENDMDL
