MODEL 1
REMARK VINA RESULT:      -8.0      0.000      0.000
REMARK  Name = 
REMARK  4 active torsions:
REMARK  status: ('A' for Active; 'I' for Inactive)
REMARK    1  A    between atoms: C_2  and  C_24
REMARK    2  A    between atoms: N_3  and  C_4
REMARK    3  A    between atoms: C_6  and  C_10
REMARK    4  A    between atoms: C_16  and  C_19
REMARK                            x       y       z     vdW  Elec       q    Type
REMARK                         _______ _______ _______ _____ _____    ______ ____
ROOT
ATOM      1  C   UNL     1       7.052   2.642  23.385  0.00  0.00    +0.100 A 
ATOM      2  C   UNL     1       7.828   3.854  23.359  0.00  0.00    +0.028 A 
ATOM      3  C   UNL     1       7.087   4.742  22.587  0.00  0.00    +0.066 A 
ATOM      4  C   UNL     1       7.478   6.062  22.340  0.00  0.00    +0.028 A 
ATOM      5  C   UNL     1       8.684   6.490  22.910  0.00  0.00    +0.014 A 
ATOM      6  C   UNL     1       9.477   5.634  23.686  0.00  0.00    +0.022 A 
ATOM      7  N   UNL     1       5.987   4.036  22.191  0.00  0.00    -0.276 N 
ATOM      8  H   UNL     1       5.219   4.367  21.620  0.00  0.00    +0.189 HD
ATOM      9  C   UNL     1       9.051   4.309  23.903  0.00  0.00    +0.023 A 
ATOM     10  N   UNL     1       5.946   2.771  22.629  0.00  0.00    -0.173 NA
ENDROOT
BRANCH   1  15
ATOM     11  C   UNL     1       7.265  -1.052  24.202  0.00  0.00    +0.034 A 
ATOM     12  C   UNL     1       7.891  -1.015  25.451  0.00  0.00    +0.023 A 
ATOM     13  C   UNL     1       8.192   0.215  26.049  0.00  0.00    +0.002 A 
ATOM     14  C   UNL     1       7.890   1.413  25.395  0.00  0.00    +0.010 A 
ATOM     15  C   UNL     1       7.299   1.399  24.128  0.00  0.00    +0.004 A 
ATOM     16  C   UNL     1       7.009   0.158  23.547  0.00  0.00    +0.033 A 
BRANCH  11  19
ATOM     17  O   UNL     1       8.496  -2.377  21.934  0.00  0.00    -0.266 OA
ATOM     18  C   UNL     1       7.586  -2.901  22.566  0.00  0.00    +0.284 C 
ATOM     19  N   UNL     1       6.929  -2.306  23.636  0.00  0.00    -0.279 N 
ATOM     20  H   UNL     1       6.097  -2.777  23.970  0.00  0.00    +0.155 HD
BRANCH  18  21
ATOM     21  C   UNL     1       7.101  -4.209  22.182  0.00  0.00    +0.189 A 
ATOM     22  O   UNL     1       6.198  -4.374  21.168  0.00  0.00    -0.458 OA
ATOM     23  C   UNL     1       5.967  -5.712  21.067  0.00  0.00    +0.196 A 
ATOM     24  C   UNL     1       6.704  -6.409  21.997  0.00  0.00    +0.042 A 
ATOM     25  C   UNL     1       7.428  -5.441  22.721  0.00  0.00    +0.054 A 
ENDBRANCH  18  21
ENDBRANCH  11  19
ENDBRANCH   1  15
BRANCH   6  26
ATOM     26  C   UNL     1      10.727   6.115  24.273  0.00  0.00    +0.181 A 
ATOM     27  N   UNL     1      10.763   6.918  25.398  0.00  0.00    -0.215 NA
ATOM     28  C   UNL     1      12.045   7.108  25.602  0.00  0.00    +0.216 A 
ATOM     29  N   UNL     1      12.753   6.453  24.651  0.00  0.00    -0.265 N 
ATOM     30  H   UNL     1      13.757   6.390  24.524  0.00  0.00    +0.190 HD
ATOM     31  N   UNL     1      11.946   5.825  23.789  0.00  0.00    -0.152 NA
ENDBRANCH   6  26
TORSDOF 4
ENDMDL
MODEL 2
REMARK VINA RESULT:      -7.9      1.790      2.117
REMARK  Name = 
REMARK  4 active torsions:
REMARK  status: ('A' for Active; 'I' for Inactive)
REMARK    1  A    between atoms: C_2  and  C_24
REMARK    2  A    between atoms: N_3  and  C_4
REMARK    3  A    between atoms: C_6  and  C_10
REMARK    4  A    between atoms: C_16  and  C_19
REMARK                            x       y       z     vdW  Elec       q    Type
REMARK                         _______ _______ _______ _____ _____    ______ ____
ROOT
ATOM      1  C   UNL     1       7.726   2.286  22.326  0.00  0.00    +0.100 A 
ATOM      2  C   UNL     1       8.237   3.572  22.726  0.00  0.00    +0.028 A 
ATOM      3  C   UNL     1       7.184   4.457  22.527  0.00  0.00    +0.066 A 
ATOM      4  C   UNL     1       7.254   5.821  22.829  0.00  0.00    +0.028 A 
ATOM      5  C   UNL     1       8.459   6.299  23.360  0.00  0.00    +0.014 A 
ATOM      6  C   UNL     1       9.557   5.453  23.571  0.00  0.00    +0.022 A 
ATOM      7  N   UNL     1       6.171   3.696  22.015  0.00  0.00    -0.276 N 
ATOM      8  H   UNL     1       5.243   4.006  21.755  0.00  0.00    +0.189 HD
ATOM      9  C   UNL     1       9.447   4.087  23.244  0.00  0.00    +0.023 A 
ATOM     10  N   UNL     1       6.470   2.399  21.860  0.00  0.00    -0.173 NA
ENDROOT
BRANCH   1  15
ATOM     11  C   UNL     1       8.247  -1.394  23.063  0.00  0.00    +0.034 A 
ATOM     12  C   UNL     1       9.493  -1.613  22.469  0.00  0.00    +0.023 A 
ATOM     13  C   UNL     1      10.186  -0.549  21.879  0.00  0.00    +0.002 A 
ATOM     14  C   UNL     1       9.631   0.734  21.859  0.00  0.00    +0.010 A 
ATOM     15  C   UNL     1       8.367   0.967  22.413  0.00  0.00    +0.004 A 
ATOM     16  C   UNL     1       7.691  -0.111  22.995  0.00  0.00    +0.033 A 
BRANCH  11  19
ATOM     17  O   UNL     1       6.472  -3.349  21.861  0.00  0.00    -0.266 OA
ATOM     18  C   UNL     1       6.771  -3.399  23.049  0.00  0.00    +0.284 C 
ATOM     19  N   UNL     1       7.583  -2.475  23.694  0.00  0.00    -0.279 N 
ATOM     20  H   UNL     1       7.627  -2.542  24.703  0.00  0.00    +0.155 HD
BRANCH  18  21
ATOM     21  C   UNL     1       6.233  -4.450  23.885  0.00  0.00    +0.189 A 
ATOM     22  O   UNL     1       6.578  -4.570  25.203  0.00  0.00    -0.458 OA
ATOM     23  C   UNL     1       5.895  -5.644  25.687  0.00  0.00    +0.196 A 
ATOM     24  C   UNL     1       5.119  -6.216  24.706  0.00  0.00    +0.042 A 
ATOM     25  C   UNL     1       5.342  -5.453  23.542  0.00  0.00    +0.054 A 
ENDBRANCH  18  21
ENDBRANCH  11  19
ENDBRANCH   1  15
BRANCH   6  26
ATOM     26  C   UNL     1      10.798   5.982  24.134  0.00  0.00    +0.181 A 
ATOM     27  N   UNL     1      10.822   6.815  25.236  0.00  0.00    -0.215 NA
ATOM     28  C   UNL     1      12.100   7.044  25.425  0.00  0.00    +0.216 A 
ATOM     29  N   UNL     1      12.818   6.383  24.485  0.00  0.00    -0.265 N 
ATOM     30  H   UNL     1      13.822   6.343  24.351  0.00  0.00    +0.190 HD
ATOM     31  N   UNL     1      12.021   5.711  23.647  0.00  0.00    -0.152 NA
ENDBRANCH   6  26
TORSDOF 4
ENDMDL
MODEL 3
REMARK VINA RESULT:      -7.9      3.723      6.074
REMARK  Name = 
REMARK  4 active torsions:
REMARK  status: ('A' for Active; 'I' for Inactive)
REMARK    1  A    between atoms: C_2  and  C_24
REMARK    2  A    between atoms: N_3  and  C_4
REMARK    3  A    between atoms: C_6  and  C_10
REMARK    4  A    between atoms: C_16  and  C_19
REMARK                            x       y       z     vdW  Elec       q    Type
REMARK                         _______ _______ _______ _____ _____    ______ ____
ROOT
ATOM      1  C   UNL     1       8.514  -2.035  22.746  0.00  0.00    +0.100 A 
ATOM      2  C   UNL     1       8.409  -0.607  22.599  0.00  0.00    +0.028 A 
ATOM      3  C   UNL     1       9.670  -0.191  22.190  0.00  0.00    +0.066 A 
ATOM      4  C   UNL     1       9.988   1.139  21.898  0.00  0.00    +0.028 A 
ATOM      5  C   UNL     1       8.966   2.087  22.034  0.00  0.00    +0.014 A 
ATOM      6  C   UNL     1       7.678   1.726  22.454  0.00  0.00    +0.022 A 
ATOM      7  N   UNL     1      10.424  -1.330  22.150  0.00  0.00    -0.276 N 
ATOM      8  H   UNL     1      11.398  -1.411  21.885  0.00  0.00    +0.189 HD
ATOM      9  C   UNL     1       7.402   0.376  22.747  0.00  0.00    +0.023 A 
ATOM     10  N   UNL     1       9.771  -2.446  22.500  0.00  0.00    -0.173 NA
ENDROOT
BRANCH   1  15
ATOM     11  C   UNL     1       6.140  -4.208  24.747  0.00  0.00    +0.034 A 
ATOM     12  C   UNL     1       5.366  -4.769  23.727  0.00  0.00    +0.023 A 
ATOM     13  C   UNL     1       5.655  -4.482  22.388  0.00  0.00    +0.002 A 
ATOM     14  C   UNL     1       6.703  -3.617  22.059  0.00  0.00    +0.010 A 
ATOM     15  C   UNL     1       7.465  -3.013  23.064  0.00  0.00    +0.004 A 
ATOM     16  C   UNL     1       7.158  -3.313  24.398  0.00  0.00    +0.033 A 
BRANCH  11  19
ATOM     17  O   UNL     1       7.668  -5.928  26.513  0.00  0.00    -0.266 OA
ATOM     18  C   UNL     1       6.656  -5.352  26.897  0.00  0.00    +0.284 C 
ATOM     19  N   UNL     1       5.859  -4.547  26.093  0.00  0.00    -0.279 N 
ATOM     20  H   UNL     1       4.972  -4.256  26.486  0.00  0.00    +0.155 HD
BRANCH  18  21
ATOM     21  C   UNL     1       6.199  -5.526  28.258  0.00  0.00    +0.189 A 
ATOM     22  O   UNL     1       6.704  -6.507  29.067  0.00  0.00    -0.458 OA
ATOM     23  C   UNL     1       6.070  -6.386  30.267  0.00  0.00    +0.196 A 
ATOM     24  C   UNL     1       5.167  -5.348  30.243  0.00  0.00    +0.042 A 
ATOM     25  C   UNL     1       5.244  -4.799  28.947  0.00  0.00    +0.054 A 
ENDBRANCH  18  21
ENDBRANCH  11  19
ENDBRANCH   1  15
BRANCH   6  26
ATOM     26  C   UNL     1       6.631   2.739  22.578  0.00  0.00    +0.181 A 
ATOM     27  N   UNL     1       5.414   2.484  23.182  0.00  0.00    -0.215 NA
ATOM     28  C   UNL     1       4.783   3.631  23.103  0.00  0.00    +0.216 A 
ATOM     29  N   UNL     1       5.576   4.539  22.485  0.00  0.00    -0.265 N 
ATOM     30  H   UNL     1       5.396   5.514  22.272  0.00  0.00    +0.190 HD
ATOM     31  N   UNL     1       6.748   4.000  22.132  0.00  0.00    -0.152 NA
ENDBRANCH   6  26
TORSDOF 4
ENDMDL
MODEL 4
REMARK VINA RESULT:      -7.9      3.303      4.803
REMARK  Name = 
REMARK  4 active torsions:
REMARK  status: ('A' for Active; 'I' for Inactive)
REMARK    1  A    between atoms: C_2  and  C_24
REMARK    2  A    between atoms: N_3  and  C_4
REMARK    3  A    between atoms: C_6  and  C_10
REMARK    4  A    between atoms: C_16  and  C_19
REMARK                            x       y       z     vdW  Elec       q    Type
REMARK                         _______ _______ _______ _____ _____    ______ ____
ROOT
ATOM      1  C   UNL     1       9.164  -1.656  23.073  0.00  0.00    +0.100 A 
ATOM      2  C   UNL     1       9.131  -0.239  23.327  0.00  0.00    +0.028 A 
ATOM      3  C   UNL     1       9.784   0.338  22.243  0.00  0.00    +0.066 A 
ATOM      4  C   UNL     1       9.941   1.718  22.082  0.00  0.00    +0.028 A 
ATOM      5  C   UNL     1       9.405   2.545  23.078  0.00  0.00    +0.014 A 
ATOM      6  C   UNL     1       8.748   2.017  24.197  0.00  0.00    +0.022 A 
ATOM      7  N   UNL     1      10.176  -0.713  21.464  0.00  0.00    -0.276 N 
ATOM      8  H   UNL     1      10.675  -0.671  20.583  0.00  0.00    +0.189 HD
ATOM      9  C   UNL     1       8.619   0.620  24.326  0.00  0.00    +0.023 A 
ATOM     10  N   UNL     1       9.844  -1.920  21.943  0.00  0.00    -0.173 NA
ENDROOT
BRANCH   1  15
ATOM     11  C   UNL     1       6.529  -4.001  24.455  0.00  0.00    +0.034 A 
ATOM     12  C   UNL     1       7.322  -4.914  25.155  0.00  0.00    +0.023 A 
ATOM     13  C   UNL     1       8.709  -4.732  25.222  0.00  0.00    +0.002 A 
ATOM     14  C   UNL     1       9.313  -3.651  24.574  0.00  0.00    +0.010 A 
ATOM     15  C   UNL     1       8.542  -2.748  23.834  0.00  0.00    +0.004 A 
ATOM     16  C   UNL     1       7.158  -2.950  23.778  0.00  0.00    +0.033 A 
BRANCH  11  19
ATOM     17  O   UNL     1       4.888  -5.063  22.311  0.00  0.00    -0.266 OA
ATOM     18  C   UNL     1       4.401  -4.729  23.386  0.00  0.00    +0.284 C 
ATOM     19  N   UNL     1       5.124  -4.179  24.437  0.00  0.00    -0.279 N 
ATOM     20  H   UNL     1       4.582  -3.805  25.207  0.00  0.00    +0.155 HD
BRANCH  18  21
ATOM     21  C   UNL     1       2.977  -4.859  23.604  0.00  0.00    +0.189 A 
ATOM     22  O   UNL     1       2.174  -5.542  22.731  0.00  0.00    -0.458 OA
ATOM     23  C   UNL     1       0.910  -5.478  23.235  0.00  0.00    +0.196 A 
ATOM     24  C   UNL     1       0.886  -4.767  24.413  0.00  0.00    +0.042 A 
ATOM     25  C   UNL     1       2.215  -4.361  24.647  0.00  0.00    +0.054 A 
ENDBRANCH  18  21
ENDBRANCH  11  19
ENDBRANCH   1  15
BRANCH   6  26
ATOM     26  C   UNL     1       8.193   2.909  25.215  0.00  0.00    +0.181 A 
ATOM     27  N   UNL     1       7.411   2.453  26.259  0.00  0.00    -0.215 NA
ATOM     28  C   UNL     1       7.137   3.541  26.940  0.00  0.00    +0.216 A 
ATOM     29  N   UNL     1       7.725   4.605  26.341  0.00  0.00    -0.265 N 
ATOM     30  H   UNL     1       7.718   5.582  26.611  0.00  0.00    +0.190 HD
ATOM     31  N   UNL     1       8.391   4.237  25.241  0.00  0.00    -0.152 NA
ENDBRANCH   6  26
TORSDOF 4
ENDMDL
MODEL 5
REMARK VINA RESULT:      -7.8      3.855      9.808
REMARK  Name = 
REMARK  4 active torsions:
REMARK  status: ('A' for Active; 'I' for Inactive)
REMARK    1  A    between atoms: C_2  and  C_24
REMARK    2  A    between atoms: N_3  and  C_4
REMARK    3  A    between atoms: C_6  and  C_10
REMARK    4  A    between atoms: C_16  and  C_19
REMARK                            x       y       z     vdW  Elec       q    Type
REMARK                         _______ _______ _______ _____ _____    ______ ____
ROOT
ATOM      1  C   UNL     1       6.579  -4.100  23.402  0.00  0.00    +0.100 A 
ATOM      2  C   UNL     1       5.994  -4.923  24.428  0.00  0.00    +0.028 A 
ATOM      3  C   UNL     1       5.128  -5.778  23.755  0.00  0.00    +0.066 A 
ATOM      4  C   UNL     1       4.378  -6.773  24.390  0.00  0.00    +0.028 A 
ATOM      5  C   UNL     1       4.521  -6.897  25.778  0.00  0.00    +0.014 A 
ATOM      6  C   UNL     1       5.371  -6.054  26.508  0.00  0.00    +0.022 A 
ATOM      7  N   UNL     1       5.217  -5.414  22.442  0.00  0.00    -0.276 N 
ATOM      8  H   UNL     1       4.729  -5.827  21.657  0.00  0.00    +0.189 HD
ATOM      9  C   UNL     1       6.102  -5.059  25.831  0.00  0.00    +0.023 A 
ATOM     10  N   UNL     1       6.057  -4.398  22.199  0.00  0.00    -0.173 NA
ENDROOT
BRANCH   1  15
ATOM     11  C   UNL     1       8.284  -0.723  23.618  0.00  0.00    +0.034 A 
ATOM     12  C   UNL     1       9.602  -1.105  23.884  0.00  0.00    +0.023 A 
ATOM     13  C   UNL     1       9.943  -2.461  23.938  0.00  0.00    +0.002 A 
ATOM     14  C   UNL     1       8.968  -3.445  23.747  0.00  0.00    +0.010 A 
ATOM     15  C   UNL     1       7.635  -3.086  23.518  0.00  0.00    +0.004 A 
ATOM     16  C   UNL     1       7.316  -1.723  23.471  0.00  0.00    +0.033 A 
BRANCH  11  19
ATOM     17  O   UNL     1       8.716   1.060  21.371  0.00  0.00    -0.266 OA
ATOM     18  C   UNL     1       8.172   1.445  22.400  0.00  0.00    +0.284 C 
ATOM     19  N   UNL     1       7.969   0.655  23.524  0.00  0.00    -0.279 N 
ATOM     20  H   UNL     1       7.650   1.133  24.358  0.00  0.00    +0.155 HD
BRANCH  18  21
ATOM     21  C   UNL     1       7.731   2.819  22.513  0.00  0.00    +0.189 A 
ATOM     22  O   UNL     1       8.529   3.788  23.057  0.00  0.00    -0.458 OA
ATOM     23  C   UNL     1       7.820   4.950  23.002  0.00  0.00    +0.196 A 
ATOM     24  C   UNL     1       6.584   4.745  22.434  0.00  0.00    +0.042 A 
ATOM     25  C   UNL     1       6.523   3.371  22.126  0.00  0.00    +0.054 A 
ENDBRANCH  18  21
ENDBRANCH  11  19
ENDBRANCH   1  15
BRANCH   6  26
ATOM     26  C   UNL     1       5.504  -6.214  27.956  0.00  0.00    +0.181 A 
ATOM     27  N   UNL     1       5.435  -5.149  28.833  0.00  0.00    -0.215 NA
ATOM     28  C   UNL     1       5.581  -5.709  30.011  0.00  0.00    +0.216 A 
ATOM     29  N   UNL     1       5.729  -7.047  29.858  0.00  0.00    -0.265 N 
ATOM     30  H   UNL     1       5.856  -7.766  30.562  0.00  0.00    +0.190 HD
ATOM     31  N   UNL     1       5.696  -7.395  28.568  0.00  0.00    -0.152 NA
ENDBRANCH   6  26
TORSDOF 4
ENDMDL
MODEL 6
REMARK VINA RESULT:      -7.7      3.861      5.582
REMARK  Name = 
REMARK  4 active torsions:
REMARK  status: ('A' for Active; 'I' for Inactive)
REMARK    1  A    between atoms: C_2  and  C_24
REMARK    2  A    between atoms: N_3  and  C_4
REMARK    3  A    between atoms: C_6  and  C_10
REMARK    4  A    between atoms: C_16  and  C_19
REMARK                            x       y       z     vdW  Elec       q    Type
REMARK                         _______ _______ _______ _____ _____    ______ ____
ROOT
ATOM      1  C   UNL     1       9.061  -2.043  23.199  0.00  0.00    +0.100 A 
ATOM      2  C   UNL     1       8.600  -0.713  22.898  0.00  0.00    +0.028 A 
ATOM      3  C   UNL     1       9.560  -0.182  22.045  0.00  0.00    +0.066 A 
ATOM      4  C   UNL     1       9.472   1.096  21.483  0.00  0.00    +0.028 A 
ATOM      5  C   UNL     1       8.348   1.865  21.813  0.00  0.00    +0.014 A 
ATOM      6  C   UNL     1       7.355   1.383  22.677  0.00  0.00    +0.022 A 
ATOM      7  N   UNL     1      10.505  -1.161  21.919  0.00  0.00    -0.276 N 
ATOM      8  H   UNL     1      11.352  -1.128  21.364  0.00  0.00    +0.189 HD
ATOM      9  C   UNL     1       7.487   0.094  23.228  0.00  0.00    +0.023 A 
ATOM     10  N   UNL     1      10.250  -2.277  22.615  0.00  0.00    -0.173 NA
ENDROOT
BRANCH   1  15
ATOM     11  C   UNL     1       6.357  -4.341  24.528  0.00  0.00    +0.034 A 
ATOM     12  C   UNL     1       7.110  -5.207  25.327  0.00  0.00    +0.023 A 
ATOM     13  C   UNL     1       8.487  -5.006  25.476  0.00  0.00    +0.002 A 
ATOM     14  C   UNL     1       9.125  -3.954  24.811  0.00  0.00    +0.010 A 
ATOM     15  C   UNL     1       8.399  -3.100  23.975  0.00  0.00    +0.004 A 
ATOM     16  C   UNL     1       7.022  -3.321  23.839  0.00  0.00    +0.033 A 
BRANCH  11  19
ATOM     17  O   UNL     1       4.840  -5.256  22.231  0.00  0.00    -0.266 OA
ATOM     18  C   UNL     1       4.297  -5.012  23.302  0.00  0.00    +0.284 C 
ATOM     19  N   UNL     1       4.958  -4.536  24.427  0.00  0.00    -0.279 N 
ATOM     20  H   UNL     1       4.374  -4.229  25.196  0.00  0.00    +0.155 HD
BRANCH  18  21
ATOM     21  C   UNL     1       2.866  -5.177  23.440  0.00  0.00    +0.189 A 
ATOM     22  O   UNL     1       2.143  -5.944  22.567  0.00  0.00    -0.458 OA
ATOM     23  C   UNL     1       0.848  -5.890  22.985  0.00  0.00    +0.196 A 
ATOM     24  C   UNL     1       0.725  -5.104  24.107  0.00  0.00    +0.042 A 
ATOM     25  C   UNL     1       2.024  -4.638  24.396  0.00  0.00    +0.054 A 
ENDBRANCH  18  21
ENDBRANCH  11  19
ENDBRANCH   1  15
BRANCH   6  26
ATOM     26  C   UNL     1       6.190   2.209  22.994  0.00  0.00    +0.181 A 
ATOM     27  N   UNL     1       5.369   1.954  24.076  0.00  0.00    -0.215 NA
ATOM     28  C   UNL     1       4.474   2.912  24.017  0.00  0.00    +0.216 A 
ATOM     29  N   UNL     1       4.739   3.710  22.954  0.00  0.00    -0.265 N 
ATOM     30  H   UNL     1       4.248   4.536  22.631  0.00  0.00    +0.190 HD
ATOM     31  N   UNL     1       5.813   3.283  22.282  0.00  0.00    -0.152 NA
ENDBRANCH   6  26
TORSDOF 4
ENDMDL
MODEL 7
REMARK VINA RESULT:      -7.6      4.597     10.510
REMARK  Name = 
REMARK  4 active torsions:
REMARK  status: ('A' for Active; 'I' for Inactive)
REMARK    1  A    between atoms: C_2  and  C_24
REMARK    2  A    between atoms: N_3  and  C_4
REMARK    3  A    between atoms: C_6  and  C_10
REMARK    4  A    between atoms: C_16  and  C_19
REMARK                            x       y       z     vdW  Elec       q    Type
REMARK                         _______ _______ _______ _____ _____    ______ ____
ROOT
ATOM      1  C   UNL     1       6.170  -5.480  23.839  0.00  0.00    +0.100 A 
ATOM      2  C   UNL     1       5.194  -6.003  24.759  0.00  0.00    +0.028 A 
ATOM      3  C   UNL     1       4.182  -6.518  23.958  0.00  0.00    +0.066 A 
ATOM      4  C   UNL     1       3.045  -7.157  24.465  0.00  0.00    +0.028 A 
ATOM      5  C   UNL     1       2.943  -7.272  25.858  0.00  0.00    +0.014 A 
ATOM      6  C   UNL     1       3.929  -6.761  26.713  0.00  0.00    +0.022 A 
ATOM      7  N   UNL     1       4.575  -6.257  22.676  0.00  0.00    -0.276 N 
ATOM      8  H   UNL     1       4.084  -6.498  21.823  0.00  0.00    +0.189 HD
ATOM      9  C   UNL     1       5.053  -6.116  26.161  0.00  0.00    +0.023 A 
ATOM     10  N   UNL     1       5.747  -5.617  22.570  0.00  0.00    -0.173 NA
ENDROOT
BRANCH   1  15
ATOM     11  C   UNL     1       9.036  -3.005  23.973  0.00  0.00    +0.034 A 
ATOM     12  C   UNL     1       9.957  -3.703  24.759  0.00  0.00    +0.023 A 
ATOM     13  C   UNL     1       9.666  -5.001  25.196  0.00  0.00    +0.002 A 
ATOM     14  C   UNL     1       8.445  -5.600  24.871  0.00  0.00    +0.010 A 
ATOM     15  C   UNL     1       7.493  -4.905  24.119  0.00  0.00    +0.004 A 
ATOM     16  C   UNL     1       7.804  -3.607  23.694  0.00  0.00    +0.033 A 
BRANCH  11  19
ATOM     17  O   UNL     1       8.731  -0.470  25.351  0.00  0.00    -0.266 OA
ATOM     18  C   UNL     1       9.229  -0.536  24.232  0.00  0.00    +0.284 C 
ATOM     19  N   UNL     1       9.369  -1.711  23.504  0.00  0.00    -0.279 N 
ATOM     20  H   UNL     1       9.653  -1.609  22.537  0.00  0.00    +0.155 HD
BRANCH  18  21
ATOM     21  C   UNL     1       9.679   0.669  23.570  0.00  0.00    +0.189 A 
ATOM     22  O   UNL     1      10.103   1.762  24.275  0.00  0.00    -0.458 OA
ATOM     23  C   UNL     1      10.458   2.703  23.357  0.00  0.00    +0.196 A 
ATOM     24  C   UNL     1      10.269   2.236  22.077  0.00  0.00    +0.042 A 
ATOM     25  C   UNL     1       9.760   0.929  22.213  0.00  0.00    +0.054 A 
ENDBRANCH  18  21
ENDBRANCH  11  19
ENDBRANCH   1  15
BRANCH   6  26
ATOM     26  C   UNL     1       3.795  -6.905  28.162  0.00  0.00    +0.181 A 
ATOM     27  N   UNL     1       2.575  -6.839  28.809  0.00  0.00    -0.215 NA
ATOM     28  C   UNL     1       2.882  -7.029  30.070  0.00  0.00    +0.216 A 
ATOM     29  N   UNL     1       4.221  -7.204  30.185  0.00  0.00    -0.265 N 
ATOM     30  H   UNL     1       4.780  -7.378  31.013  0.00  0.00    +0.190 HD
ATOM     31  N   UNL     1       4.826  -7.120  28.996  0.00  0.00    -0.152 NA
ENDBRANCH   6  26
TORSDOF 4
ENDMDL
MODEL 8
REMARK VINA RESULT:      -7.5      2.060      2.571
REMARK  Name = 
REMARK  4 active torsions:
REMARK  status: ('A' for Active; 'I' for Inactive)
REMARK    1  A    between atoms: C_2  and  C_24
REMARK    2  A    between atoms: N_3  and  C_4
REMARK    3  A    between atoms: C_6  and  C_10
REMARK    4  A    between atoms: C_16  and  C_19
REMARK                            x       y       z     vdW  Elec       q    Type
REMARK                         _______ _______ _______ _____ _____    ______ ____
ROOT
ATOM      1  C   UNL     1       7.194   1.753  23.288  0.00  0.00    +0.100 A 
ATOM      2  C   UNL     1       7.933   2.964  23.527  0.00  0.00    +0.028 A 
ATOM      3  C   UNL     1       6.988   3.885  23.966  0.00  0.00    +0.066 A 
ATOM      4  C   UNL     1       7.303   5.194  24.344  0.00  0.00    +0.028 A 
ATOM      5  C   UNL     1       8.648   5.577  24.268  0.00  0.00    +0.014 A 
ATOM      6  C   UNL     1       9.641   4.694  23.822  0.00  0.00    +0.022 A 
ATOM      7  N   UNL     1       5.798   3.215  23.933  0.00  0.00    -0.276 N 
ATOM      8  H   UNL     1       4.887   3.571  24.195  0.00  0.00    +0.189 HD
ATOM      9  C   UNL     1       9.280   3.387  23.442  0.00  0.00    +0.023 A 
ATOM     10  N   UNL     1       5.881   1.947  23.510  0.00  0.00    -0.173 NA
ENDROOT
BRANCH   1  15
ATOM     11  C   UNL     1       7.373  -2.006  22.846  0.00  0.00    +0.034 A 
ATOM     12  C   UNL     1       8.525  -2.130  22.064  0.00  0.00    +0.023 A 
ATOM     13  C   UNL     1       9.271  -0.994  21.728  0.00  0.00    +0.002 A 
ATOM     14  C   UNL     1       8.861   0.274  22.154  0.00  0.00    +0.010 A 
ATOM     15  C   UNL     1       7.690   0.425  22.904  0.00  0.00    +0.004 A 
ATOM     16  C   UNL     1       6.958  -0.725  23.226  0.00  0.00    +0.033 A 
BRANCH  11  19
ATOM     17  O   UNL     1       7.843  -3.755  25.112  0.00  0.00    -0.266 OA
ATOM     18  C   UNL     1       6.915  -3.949  24.334  0.00  0.00    +0.284 C 
ATOM     19  N   UNL     1       6.658  -3.173  23.211  0.00  0.00    -0.279 N 
ATOM     20  H   UNL     1       5.959  -3.528  22.570  0.00  0.00    +0.155 HD
BRANCH  18  21
ATOM     21  C   UNL     1       6.026  -5.072  24.537  0.00  0.00    +0.189 A 
ATOM     22  O   UNL     1       5.800  -5.596  25.780  0.00  0.00    -0.458 OA
ATOM     23  C   UNL     1       4.920  -6.622  25.615  0.00  0.00    +0.196 A 
ATOM     24  C   UNL     1       4.578  -6.768  24.290  0.00  0.00    +0.042 A 
ATOM     25  C   UNL     1       5.296  -5.775  23.594  0.00  0.00    +0.054 A 
ENDBRANCH  18  21
ENDBRANCH  11  19
ENDBRANCH   1  15
BRANCH   6  26
ATOM     26  C   UNL     1      11.037   5.124  23.762  0.00  0.00    +0.181 A 
ATOM     27  N   UNL     1      12.005   4.420  23.070  0.00  0.00    -0.215 NA
ATOM     28  C   UNL     1      13.093   5.133  23.248  0.00  0.00    +0.216 A 
ATOM     29  N   UNL     1      12.801   6.216  24.008  0.00  0.00    -0.265 N 
ATOM     30  H   UNL     1      13.408   6.964  24.323  0.00  0.00    +0.190 HD
ATOM     31  N   UNL     1      11.511   6.231  24.358  0.00  0.00    -0.152 NA
ENDBRANCH   6  26
TORSDOF 4
ENDMDL
MODEL 9
REMARK VINA RESULT:      -7.4      3.767     10.491
REMARK  Name = 
REMARK  4 active torsions:
REMARK  status: ('A' for Active; 'I' for Inactive)
REMARK    1  A    between atoms: C_2  and  C_24
REMARK    2  A    between atoms: N_3  and  C_4
REMARK    3  A    between atoms: C_6  and  C_10
REMARK    4  A    between atoms: C_16  and  C_19
REMARK                            x       y       z     vdW  Elec       q    Type
REMARK                         _______ _______ _______ _____ _____    ______ ____
ROOT
ATOM      1  C   UNL     1       7.459  -3.786  25.300  0.00  0.00    +0.100 A 
ATOM      2  C   UNL     1       6.408  -4.770  25.335  0.00  0.00    +0.028 A 
ATOM      3  C   UNL     1       6.503  -5.356  26.592  0.00  0.00    +0.066 A 
ATOM      4  C   UNL     1       5.631  -6.351  27.048  0.00  0.00    +0.028 A 
ATOM      5  C   UNL     1       4.616  -6.762  26.175  0.00  0.00    +0.014 A 
ATOM      6  C   UNL     1       4.481  -6.213  24.892  0.00  0.00    +0.022 A 
ATOM      7  N   UNL     1       7.568  -4.745  27.190  0.00  0.00    -0.276 N 
ATOM      8  H   UNL     1       7.929  -4.915  28.121  0.00  0.00    +0.189 HD
ATOM      9  C   UNL     1       5.386  -5.220  24.469  0.00  0.00    +0.023 A 
ATOM     10  N   UNL     1       8.177  -3.820  26.437  0.00  0.00    -0.173 NA
ENDROOT
BRANCH   1  15
ATOM     11  C   UNL     1       8.167  -0.467  23.616  0.00  0.00    +0.034 A 
ATOM     12  C   UNL     1       8.509  -0.887  22.328  0.00  0.00    +0.023 A 
ATOM     13  C   UNL     1       8.455  -2.246  21.995  0.00  0.00    +0.002 A 
ATOM     14  C   UNL     1       8.079  -3.195  22.951  0.00  0.00    +0.010 A 
ATOM     15  C   UNL     1       7.771  -2.800  24.257  0.00  0.00    +0.004 A 
ATOM     16  C   UNL     1       7.834  -1.436  24.569  0.00  0.00    +0.033 A 
BRANCH  11  19
ATOM     17  O   UNL     1      10.425   1.150  24.451  0.00  0.00    -0.266 OA
ATOM     18  C   UNL     1       9.314   1.640  24.280  0.00  0.00    +0.284 C 
ATOM     19  N   UNL     1       8.185   0.917  23.918  0.00  0.00    -0.279 N 
ATOM     20  H   UNL     1       7.302   1.411  23.960  0.00  0.00    +0.155 HD
BRANCH  18  21
ATOM     21  C   UNL     1       9.109   3.056  24.498  0.00  0.00    +0.189 A 
ATOM     22  O   UNL     1       9.931   3.996  23.941  0.00  0.00    -0.458 OA
ATOM     23  C   UNL     1       9.456   5.210  24.336  0.00  0.00    +0.196 A 
ATOM     24  C   UNL     1       8.346   5.067  25.136  0.00  0.00    +0.042 A 
ATOM     25  C   UNL     1       8.126   3.679  25.248  0.00  0.00    +0.054 A 
ENDBRANCH  18  21
ENDBRANCH  11  19
ENDBRANCH   1  15
BRANCH   6  26
ATOM     26  C   UNL     1       3.405  -6.660  24.008  0.00  0.00    +0.181 A 
ATOM     27  N   UNL     1       2.824  -5.834  23.064  0.00  0.00    -0.215 NA
ATOM     28  C   UNL     1       1.934  -6.605  22.484  0.00  0.00    +0.216 A 
ATOM     29  N   UNL     1       1.974  -7.838  23.045  0.00  0.00    -0.265 N 
ATOM     30  H   UNL     1       1.426  -8.663  22.827  0.00  0.00    +0.190 HD
ATOM     31  N   UNL     1       2.887  -7.900  24.020  0.00  0.00    -0.152 NA
ENDBRANCH   6  26
TORSDOF 4
ENDMDL
