MODEL 1
REMARK VINA RESULT:      -3.7      0.000      0.000
REMARK  Name = 
REMARK  5 active torsions:
REMARK  status: ('A' for Active; 'I' for Inactive)
REMARK    1  A    between atoms: O_1  and  C_2
REMARK    2  A    between atoms: C_2  and  C_4
REMARK    3  A    between atoms: C_2  and  C_8
REMARK    4  A    between atoms: C_4  and  C_5
REMARK    5  A    between atoms: C_5  and  O_6
REMARK                            x       y       z     vdW  Elec       q    Type
REMARK                         _______ _______ _______ _____ _____    ______ ____
ROOT
ATOM      1  C   UNL     1      10.313  -0.897  22.454  0.00  0.00    +0.170 C 
ENDROOT
BRANCH   1   2
ATOM      2  C   UNL     1       9.505  -2.128  22.937  0.00  0.00    +0.071 C 
ATOM      3  O   UNL     1      10.161  -2.845  23.755  0.00  0.00    -0.547 OA
ATOM      4  O   UNL     1       8.356  -2.272  22.451  0.00  0.00    -0.547 OA
ENDBRANCH   1   2
BRANCH   1   5
ATOM      5  O   UNL     1      10.517   0.014  23.574  0.00  0.00    -0.385 OA
ATOM      6  H   UNL     1       9.988  -0.439  24.289  0.00  0.00    +0.210 HD
ENDBRANCH   1   5
BRANCH   1   7
ATOM      7  C   UNL     1       9.472  -0.182  21.414  0.00  0.00    +0.157 C 
BRANCH   7   8
ATOM      8  C   UNL     1       9.138   1.232  21.828  0.00  0.00    +0.308 C 
ATOM      9  O   UNL     1       8.135   1.536  22.460  0.00  0.00    -0.251 OA
BRANCH   8  10
ATOM     10  O   UNL     1      10.097   2.145  21.534  0.00  0.00    -0.481 OA
ATOM     11  H   UNL     1      10.852   2.065  22.177  0.00  0.00    +0.295 HD
ENDBRANCH   8  10
ENDBRANCH   7   8
ENDBRANCH   1   7
TORSDOF 5
ENDMDL
MODEL 2
REMARK VINA RESULT:      -3.7      3.486      5.084
REMARK  Name = 
REMARK  5 active torsions:
REMARK  status: ('A' for Active; 'I' for Inactive)
REMARK    1  A    between atoms: O_1  and  C_2
REMARK    2  A    between atoms: C_2  and  C_4
REMARK    3  A    between atoms: C_2  and  C_8
REMARK    4  A    between atoms: C_4  and  C_5
REMARK    5  A    between atoms: C_5  and  O_6
REMARK                            x       y       z     vdW  Elec       q    Type
REMARK                         _______ _______ _______ _____ _____    ______ ____
ROOT
ATOM      1  C   UNL     1       8.863  -5.289  24.858  0.00  0.00    +0.170 C 
ENDROOT
BRANCH   1   2
ATOM      2  C   UNL     1       8.107  -5.231  26.210  0.00  0.00    +0.071 C 
ATOM      3  O   UNL     1       7.056  -5.944  26.208  0.00  0.00    -0.547 OA
ATOM      4  O   UNL     1       8.598  -4.486  27.095  0.00  0.00    -0.547 OA
ENDBRANCH   1   2
BRANCH   1   5
ATOM      5  O   UNL     1      10.296  -5.178  25.103  0.00  0.00    -0.385 OA
ATOM      6  H   UNL     1      10.313  -4.502  25.839  0.00  0.00    +0.210 HD
ENDBRANCH   1   5
BRANCH   1   7
ATOM      7  C   UNL     1       8.431  -4.086  24.044  0.00  0.00    +0.157 C 
BRANCH   7   8
ATOM      8  C   UNL     1       9.390  -2.929  24.186  0.00  0.00    +0.308 C 
ATOM      9  O   UNL     1      10.288  -2.688  23.390  0.00  0.00    -0.251 OA
BRANCH   8  10
ATOM     10  O   UNL     1       9.120  -2.098  25.224  0.00  0.00    -0.481 OA
ATOM     11  H   UNL     1       9.892  -2.073  25.851  0.00  0.00    +0.295 HD
ENDBRANCH   8  10
ENDBRANCH   7   8
ENDBRANCH   1   7
TORSDOF 5
ENDMDL
MODEL 3
REMARK VINA RESULT:      -3.6      3.655      6.183
REMARK  Name = 
REMARK  5 active torsions:
REMARK  status: ('A' for Active; 'I' for Inactive)
REMARK    1  A    between atoms: O_1  and  C_2
REMARK    2  A    between atoms: C_2  and  C_4
REMARK    3  A    between atoms: C_2  and  C_8
REMARK    4  A    between atoms: C_4  and  C_5
REMARK    5  A    between atoms: C_5  and  O_6
REMARK                            x       y       z     vdW  Elec       q    Type
REMARK                         _______ _______ _______ _____ _____    ______ ____
ROOT
ATOM      1  C   UNL     1       9.548  -4.270  25.261  0.00  0.00    +0.170 C 
ENDROOT
BRANCH   1   2
ATOM      2  C   UNL     1       9.266  -3.346  24.050  0.00  0.00    +0.071 C 
ATOM      3  O   UNL     1       8.198  -3.661  23.439  0.00  0.00    -0.547 OA
ATOM      4  O   UNL     1      10.117  -2.452  23.817  0.00  0.00    -0.547 OA
ENDBRANCH   1   2
BRANCH   1   5
ATOM      5  O   UNL     1       9.466  -5.662  24.833  0.00  0.00    -0.385 OA
ATOM      6  H   UNL     1      10.104  -6.096  25.467  0.00  0.00    +0.210 HD
ENDBRANCH   1   5
BRANCH   1   7
ATOM      7  C   UNL     1       8.453  -4.029  26.282  0.00  0.00    +0.157 C 
BRANCH   7   8
ATOM      8  C   UNL     1       7.598  -5.254  26.499  0.00  0.00    +0.308 C 
ATOM      9  O   UNL     1       6.691  -5.591  25.749  0.00  0.00    -0.251 OA
BRANCH   8  10
ATOM     10  O   UNL     1       7.978  -6.028  27.546  0.00  0.00    -0.481 OA
ATOM     11  H   UNL     1       8.856  -6.454  27.353  0.00  0.00    +0.295 HD
ENDBRANCH   8  10
ENDBRANCH   7   8
ENDBRANCH   1   7
TORSDOF 5
ENDMDL
MODEL 4
REMARK VINA RESULT:      -3.6      1.766      2.294
REMARK  Name = 
REMARK  5 active torsions:
REMARK  status: ('A' for Active; 'I' for Inactive)
REMARK    1  A    between atoms: O_1  and  C_2
REMARK    2  A    between atoms: C_2  and  C_4
REMARK    3  A    between atoms: C_2  and  C_8
REMARK    4  A    between atoms: C_4  and  C_5
REMARK    5  A    between atoms: C_5  and  O_6
REMARK                            x       y       z     vdW  Elec       q    Type
REMARK                         _______ _______ _______ _____ _____    ______ ____
ROOT
ATOM      1  C   UNL     1       9.529  -0.070  23.489  0.00  0.00    +0.170 C 
ENDROOT
BRANCH   1   2
ATOM      2  C   UNL     1       9.923  -0.917  22.252  0.00  0.00    +0.071 C 
ATOM      3  O   UNL     1       9.417  -0.467  21.177  0.00  0.00    -0.547 OA
ATOM      4  O   UNL     1      10.642  -1.924  22.468  0.00  0.00    -0.547 OA
ENDBRANCH   1   2
BRANCH   1   5
ATOM      5  O   UNL     1       8.256   0.594  23.231  0.00  0.00    -0.385 OA
ATOM      6  H   UNL     1       7.666  -0.190  23.043  0.00  0.00    +0.210 HD
ENDBRANCH   1   5
BRANCH   1   7
ATOM      7  C   UNL     1      10.589   1.000  23.662  0.00  0.00    +0.157 C 
BRANCH   7   8
ATOM      8  C   UNL     1      10.166   2.321  23.066  0.00  0.00    +0.308 C 
ATOM      9  O   UNL     1       9.817   3.287  23.732  0.00  0.00    -0.251 OA
BRANCH   8  10
ATOM     10  O   UNL     1      10.301   2.400  21.719  0.00  0.00    -0.481 OA
ATOM     11  H   UNL     1      10.717   3.268  21.468  0.00  0.00    +0.295 HD
ENDBRANCH   8  10
ENDBRANCH   7   8
ENDBRANCH   1   7
TORSDOF 5
ENDMDL
MODEL 5
REMARK VINA RESULT:      -3.6      1.562      3.333
REMARK  Name = 
REMARK  5 active torsions:
REMARK  status: ('A' for Active; 'I' for Inactive)
REMARK    1  A    between atoms: O_1  and  C_2
REMARK    2  A    between atoms: C_2  and  C_4
REMARK    3  A    between atoms: C_2  and  C_8
REMARK    4  A    between atoms: C_4  and  C_5
REMARK    5  A    between atoms: C_5  and  O_6
REMARK                            x       y       z     vdW  Elec       q    Type
REMARK                         _______ _______ _______ _____ _____    ______ ____
ROOT
ATOM      1  C   UNL     1      10.116   0.998  22.332  0.00  0.00    +0.170 C 
ENDROOT
BRANCH   1   2
ATOM      2  C   UNL     1      10.264   1.367  23.830  0.00  0.00    +0.071 C 
ATOM      3  O   UNL     1      11.084   0.610  24.436  0.00  0.00    -0.547 OA
ATOM      4  O   UNL     1       9.553   2.315  24.247  0.00  0.00    -0.547 OA
ENDBRANCH   1   2
BRANCH   1   5
ATOM      5  O   UNL     1      10.006   2.221  21.545  0.00  0.00    -0.385 OA
ATOM      6  H   UNL     1       9.775   2.885  22.253  0.00  0.00    +0.210 HD
ENDBRANCH   1   5
BRANCH   1   7
ATOM      7  C   UNL     1       8.822   0.224  22.180  0.00  0.00    +0.157 C 
BRANCH   7   8
ATOM      8  C   UNL     1       9.063  -1.251  21.969  0.00  0.00    +0.308 C 
ATOM      9  O   UNL     1       8.189  -2.103  22.061  0.00  0.00    -0.251 OA
BRANCH   8  10
ATOM     10  O   UNL     1      10.318  -1.564  21.560  0.00  0.00    -0.481 OA
ATOM     11  H   UNL     1      10.421  -1.359  20.591  0.00  0.00    +0.295 HD
ENDBRANCH   8  10
ENDBRANCH   7   8
ENDBRANCH   1   7
TORSDOF 5
ENDMDL
MODEL 6
REMARK VINA RESULT:      -3.6      1.174      3.845
REMARK  Name = 
REMARK  5 active torsions:
REMARK  status: ('A' for Active; 'I' for Inactive)
REMARK    1  A    between atoms: O_1  and  C_2
REMARK    2  A    between atoms: C_2  and  C_4
REMARK    3  A    between atoms: C_2  and  C_8
REMARK    4  A    between atoms: C_4  and  C_5
REMARK    5  A    between atoms: C_5  and  O_6
REMARK                            x       y       z     vdW  Elec       q    Type
REMARK                         _______ _______ _______ _____ _____    ______ ____
ROOT
ATOM      1  C   UNL     1      10.374  -0.588  22.582  0.00  0.00    +0.170 C 
ENDROOT
BRANCH   1   2
ATOM      2  C   UNL     1       9.412   0.559  22.179  0.00  0.00    +0.071 C 
ATOM      3  O   UNL     1      10.033   1.615  21.844  0.00  0.00    -0.547 OA
ATOM      4  O   UNL     1       8.183   0.315  22.262  0.00  0.00    -0.547 OA
ENDBRANCH   1   2
BRANCH   1   5
ATOM      5  O   UNL     1      10.263  -1.671  21.613  0.00  0.00    -0.385 OA
ATOM      6  H   UNL     1      10.102  -1.160  20.770  0.00  0.00    +0.210 HD
ENDBRANCH   1   5
BRANCH   1   7
ATOM      7  C   UNL     1       9.915  -1.113  23.928  0.00  0.00    +0.157 C 
BRANCH   7   8
ATOM      8  C   UNL     1       9.392  -2.527  23.838  0.00  0.00    +0.308 C 
ATOM      9  O   UNL     1      10.035  -3.512  24.177  0.00  0.00    -0.251 OA
BRANCH   8  10
ATOM     10  O   UNL     1       8.098  -2.624  23.444  0.00  0.00    -0.481 OA
ATOM     11  H   UNL     1       7.936  -2.035  22.658  0.00  0.00    +0.295 HD
ENDBRANCH   8  10
ENDBRANCH   7   8
ENDBRANCH   1   7
TORSDOF 5
ENDMDL
MODEL 7
REMARK VINA RESULT:      -3.5      2.947      5.501
REMARK  Name = 
REMARK  5 active torsions:
REMARK  status: ('A' for Active; 'I' for Inactive)
REMARK    1  A    between atoms: O_1  and  C_2
REMARK    2  A    between atoms: C_2  and  C_4
REMARK    3  A    between atoms: C_2  and  C_8
REMARK    4  A    between atoms: C_4  and  C_5
REMARK    5  A    between atoms: C_5  and  O_6
REMARK                            x       y       z     vdW  Elec       q    Type
REMARK                         _______ _______ _______ _____ _____    ______ ____
ROOT
ATOM      1  C   UNL     1       8.151  -3.096  24.719  0.00  0.00    +0.170 C 
ENDROOT
BRANCH   1   2
ATOM      2  C   UNL     1       9.195  -2.487  23.748  0.00  0.00    +0.071 C 
ATOM      3  O   UNL     1      10.320  -3.073  23.819  0.00  0.00    -0.547 OA
ATOM      4  O   UNL     1       8.817  -1.506  23.062  0.00  0.00    -0.547 OA
ENDBRANCH   1   2
BRANCH   1   5
ATOM      5  O   UNL     1       8.573  -2.849  26.093  0.00  0.00    -0.385 OA
ATOM      6  H   UNL     1       8.153  -1.960  26.267  0.00  0.00    +0.210 HD
ENDBRANCH   1   5
BRANCH   1   7
ATOM      7  C   UNL     1       8.140  -4.595  24.493  0.00  0.00    +0.157 C 
BRANCH   7   8
ATOM      8  C   UNL     1       8.650  -5.354  25.694  0.00  0.00    +0.308 C 
ATOM      9  O   UNL     1       7.924  -5.823  26.561  0.00  0.00    -0.251 OA
BRANCH   8  10
ATOM     10  O   UNL     1       9.988  -5.576  25.694  0.00  0.00    -0.481 OA
ATOM     11  H   UNL     1      10.246  -6.106  26.495  0.00  0.00    +0.295 HD
ENDBRANCH   8  10
ENDBRANCH   7   8
ENDBRANCH   1   7
TORSDOF 5
ENDMDL
MODEL 8
REMARK VINA RESULT:      -3.5      5.006      7.324
REMARK  Name = 
REMARK  5 active torsions:
REMARK  status: ('A' for Active; 'I' for Inactive)
REMARK    1  A    between atoms: O_1  and  C_2
REMARK    2  A    between atoms: C_2  and  C_4
REMARK    3  A    between atoms: C_2  and  C_8
REMARK    4  A    between atoms: C_4  and  C_5
REMARK    5  A    between atoms: C_5  and  O_6
REMARK                            x       y       z     vdW  Elec       q    Type
REMARK                         _______ _______ _______ _____ _____    ______ ____
ROOT
ATOM      1  C   UNL     1       6.578  -5.558  22.679  0.00  0.00    +0.170 C 
ENDROOT
BRANCH   1   2
ATOM      2  C   UNL     1       6.669  -4.191  21.954  0.00  0.00    +0.071 C 
ATOM      3  O   UNL     1       5.746  -4.038  21.095  0.00  0.00    -0.547 OA
ATOM      4  O   UNL     1       7.630  -3.449  22.276  0.00  0.00    -0.547 OA
ENDBRANCH   1   2
BRANCH   1   5
ATOM      5  O   UNL     1       6.099  -6.568  21.742  0.00  0.00    -0.385 OA
ATOM      6  H   UNL     1       6.927  -7.108  21.602  0.00  0.00    +0.210 HD
ENDBRANCH   1   5
BRANCH   1   7
ATOM      7  C   UNL     1       5.549  -5.418  23.784  0.00  0.00    +0.157 C 
BRANCH   7   8
ATOM      8  C   UNL     1       4.286  -6.189  23.486  0.00  0.00    +0.308 C 
ATOM      9  O   UNL     1       3.365  -5.749  22.811  0.00  0.00    -0.251 OA
BRANCH   8  10
ATOM     10  O   UNL     1       4.285  -7.467  23.941  0.00  0.00    -0.481 OA
ATOM     11  H   UNL     1       3.630  -8.011  23.426  0.00  0.00    +0.295 HD
ENDBRANCH   8  10
ENDBRANCH   7   8
ENDBRANCH   1   7
TORSDOF 5
ENDMDL
MODEL 9
REMARK VINA RESULT:      -3.5      1.697      3.885
REMARK  Name = 
REMARK  5 active torsions:
REMARK  status: ('A' for Active; 'I' for Inactive)
REMARK    1  A    between atoms: O_1  and  C_2
REMARK    2  A    between atoms: C_2  and  C_4
REMARK    3  A    between atoms: C_2  and  C_8
REMARK    4  A    between atoms: C_4  and  C_5
REMARK    5  A    between atoms: C_5  and  O_6
REMARK                            x       y       z     vdW  Elec       q    Type
REMARK                         _______ _______ _______ _____ _____    ______ ____
ROOT
ATOM      1  C   UNL     1       9.959   1.640  22.208  0.00  0.00    +0.170 C 
ENDROOT
BRANCH   1   2
ATOM      2  C   UNL     1       9.181   2.529  23.210  0.00  0.00    +0.071 C 
ATOM      3  O   UNL     1       8.311   3.256  22.637  0.00  0.00    -0.547 OA
ATOM      4  O   UNL     1       9.520   2.444  24.416  0.00  0.00    -0.547 OA
ENDBRANCH   1   2
BRANCH   1   5
ATOM      5  O   UNL     1       9.114   1.367  21.051  0.00  0.00    -0.385 OA
ATOM      6  H   UNL     1       8.921   2.293  20.731  0.00  0.00    +0.210 HD
ENDBRANCH   1   5
BRANCH   1   7
ATOM      7  C   UNL     1      10.249   0.322  22.899  0.00  0.00    +0.157 C 
BRANCH   7   8
ATOM      8  C   UNL     1       9.455  -0.817  22.307  0.00  0.00    +0.308 C 
ATOM      9  O   UNL     1       8.277  -1.031  22.564  0.00  0.00    -0.251 OA
BRANCH   8  10
ATOM     10  O   UNL     1      10.120  -1.541  21.372  0.00  0.00    -0.481 OA
ATOM     11  H   UNL     1      10.579  -0.932  20.733  0.00  0.00    +0.295 HD
ENDBRANCH   8  10
ENDBRANCH   7   8
ENDBRANCH   1   7
TORSDOF 5
ENDMDL
