MODEL 1
REMARK VINA RESULT:      -6.7      0.000      0.000
REMARK  Name = 
REMARK  2 active torsions:
REMARK  status: ('A' for Active; 'I' for Inactive)
REMARK    1  A    between atoms: O_1  and  C_2
REMARK    2  A    between atoms: C_4  and  C_5
REMARK                            x       y       z     vdW  Elec       q    Type
REMARK                         _______ _______ _______ _____ _____    ______ ____
ROOT
ATOM      1  C   UNL     1       8.756  -4.913  26.026  0.00  0.00    +0.320 C 
ATOM      2  C   UNL     1       7.367  -4.880  26.734  0.00  0.00    +0.269 C 
ATOM      3  O   UNL     1       7.209  -4.790  27.951  0.00  0.00    -0.270 OA
ATOM      4  N   UNL     1       6.261  -5.061  25.929  0.00  0.00    -0.281 N 
ATOM      5  H   UNL     1       5.424  -5.290  26.454  0.00  0.00    +0.155 HD
ATOM      6  C   UNL     1       6.253  -5.156  24.529  0.00  0.00    +0.043 A 
ATOM      7  C   UNL     1       5.244  -5.941  23.956  0.00  0.00    +0.025 A 
ATOM      8  C   UNL     1       5.205  -6.151  22.575  0.00  0.00    +0.022 A 
ATOM      9  C   UNL     1       6.162  -5.559  21.756  0.00  0.00    +0.042 A 
ATOM     10  C   UNL     1       7.148  -4.745  22.304  0.00  0.00    +0.032 A 
ATOM     11 CL   UNL     1       6.108  -5.806  20.056  0.00  0.00    -0.084 Cl
ATOM     12  C   UNL     1       7.183  -4.515  23.689  0.00  0.00    +0.023 A 
ATOM     13  C   UNL     1       8.163  -3.511  24.209  0.00  0.00    +0.078 C 
ATOM     14  N   UNL     1       8.890  -3.680  25.262  0.00  0.00    -0.243 NA
ENDROOT
BRANCH  13  15
ATOM     15  C   UNL     1       8.326  -2.213  23.471  0.00  0.00    +0.001 A 
ATOM     16  C   UNL     1       7.335  -1.222  23.500  0.00  0.00    +0.010 A 
ATOM     17  C   UNL     1       7.508  -0.035  22.784  0.00  0.00    +0.001 A 
ATOM     18  C   UNL     1       8.678   0.178  22.055  0.00  0.00    +0.000 A 
ATOM     19  C   UNL     1       9.679  -0.792  22.045  0.00  0.00    +0.001 A 
ATOM     20  C   UNL     1       9.507  -1.984  22.753  0.00  0.00    +0.010 A 
ENDBRANCH  13  15
BRANCH   1  21
ATOM     21  O   UNL     1       9.840  -5.067  26.916  0.00  0.00    -0.364 OA
ATOM     22  H   UNL     1      10.427  -5.668  26.427  0.00  0.00    +0.212 HD
ENDBRANCH   1  21
TORSDOF 2
ENDMDL
MODEL 2
REMARK VINA RESULT:      -6.4      6.869      9.548
REMARK  Name = 
REMARK  2 active torsions:
REMARK  status: ('A' for Active; 'I' for Inactive)
REMARK    1  A    between atoms: O_1  and  C_2
REMARK    2  A    between atoms: C_4  and  C_5
REMARK                            x       y       z     vdW  Elec       q    Type
REMARK                         _______ _______ _______ _____ _____    ______ ____
ROOT
ATOM      1  C   UNL     1       7.149   4.971  22.934  0.00  0.00    +0.320 C 
ATOM      2  C   UNL     1       7.023   5.471  24.405  0.00  0.00    +0.269 C 
ATOM      3  O   UNL     1       5.956   5.690  24.976  0.00  0.00    -0.270 OA
ATOM      4  N   UNL     1       8.202   5.773  25.056  0.00  0.00    -0.281 N 
ATOM      5  H   UNL     1       8.060   6.329  25.892  0.00  0.00    +0.155 HD
ATOM      6  C   UNL     1       9.502   5.565  24.569  0.00  0.00    +0.043 A 
ATOM      7  C   UNL     1      10.490   6.456  25.010  0.00  0.00    +0.025 A 
ATOM      8  C   UNL     1      11.795   6.369  24.518  0.00  0.00    +0.022 A 
ATOM      9  C   UNL     1      12.126   5.377  23.600  0.00  0.00    +0.042 A 
ATOM     10  C   UNL     1      11.167   4.460  23.181  0.00  0.00    +0.032 A 
ATOM     11 CL   UNL     1      13.733   5.261  23.003  0.00  0.00    -0.084 Cl
ATOM     12  C   UNL     1       9.857   4.531  23.684  0.00  0.00    +0.023 A 
ATOM     13  C   UNL     1       8.909   3.431  23.325  0.00  0.00    +0.078 C 
ATOM     14  N   UNL     1       7.680   3.615  22.974  0.00  0.00    -0.243 NA
ENDROOT
BRANCH  13  15
ATOM     15  C   UNL     1       9.398   2.012  23.369  0.00  0.00    +0.001 A 
ATOM     16  C   UNL     1       9.735   1.389  24.579  0.00  0.00    +0.010 A 
ATOM     17  C   UNL     1      10.209   0.075  24.584  0.00  0.00    +0.001 A 
ATOM     18  C   UNL     1      10.327  -0.630  23.387  0.00  0.00    +0.000 A 
ATOM     19  C   UNL     1       9.966  -0.025  22.184  0.00  0.00    +0.001 A 
ATOM     20  C   UNL     1       9.500   1.291  22.173  0.00  0.00    +0.010 A 
ENDBRANCH  13  15
BRANCH   1  21
ATOM     21  O   UNL     1       5.933   5.008  22.219  0.00  0.00    -0.364 OA
ATOM     22  H   UNL     1       6.067   5.761  21.619  0.00  0.00    +0.212 HD
ENDBRANCH   1  21
TORSDOF 2
ENDMDL
MODEL 3
REMARK VINA RESULT:      -6.3      5.124      6.835
REMARK  Name = 
REMARK  2 active torsions:
REMARK  status: ('A' for Active; 'I' for Inactive)
REMARK    1  A    between atoms: O_1  and  C_2
REMARK    2  A    between atoms: C_4  and  C_5
REMARK                            x       y       z     vdW  Elec       q    Type
REMARK                         _______ _______ _______ _____ _____    ______ ____
ROOT
ATOM      1  C   UNL     1       9.266  -0.132  22.069  0.00  0.00    +0.320 C 
ATOM      2  C   UNL     1      10.171  -1.047  22.949  0.00  0.00    +0.269 C 
ATOM      3  O   UNL     1      10.966  -1.873  22.503  0.00  0.00    -0.270 OA
ATOM      4  N   UNL     1       9.978  -0.975  24.314  0.00  0.00    -0.281 N 
ATOM      5  H   UNL     1      10.390  -1.756  24.812  0.00  0.00    +0.155 HD
ATOM      6  C   UNL     1       9.136  -0.082  24.992  0.00  0.00    +0.043 A 
ATOM      7  C   UNL     1       8.582  -0.531  26.198  0.00  0.00    +0.025 A 
ATOM      8  C   UNL     1       7.673   0.265  26.902  0.00  0.00    +0.022 A 
ATOM      9  C   UNL     1       7.331   1.523  26.416  0.00  0.00    +0.042 A 
ATOM     10  C   UNL     1       7.902   2.001  25.240  0.00  0.00    +0.032 A 
ATOM     11 CL   UNL     1       6.224   2.508  27.287  0.00  0.00    -0.084 Cl
ATOM     12  C   UNL     1       8.829   1.214  24.537  0.00  0.00    +0.023 A 
ATOM     13  C   UNL     1       9.529   1.833  23.369  0.00  0.00    +0.078 C 
ATOM     14  N   UNL     1       9.727   1.239  22.240  0.00  0.00    -0.243 NA
ENDROOT
BRANCH  13  15
ATOM     15  C   UNL     1      10.044   3.238  23.497  0.00  0.00    +0.001 A 
ATOM     16  C   UNL     1       9.184   4.315  23.756  0.00  0.00    +0.010 A 
ATOM     17  C   UNL     1       9.693   5.613  23.846  0.00  0.00    +0.001 A 
ATOM     18  C   UNL     1      11.061   5.839  23.703  0.00  0.00    +0.000 A 
ATOM     19  C   UNL     1      11.924   4.769  23.475  0.00  0.00    +0.001 A 
ATOM     20  C   UNL     1      11.420   3.471  23.375  0.00  0.00    +0.010 A 
ENDBRANCH  13  15
BRANCH   1  21
ATOM     21  O   UNL     1       9.259  -0.488  20.704  0.00  0.00    -0.364 OA
ATOM     22  H   UNL     1       9.008   0.346  20.272  0.00  0.00    +0.212 HD
ENDBRANCH   1  21
TORSDOF 2
ENDMDL
MODEL 4
REMARK VINA RESULT:      -6.0      3.888      5.978
REMARK  Name = 
REMARK  2 active torsions:
REMARK  status: ('A' for Active; 'I' for Inactive)
REMARK    1  A    between atoms: O_1  and  C_2
REMARK    2  A    between atoms: C_4  and  C_5
REMARK                            x       y       z     vdW  Elec       q    Type
REMARK                         _______ _______ _______ _____ _____    ______ ____
ROOT
ATOM      1  C   UNL     1       9.195  -2.904  24.085  0.00  0.00    +0.320 C 
ATOM      2  C   UNL     1       8.348  -2.886  22.777  0.00  0.00    +0.269 C 
ATOM      3  O   UNL     1       7.787  -3.871  22.298  0.00  0.00    -0.270 OA
ATOM      4  N   UNL     1       8.319  -1.697  22.077  0.00  0.00    -0.281 N 
ATOM      5  H   UNL     1       7.984  -1.806  21.126  0.00  0.00    +0.155 HD
ATOM      6  C   UNL     1       8.879  -0.476  22.483  0.00  0.00    +0.043 A 
ATOM      7  C   UNL     1       9.319   0.384  21.467  0.00  0.00    +0.025 A 
ATOM      8  C   UNL     1       9.957   1.588  21.783  0.00  0.00    +0.022 A 
ATOM      9  C   UNL     1      10.137   1.949  23.114  0.00  0.00    +0.042 A 
ATOM     10  C   UNL     1       9.672   1.125  24.135  0.00  0.00    +0.032 A 
ATOM     11 CL   UNL     1      10.910   3.434  23.504  0.00  0.00    -0.084 Cl
ATOM     12  C   UNL     1       9.015  -0.077  23.825  0.00  0.00    +0.023 A 
ATOM     13  C   UNL     1       8.397  -0.846  24.949  0.00  0.00    +0.078 C 
ATOM     14  N   UNL     1       8.477  -2.128  25.086  0.00  0.00    -0.243 NA
ENDROOT
BRANCH  13  15
ATOM     15  C   UNL     1       7.626  -0.098  25.999  0.00  0.00    +0.001 A 
ATOM     16  C   UNL     1       8.015  -0.113  27.346  0.00  0.00    +0.010 A 
ATOM     17  C   UNL     1       7.262   0.575  28.301  0.00  0.00    +0.001 A 
ATOM     18  C   UNL     1       6.135   1.298  27.915  0.00  0.00    +0.000 A 
ATOM     19  C   UNL     1       5.760   1.340  26.573  0.00  0.00    +0.001 A 
ATOM     20  C   UNL     1       6.504   0.647  25.616  0.00  0.00    +0.010 A 
ENDBRANCH  13  15
BRANCH   1  21
ATOM     21  O   UNL     1       9.468  -4.203  24.564  0.00  0.00    -0.364 OA
ATOM     22  H   UNL     1      10.389  -4.339  24.283  0.00  0.00    +0.212 HD
ENDBRANCH   1  21
TORSDOF 2
ENDMDL
MODEL 5
REMARK VINA RESULT:      -6.0      3.395      4.323
REMARK  Name = 
REMARK  2 active torsions:
REMARK  status: ('A' for Active; 'I' for Inactive)
REMARK    1  A    between atoms: O_1  and  C_2
REMARK    2  A    between atoms: C_4  and  C_5
REMARK                            x       y       z     vdW  Elec       q    Type
REMARK                         _______ _______ _______ _____ _____    ______ ____
ROOT
ATOM      1  C   UNL     1       6.366  -3.864  22.076  0.00  0.00    +0.320 C 
ATOM      2  C   UNL     1       7.091  -5.056  22.771  0.00  0.00    +0.269 C 
ATOM      3  O   UNL     1       7.455  -6.080  22.195  0.00  0.00    -0.270 OA
ATOM      4  N   UNL     1       7.237  -4.973  24.141  0.00  0.00    -0.281 N 
ATOM      5  H   UNL     1       7.469  -5.863  24.568  0.00  0.00    +0.155 HD
ATOM      6  C   UNL     1       6.904  -3.878  24.952  0.00  0.00    +0.043 A 
ATOM      7  C   UNL     1       6.512  -4.163  26.267  0.00  0.00    +0.025 A 
ATOM      8  C   UNL     1       6.092  -3.139  27.121  0.00  0.00    +0.022 A 
ATOM      9  C   UNL     1       6.082  -1.822  26.673  0.00  0.00    +0.042 A 
ATOM     10  C   UNL     1       6.505  -1.516  25.382  0.00  0.00    +0.032 A 
ATOM     11 CL   UNL     1       5.577  -0.560  27.725  0.00  0.00    -0.084 Cl
ATOM     12  C   UNL     1       6.945  -2.538  24.525  0.00  0.00    +0.023 A 
ATOM     13  C   UNL     1       7.535  -2.141  23.209  0.00  0.00    +0.078 C 
ATOM     14  N   UNL     1       7.275  -2.727  22.088  0.00  0.00    -0.243 NA
ENDROOT
BRANCH  13  15
ATOM     15  C   UNL     1       8.496  -0.988  23.166  0.00  0.00    +0.001 A 
ATOM     16  C   UNL     1       9.697  -1.005  23.891  0.00  0.00    +0.010 A 
ATOM     17  C   UNL     1      10.558   0.094  23.849  0.00  0.00    +0.001 A 
ATOM     18  C   UNL     1      10.238   1.203  23.066  0.00  0.00    +0.000 A 
ATOM     19  C   UNL     1       9.061   1.214  22.320  0.00  0.00    +0.001 A 
ATOM     20  C   UNL     1       8.192   0.121  22.367  0.00  0.00    +0.010 A 
ENDBRANCH  13  15
BRANCH   1  21
ATOM     21  O   UNL     1       5.943  -4.150  20.760  0.00  0.00    -0.364 OA
ATOM     22  H   UNL     1       6.236  -3.362  20.272  0.00  0.00    +0.212 HD
ENDBRANCH   1  21
TORSDOF 2
ENDMDL
MODEL 6
REMARK VINA RESULT:      -5.8      3.086      5.558
REMARK  Name = 
REMARK  2 active torsions:
REMARK  status: ('A' for Active; 'I' for Inactive)
REMARK    1  A    between atoms: O_1  and  C_2
REMARK    2  A    between atoms: C_4  and  C_5
REMARK                            x       y       z     vdW  Elec       q    Type
REMARK                         _______ _______ _______ _____ _____    ______ ____
ROOT
ATOM      1  C   UNL     1       9.338  -4.258  25.124  0.00  0.00    +0.320 C 
ATOM      2  C   UNL     1       9.463  -3.025  24.178  0.00  0.00    +0.269 C 
ATOM      3  O   UNL     1      10.328  -2.899  23.312  0.00  0.00    -0.270 OA
ATOM      4  N   UNL     1       8.594  -1.979  24.411  0.00  0.00    -0.281 N 
ATOM      5  H   UNL     1       8.881  -1.119  23.955  0.00  0.00    +0.155 HD
ATOM      6  C   UNL     1       7.538  -1.960  25.334  0.00  0.00    +0.043 A 
ATOM      7  C   UNL     1       7.205  -0.715  25.885  0.00  0.00    +0.025 A 
ATOM      8  C   UNL     1       6.215  -0.616  26.867  0.00  0.00    +0.022 A 
ATOM      9  C   UNL     1       5.538  -1.756  27.288  0.00  0.00    +0.042 A 
ATOM     10  C   UNL     1       5.829  -2.995  26.724  0.00  0.00    +0.032 A 
ATOM     11 CL   UNL     1       4.313  -1.634  28.487  0.00  0.00    -0.084 Cl
ATOM     12  C   UNL     1       6.810  -3.099  25.724  0.00  0.00    +0.023 A 
ATOM     13  C   UNL     1       6.975  -4.420  25.041  0.00  0.00    +0.078 C 
ATOM     14  N   UNL     1       8.114  -4.963  24.770  0.00  0.00    -0.243 NA
ENDROOT
BRANCH  13  15
ATOM     15  C   UNL     1       5.746  -5.181  24.634  0.00  0.00    +0.001 A 
ATOM     16  C   UNL     1       5.316  -6.315  25.338  0.00  0.00    +0.010 A 
ATOM     17  C   UNL     1       4.181  -7.014  24.919  0.00  0.00    +0.001 A 
ATOM     18  C   UNL     1       3.458  -6.573  23.812  0.00  0.00    +0.000 A 
ATOM     19  C   UNL     1       3.863  -5.429  23.125  0.00  0.00    +0.001 A 
ATOM     20  C   UNL     1       5.002  -4.732  23.535  0.00  0.00    +0.010 A 
ENDBRANCH  13  15
BRANCH   1  21
ATOM     21  O   UNL     1      10.448  -5.128  25.069  0.00  0.00    -0.364 OA
ATOM     22  H   UNL     1      10.198  -5.739  24.355  0.00  0.00    +0.212 HD
ENDBRANCH   1  21
TORSDOF 2
ENDMDL
MODEL 7
REMARK VINA RESULT:      -5.6      3.826      6.007
REMARK  Name = 
REMARK  2 active torsions:
REMARK  status: ('A' for Active; 'I' for Inactive)
REMARK    1  A    between atoms: O_1  and  C_2
REMARK    2  A    between atoms: C_4  and  C_5
REMARK                            x       y       z     vdW  Elec       q    Type
REMARK                         _______ _______ _______ _____ _____    ______ ____
ROOT
ATOM      1  C   UNL     1      10.300   0.612  24.290  0.00  0.00    +0.320 C 
ATOM      2  C   UNL     1       9.761   1.461  23.100  0.00  0.00    +0.269 C 
ATOM      3  O   UNL     1      10.472   2.026  22.270  0.00  0.00    -0.270 OA
ATOM      4  N   UNL     1       8.395   1.655  23.050  0.00  0.00    -0.281 N 
ATOM      5  H   UNL     1       8.126   2.409  22.428  0.00  0.00    +0.155 HD
ATOM      6  C   UNL     1       7.438   1.071  23.893  0.00  0.00    +0.043 A 
ATOM      7  C   UNL     1       6.275   1.814  24.136  0.00  0.00    +0.025 A 
ATOM      8  C   UNL     1       5.302   1.342  25.022  0.00  0.00    +0.022 A 
ATOM      9  C   UNL     1       5.476   0.115  25.654  0.00  0.00    +0.042 A 
ATOM     10  C   UNL     1       6.607  -0.654  25.396  0.00  0.00    +0.032 A 
ATOM     11 CL   UNL     1       4.276  -0.472  26.735  0.00  0.00    -0.084 Cl
ATOM     12  C   UNL     1       7.580  -0.194  24.493  0.00  0.00    +0.023 A 
ATOM     13  C   UNL     1       8.695  -1.124  24.132  0.00  0.00    +0.078 C 
ATOM     14  N   UNL     1       9.935  -0.776  24.044  0.00  0.00    -0.243 NA
ENDROOT
BRANCH  13  15
ATOM     15  C   UNL     1       8.371  -2.563  23.847  0.00  0.00    +0.001 A 
ATOM     16  C   UNL     1       7.623  -2.939  22.721  0.00  0.00    +0.010 A 
ATOM     17  C   UNL     1       7.320  -4.284  22.497  0.00  0.00    +0.001 A 
ATOM     18  C   UNL     1       7.779  -5.260  23.380  0.00  0.00    +0.000 A 
ATOM     19  C   UNL     1       8.547  -4.896  24.485  0.00  0.00    +0.001 A 
ATOM     20  C   UNL     1       8.846  -3.551  24.717  0.00  0.00    +0.010 A 
ENDBRANCH  13  15
BRANCH   1  21
ATOM     21  O   UNL     1      11.693   0.733  24.485  0.00  0.00    -0.364 OA
ATOM     22  H   UNL     1      11.968  -0.192  24.602  0.00  0.00    +0.212 HD
ENDBRANCH   1  21
TORSDOF 2
ENDMDL
MODEL 8
REMARK VINA RESULT:      -5.6      3.936      5.726
REMARK  Name = 
REMARK  2 active torsions:
REMARK  status: ('A' for Active; 'I' for Inactive)
REMARK    1  A    between atoms: O_1  and  C_2
REMARK    2  A    between atoms: C_4  and  C_5
REMARK                            x       y       z     vdW  Elec       q    Type
REMARK                         _______ _______ _______ _____ _____    ______ ____
ROOT
ATOM      1  C   UNL     1       9.768   1.349  22.394  0.00  0.00    +0.320 C 
ATOM      2  C   UNL     1      10.473   0.892  23.707  0.00  0.00    +0.269 C 
ATOM      3  O   UNL     1      11.493   1.406  24.164  0.00  0.00    -0.270 OA
ATOM      4  N   UNL     1       9.953  -0.227  24.328  0.00  0.00    -0.281 N 
ATOM      5  H   UNL     1      10.586  -0.629  25.010  0.00  0.00    +0.155 HD
ATOM      6  C   UNL     1       8.790  -0.920  23.961  0.00  0.00    +0.043 A 
ATOM      7  C   UNL     1       8.763  -2.294  24.236  0.00  0.00    +0.025 A 
ATOM      8  C   UNL     1       7.676  -3.077  23.837  0.00  0.00    +0.022 A 
ATOM      9  C   UNL     1       6.600  -2.487  23.182  0.00  0.00    +0.042 A 
ATOM     10  C   UNL     1       6.592  -1.117  22.935  0.00  0.00    +0.032 A 
ATOM     11 CL   UNL     1       5.256  -3.446  22.702  0.00  0.00    -0.084 Cl
ATOM     12  C   UNL     1       7.674  -0.322  23.349  0.00  0.00    +0.023 A 
ATOM     13  C   UNL     1       7.548   1.162  23.201  0.00  0.00    +0.078 C 
ATOM     14  N   UNL     1       8.486   1.932  22.762  0.00  0.00    -0.243 NA
ENDROOT
BRANCH  13  15
ATOM     15  C   UNL     1       6.253   1.818  23.586  0.00  0.00    +0.001 A 
ATOM     16  C   UNL     1       5.682   1.630  24.853  0.00  0.00    +0.010 A 
ATOM     17  C   UNL     1       4.464   2.236  25.172  0.00  0.00    +0.001 A 
ATOM     18  C   UNL     1       3.824   3.050  24.238  0.00  0.00    +0.000 A 
ATOM     19  C   UNL     1       4.401   3.265  22.988  0.00  0.00    +0.001 A 
ATOM     20  C   UNL     1       5.614   2.654  22.662  0.00  0.00    +0.010 A 
ENDBRANCH  13  15
BRANCH   1  21
ATOM     21  O   UNL     1      10.530   2.261  21.633  0.00  0.00    -0.364 OA
ATOM     22  H   UNL     1      10.853   2.879  22.310  0.00  0.00    +0.212 HD
ENDBRANCH   1  21
TORSDOF 2
ENDMDL
MODEL 9
REMARK VINA RESULT:      -5.5      2.523      4.875
REMARK  Name = 
REMARK  2 active torsions:
REMARK  status: ('A' for Active; 'I' for Inactive)
REMARK    1  A    between atoms: O_1  and  C_2
REMARK    2  A    between atoms: C_4  and  C_5
REMARK                            x       y       z     vdW  Elec       q    Type
REMARK                         _______ _______ _______ _____ _____    ______ ____
ROOT
ATOM      1  C   UNL     1       7.943  -2.163  24.552  0.00  0.00    +0.320 C 
ATOM      2  C   UNL     1       8.915  -3.278  24.058  0.00  0.00    +0.269 C 
ATOM      3  O   UNL     1      10.139  -3.165  24.020  0.00  0.00    -0.270 OA
ATOM      4  N   UNL     1       8.334  -4.420  23.546  0.00  0.00    -0.281 N 
ATOM      5  H   UNL     1       8.982  -4.987  23.011  0.00  0.00    +0.155 HD
ATOM      6  C   UNL     1       6.964  -4.726  23.532  0.00  0.00    +0.043 A 
ATOM      7  C   UNL     1       6.509  -5.527  22.476  0.00  0.00    +0.025 A 
ATOM      8  C   UNL     1       5.148  -5.819  22.342  0.00  0.00    +0.022 A 
ATOM      9  C   UNL     1       4.239  -5.330  23.275  0.00  0.00    +0.042 A 
ATOM     10  C   UNL     1       4.679  -4.565  24.352  0.00  0.00    +0.032 A 
ATOM     11 CL   UNL     1       2.567  -5.698  23.119  0.00  0.00    -0.084 Cl
ATOM     12  C   UNL     1       6.046  -4.283  24.502  0.00  0.00    +0.023 A 
ATOM     13  C   UNL     1       6.485  -3.593  25.755  0.00  0.00    +0.078 C 
ATOM     14  N   UNL     1       7.337  -2.624  25.793  0.00  0.00    -0.243 NA
ENDROOT
BRANCH  13  15
ATOM     15  C   UNL     1       5.908  -4.043  27.067  0.00  0.00    +0.001 A 
ATOM     16  C   UNL     1       4.930  -3.292  27.735  0.00  0.00    +0.010 A 
ATOM     17  C   UNL     1       4.431  -3.727  28.966  0.00  0.00    +0.001 A 
ATOM     18  C   UNL     1       4.887  -4.921  29.522  0.00  0.00    +0.000 A 
ATOM     19  C   UNL     1       5.838  -5.686  28.849  0.00  0.00    +0.001 A 
ATOM     20  C   UNL     1       6.346  -5.251  27.623  0.00  0.00    +0.010 A 
ENDBRANCH  13  15
BRANCH   1  21
ATOM     21  O   UNL     1       8.567  -0.911  24.737  0.00  0.00    -0.364 OA
ATOM     22  H   UNL     1       9.136  -1.074  25.508  0.00  0.00    +0.212 HD
ENDBRANCH   1  21
TORSDOF 2
ENDMDL
