MODEL 1
REMARK VINA RESULT:      -6.2      0.000      0.000
REMARK  Name = 
REMARK  5 active torsions:
REMARK  status: ('A' for Active; 'I' for Inactive)
REMARK    1  A    between atoms: C_1  and  C_2
REMARK    2  A    between atoms: C_2  and  C_3
REMARK    3  A    between atoms: C_2  and  C_4
REMARK    4  A    between atoms: C_2  and  N_5
REMARK    5  A    between atoms: C_8  and  C_16
REMARK                            x       y       z     vdW  Elec       q    Type
REMARK                         _______ _______ _______ _____ _____    ______ ____
ROOT
ATOM      1  N   UNL     1       7.501   0.138  23.192  0.00  0.00    -0.128 N 
ATOM      2  C   UNL     1       8.496  -0.851  23.314  0.00  0.00    +0.207 A 
ATOM      3  N   UNL     1       9.840  -0.707  23.115  0.00  0.00    -0.213 NA
ATOM      4  C   UNL     1      10.538  -1.833  23.330  0.00  0.00    +0.225 A 
ATOM      5  N   UNL     1      10.064  -3.038  23.731  0.00  0.00    -0.220 NA
ATOM      6  C   UNL     1       8.745  -3.232  23.957  0.00  0.00    +0.135 A 
ATOM      7  N   UNL     1       8.367  -4.474  24.431  0.00  0.00    -0.342 N 
ATOM      8  H   UNL     1       7.674  -4.486  25.170  0.00  0.00    +0.144 HD
ATOM      9  H   UNL     1       9.189  -5.037  24.645  0.00  0.00    +0.144 HD
ATOM     10  C   UNL     1       7.913  -2.129  23.719  0.00  0.00    +0.136 A 
ATOM     11  C   UNL     1       6.475  -1.825  23.779  0.00  0.00    +0.251 A 
ATOM     12  N   UNL     1       6.321  -0.430  23.484  0.00  0.00    -0.119 N 
ATOM     13  H   UNL     1       5.419   0.044  23.433  0.00  0.00    +0.487 HD
ENDROOT
BRANCH  11  14
ATOM     14  C   UNL     1       5.298  -2.725  24.021  0.00  0.00    +0.049 A 
ATOM     15  C   UNL     1       5.021  -3.738  23.091  0.00  0.00    +0.016 A 
ATOM     16  C   UNL     1       3.993  -4.653  23.336  0.00  0.00    +0.021 A 
ATOM     17  C   UNL     1       3.248  -4.564  24.510  0.00  0.00    +0.041 A 
ATOM     18 CL   UNL     1       2.016  -5.717  24.831  0.00  0.00    -0.084 Cl
ATOM     19  C   UNL     1       3.514  -3.555  25.433  0.00  0.00    +0.021 A 
ATOM     20  C   UNL     1       4.540  -2.635  25.190  0.00  0.00    +0.016 A 
ENDBRANCH  11  14
BRANCH   1  22
ATOM     21  C   UNL     1       6.300   2.247  22.612  0.00  0.00    +0.040 C 
ATOM     22  C   UNL     1       7.670   1.568  22.806  0.00  0.00    +0.094 C 
ATOM     23  C   UNL     1       8.421   2.318  23.916  0.00  0.00    +0.040 C 
ATOM     24  C   UNL     1       8.441   1.677  21.481  0.00  0.00    +0.040 C 
ENDBRANCH   1  22
TORSDOF 2
ENDMDL
MODEL 2
REMARK VINA RESULT:      -6.0      2.551      3.515
REMARK  Name = 
REMARK  5 active torsions:
REMARK  status: ('A' for Active; 'I' for Inactive)
REMARK    1  A    between atoms: C_1  and  C_2
REMARK    2  A    between atoms: C_2  and  C_3
REMARK    3  A    between atoms: C_2  and  C_4
REMARK    4  A    between atoms: C_2  and  N_5
REMARK    5  A    between atoms: C_8  and  C_16
REMARK                            x       y       z     vdW  Elec       q    Type
REMARK                         _______ _______ _______ _____ _____    ______ ____
ROOT
ATOM      1  N   UNL     1       6.868   1.173  24.491  0.00  0.00    -0.128 N 
ATOM      2  C   UNL     1       7.936   1.352  23.590  0.00  0.00    +0.207 A 
ATOM      3  N   UNL     1       8.592   2.515  23.300  0.00  0.00    -0.213 NA
ATOM      4  C   UNL     1       9.586   2.363  22.411  0.00  0.00    +0.225 A 
ATOM      5  N   UNL     1      10.000   1.216  21.820  0.00  0.00    -0.220 NA
ATOM      6  C   UNL     1       9.397   0.035  22.083  0.00  0.00    +0.135 A 
ATOM      7  N   UNL     1       9.935  -1.090  21.487  0.00  0.00    -0.342 N 
ATOM      8  H   UNL     1      10.012  -1.918  22.066  0.00  0.00    +0.144 HD
ATOM      9  H   UNL     1      10.803  -0.856  21.007  0.00  0.00    +0.144 HD
ATOM     10  C   UNL     1       8.311   0.084  22.969  0.00  0.00    +0.136 A 
ATOM     11  C   UNL     1       7.338  -0.858  23.541  0.00  0.00    +0.251 A 
ATOM     12  N   UNL     1       6.533  -0.125  24.475  0.00  0.00    -0.119 N 
ATOM     13  H   UNL     1       5.759  -0.533  25.001  0.00  0.00    +0.487 HD
ENDROOT
BRANCH  11  14
ATOM     14  C   UNL     1       7.090  -2.308  23.239  0.00  0.00    +0.049 A 
ATOM     15  C   UNL     1       6.040  -2.647  22.373  0.00  0.00    +0.016 A 
ATOM     16  C   UNL     1       5.844  -3.978  21.995  0.00  0.00    +0.021 A 
ATOM     17  C   UNL     1       6.700  -4.969  22.470  0.00  0.00    +0.041 A 
ATOM     18 CL   UNL     1       6.486  -6.597  21.967  0.00  0.00    -0.084 Cl
ATOM     19  C   UNL     1       7.740  -4.639  23.336  0.00  0.00    +0.021 A 
ATOM     20  C   UNL     1       7.938  -3.308  23.720  0.00  0.00    +0.016 A 
ENDBRANCH  11  14
BRANCH   1  22
ATOM     21  C   UNL     1       5.616   3.331  24.450  0.00  0.00    +0.040 C 
ATOM     22  C   UNL     1       6.191   2.204  25.330  0.00  0.00    +0.094 C 
ATOM     23  C   UNL     1       5.029   1.561  26.101  0.00  0.00    +0.040 C 
ATOM     24  C   UNL     1       7.190   2.836  26.311  0.00  0.00    +0.040 C 
ENDBRANCH   1  22
TORSDOF 2
ENDMDL
MODEL 3
REMARK VINA RESULT:      -6.0      1.583      2.414
REMARK  Name = 
REMARK  5 active torsions:
REMARK  status: ('A' for Active; 'I' for Inactive)
REMARK    1  A    between atoms: C_1  and  C_2
REMARK    2  A    between atoms: C_2  and  C_3
REMARK    3  A    between atoms: C_2  and  C_4
REMARK    4  A    between atoms: C_2  and  N_5
REMARK    5  A    between atoms: C_8  and  C_16
REMARK                            x       y       z     vdW  Elec       q    Type
REMARK                         _______ _______ _______ _____ _____    ______ ____
ROOT
ATOM      1  N   UNL     1       6.965   1.750  23.501  0.00  0.00    -0.128 N 
ATOM      2  C   UNL     1       8.282   1.279  23.668  0.00  0.00    +0.207 A 
ATOM      3  N   UNL     1       9.425   2.021  23.759  0.00  0.00    -0.213 NA
ATOM      4  C   UNL     1      10.532   1.283  23.938  0.00  0.00    +0.225 A 
ATOM      5  N   UNL     1      10.619  -0.064  24.058  0.00  0.00    -0.220 NA
ATOM      6  C   UNL     1       9.518  -0.846  23.992  0.00  0.00    +0.135 A 
ATOM      7  N   UNL     1       9.698  -2.200  24.195  0.00  0.00    -0.342 N 
ATOM      8  H   UNL     1       9.011  -2.668  24.775  0.00  0.00    +0.144 HD
ATOM      9  H   UNL     1      10.658  -2.391  24.481  0.00  0.00    +0.144 HD
ATOM     10  C   UNL     1       8.306  -0.180  23.761  0.00  0.00    +0.136 A 
ATOM     11  C   UNL     1       6.891  -0.539  23.582  0.00  0.00    +0.251 A 
ATOM     12  N   UNL     1       6.151   0.685  23.470  0.00  0.00    -0.119 N 
ATOM     13  H   UNL     1       5.143   0.727  23.315  0.00  0.00    +0.487 HD
ENDROOT
BRANCH  11  14
ATOM     14  C   UNL     1       6.235  -1.883  23.455  0.00  0.00    +0.049 A 
ATOM     15  C   UNL     1       5.342  -2.296  24.455  0.00  0.00    +0.016 A 
ATOM     16  C   UNL     1       4.642  -3.498  24.319  0.00  0.00    +0.021 A 
ATOM     17  C   UNL     1       4.824  -4.283  23.183  0.00  0.00    +0.041 A 
ATOM     18 CL   UNL     1       3.928  -5.736  22.995  0.00  0.00    -0.084 Cl
ATOM     19  C   UNL     1       5.715  -3.882  22.190  0.00  0.00    +0.021 A 
ATOM     20  C   UNL     1       6.421  -2.681  22.324  0.00  0.00    +0.016 A 
ENDBRANCH  11  14
BRANCH   1  22
ATOM     21  C   UNL     1       4.996   3.217  23.059  0.00  0.00    +0.040 C 
ATOM     22  C   UNL     1       6.505   3.162  23.369  0.00  0.00    +0.094 C 
ATOM     23  C   UNL     1       6.749   3.910  24.687  0.00  0.00    +0.040 C 
ATOM     24  C   UNL     1       7.248   3.861  22.220  0.00  0.00    +0.040 C 
ENDBRANCH   1  22
TORSDOF 2
ENDMDL
MODEL 4
REMARK VINA RESULT:      -6.0      3.356      5.970
REMARK  Name = 
REMARK  5 active torsions:
REMARK  status: ('A' for Active; 'I' for Inactive)
REMARK    1  A    between atoms: C_1  and  C_2
REMARK    2  A    between atoms: C_2  and  C_3
REMARK    3  A    between atoms: C_2  and  C_4
REMARK    4  A    between atoms: C_2  and  N_5
REMARK    5  A    between atoms: C_8  and  C_16
REMARK                            x       y       z     vdW  Elec       q    Type
REMARK                         _______ _______ _______ _____ _____    ______ ____
ROOT
ATOM      1  N   UNL     1       6.968  -3.950  22.924  0.00  0.00    -0.128 N 
ATOM      2  C   UNL     1       7.499  -3.809  24.221  0.00  0.00    +0.207 A 
ATOM      3  N   UNL     1       7.685  -4.790  25.154  0.00  0.00    -0.213 NA
ATOM      4  C   UNL     1       8.234  -4.348  26.296  0.00  0.00    +0.225 A 
ATOM      5  N   UNL     1       8.628  -3.085  26.591  0.00  0.00    -0.220 NA
ATOM      6  C   UNL     1       8.483  -2.079  25.699  0.00  0.00    +0.135 A 
ATOM      7  N   UNL     1       8.978  -0.842  26.064  0.00  0.00    -0.342 N 
ATOM      8  H   UNL     1       9.478  -0.325  25.350  0.00  0.00    +0.144 HD
ATOM      9  H   UNL     1       9.492  -0.911  26.941  0.00  0.00    +0.144 HD
ATOM     10  C   UNL     1       7.875  -2.421  24.482  0.00  0.00    +0.136 A 
ATOM     11  C   UNL     1       7.473  -1.738  23.244  0.00  0.00    +0.251 A 
ATOM     12  N   UNL     1       6.973  -2.739  22.347  0.00  0.00    -0.119 N 
ATOM     13  H   UNL     1       6.601  -2.536  21.419  0.00  0.00    +0.487 HD
ENDROOT
BRANCH  11  14
ATOM     14  C   UNL     1       7.473  -0.279  22.892  0.00  0.00    +0.049 A 
ATOM     15  C   UNL     1       6.473   0.546  23.430  0.00  0.00    +0.016 A 
ATOM     16  C   UNL     1       6.501   1.925  23.202  0.00  0.00    +0.021 A 
ATOM     17  C   UNL     1       7.529   2.482  22.444  0.00  0.00    +0.041 A 
ATOM     18 CL   UNL     1       7.588   4.182  22.203  0.00  0.00    -0.084 Cl
ATOM     19  C   UNL     1       8.520   1.668  21.901  0.00  0.00    +0.021 A 
ATOM     20  C   UNL     1       8.494   0.286  22.125  0.00  0.00    +0.016 A 
ENDBRANCH  11  14
BRANCH   1  22
ATOM     21  C   UNL     1       6.095  -4.916  20.796  0.00  0.00    +0.040 C 
ATOM     22  C   UNL     1       6.471  -5.191  22.265  0.00  0.00    +0.094 C 
ATOM     23  C   UNL     1       7.571  -6.262  22.283  0.00  0.00    +0.040 C 
ATOM     24  C   UNL     1       5.216  -5.712  22.983  0.00  0.00    +0.040 C 
ENDBRANCH   1  22
TORSDOF 2
ENDMDL
MODEL 5
REMARK VINA RESULT:      -5.9      3.428      6.553
REMARK  Name = 
REMARK  5 active torsions:
REMARK  status: ('A' for Active; 'I' for Inactive)
REMARK    1  A    between atoms: C_1  and  C_2
REMARK    2  A    between atoms: C_2  and  C_3
REMARK    3  A    between atoms: C_2  and  C_4
REMARK    4  A    between atoms: C_2  and  N_5
REMARK    5  A    between atoms: C_8  and  C_16
REMARK                            x       y       z     vdW  Elec       q    Type
REMARK                         _______ _______ _______ _____ _____    ______ ____
ROOT
ATOM      1  N   UNL     1       4.381  -5.244  24.866  0.00  0.00    -0.128 N 
ATOM      2  C   UNL     1       5.273  -5.469  25.933  0.00  0.00    +0.207 A 
ATOM      3  N   UNL     1       5.103  -6.311  26.995  0.00  0.00    -0.213 NA
ATOM      4  C   UNL     1       6.144  -6.324  27.842  0.00  0.00    +0.225 A 
ATOM      5  N   UNL     1       7.306  -5.634  27.738  0.00  0.00    -0.220 NA
ATOM      6  C   UNL     1       7.533  -4.799  26.699  0.00  0.00    +0.135 A 
ATOM      7  N   UNL     1       8.774  -4.194  26.642  0.00  0.00    -0.342 N 
ATOM      8  H   UNL     1       9.216  -4.149  25.731  0.00  0.00    +0.144 HD
ATOM      9  H   UNL     1       9.386  -4.572  27.365  0.00  0.00    +0.144 HD
ATOM     10  C   UNL     1       6.488  -4.673  25.772  0.00  0.00    +0.136 A 
ATOM     11  C   UNL     1       6.219  -3.916  24.541  0.00  0.00    +0.251 A 
ATOM     12  N   UNL     1       4.946  -4.350  24.042  0.00  0.00    -0.119 N 
ATOM     13  H   UNL     1       4.503  -3.967  23.207  0.00  0.00    +0.487 HD
ENDROOT
BRANCH  11  14
ATOM     14  C   UNL     1       7.010  -2.828  23.873  0.00  0.00    +0.049 A 
ATOM     15  C   UNL     1       8.239  -3.153  23.281  0.00  0.00    +0.016 A 
ATOM     16  C   UNL     1       8.953  -2.186  22.568  0.00  0.00    +0.021 A 
ATOM     17  C   UNL     1       8.438  -0.898  22.438  0.00  0.00    +0.041 A 
ATOM     18 CL   UNL     1       9.293   0.276  21.522  0.00  0.00    -0.084 Cl
ATOM     19  C   UNL     1       7.222  -0.568  23.030  0.00  0.00    +0.021 A 
ATOM     20  C   UNL     1       6.505  -1.532  23.748  0.00  0.00    +0.016 A 
ENDBRANCH  11  14
BRANCH   1  22
ATOM     21  C   UNL     1       2.394  -5.309  23.359  0.00  0.00    +0.040 C 
ATOM     22  C   UNL     1       3.039  -5.856  24.647  0.00  0.00    +0.094 C 
ATOM     23  C   UNL     1       3.183  -7.378  24.499  0.00  0.00    +0.040 C 
ATOM     24  C   UNL     1       2.103  -5.527  25.819  0.00  0.00    +0.040 C 
ENDBRANCH   1  22
TORSDOF 2
ENDMDL
MODEL 6
REMARK VINA RESULT:      -5.9      3.467      6.290
REMARK  Name = 
REMARK  5 active torsions:
REMARK  status: ('A' for Active; 'I' for Inactive)
REMARK    1  A    between atoms: C_1  and  C_2
REMARK    2  A    between atoms: C_2  and  C_3
REMARK    3  A    between atoms: C_2  and  C_4
REMARK    4  A    between atoms: C_2  and  N_5
REMARK    5  A    between atoms: C_8  and  C_16
REMARK                            x       y       z     vdW  Elec       q    Type
REMARK                         _______ _______ _______ _____ _____    ______ ____
ROOT
ATOM      1  N   UNL     1       6.933  -4.137  23.044  0.00  0.00    -0.128 N 
ATOM      2  C   UNL     1       7.028  -4.190  24.448  0.00  0.00    +0.207 A 
ATOM      3  N   UNL     1       6.530  -5.153  25.279  0.00  0.00    -0.213 NA
ATOM      4  C   UNL     1       6.802  -4.936  26.576  0.00  0.00    +0.225 A 
ATOM      5  N   UNL     1       7.512  -3.916  27.114  0.00  0.00    -0.220 NA
ATOM      6  C   UNL     1       8.042  -2.944  26.337  0.00  0.00    +0.135 A 
ATOM      7  N   UNL     1       8.808  -1.984  26.969  0.00  0.00    -0.342 N 
ATOM      8  H   UNL     1       9.665  -1.708  26.502  0.00  0.00    +0.144 HD
ATOM      9  H   UNL     1       8.949  -2.231  27.948  0.00  0.00    +0.144 HD
ATOM     10  C   UNL     1       7.780  -3.046  24.963  0.00  0.00    +0.136 A 
ATOM     11  C   UNL     1       8.079  -2.280  23.744  0.00  0.00    +0.251 A 
ATOM     12  N   UNL     1       7.566  -3.028  22.633  0.00  0.00    -0.119 N 
ATOM     13  H   UNL     1       7.617  -2.713  21.664  0.00  0.00    +0.487 HD
ENDROOT
BRANCH  11  14
ATOM     14  C   UNL     1       8.727  -0.937  23.572  0.00  0.00    +0.049 A 
ATOM     15  C   UNL     1       7.930   0.153  23.189  0.00  0.00    +0.016 A 
ATOM     16  C   UNL     1       8.482   1.435  23.115  0.00  0.00    +0.021 A 
ATOM     17  C   UNL     1       9.825   1.632  23.430  0.00  0.00    +0.041 A 
ATOM     18 CL   UNL     1      10.490   3.215  23.384  0.00  0.00    -0.084 Cl
ATOM     19  C   UNL     1      10.622   0.553  23.803  0.00  0.00    +0.021 A 
ATOM     20  C   UNL     1      10.075  -0.733  23.876  0.00  0.00    +0.016 A 
ENDBRANCH  11  14
BRANCH   1  22
ATOM     21  C   UNL     1       4.867  -5.487  22.675  0.00  0.00    +0.040 C 
ATOM     22  C   UNL     1       6.258  -5.104  22.132  0.00  0.00    +0.094 C 
ATOM     23  C   UNL     1       6.070  -4.466  20.748  0.00  0.00    +0.040 C 
ATOM     24  C   UNL     1       7.087  -6.392  22.012  0.00  0.00    +0.040 C 
ENDBRANCH   1  22
TORSDOF 2
ENDMDL
MODEL 7
REMARK VINA RESULT:      -5.9      1.627      2.584
REMARK  Name = 
REMARK  5 active torsions:
REMARK  status: ('A' for Active; 'I' for Inactive)
REMARK    1  A    between atoms: C_1  and  C_2
REMARK    2  A    between atoms: C_2  and  C_3
REMARK    3  A    between atoms: C_2  and  C_4
REMARK    4  A    between atoms: C_2  and  N_5
REMARK    5  A    between atoms: C_8  and  C_16
REMARK                            x       y       z     vdW  Elec       q    Type
REMARK                         _______ _______ _______ _____ _____    ______ ____
ROOT
ATOM      1  N   UNL     1       8.054  -2.074  23.774  0.00  0.00    -0.128 N 
ATOM      2  C   UNL     1       8.511  -3.250  24.401  0.00  0.00    +0.207 A 
ATOM      3  N   UNL     1       9.805  -3.656  24.564  0.00  0.00    -0.213 NA
ATOM      4  C   UNL     1       9.924  -4.818  25.224  0.00  0.00    +0.225 A 
ATOM      5  N   UNL     1       8.932  -5.581  25.744  0.00  0.00    -0.220 NA
ATOM      6  C   UNL     1       7.634  -5.219  25.625  0.00  0.00    +0.135 A 
ATOM      7  N   UNL     1       6.700  -6.024  26.247  0.00  0.00    -0.342 N 
ATOM      8  H   UNL     1       5.951  -5.552  26.741  0.00  0.00    +0.144 HD
ATOM      9  H   UNL     1       7.164  -6.735  26.812  0.00  0.00    +0.144 HD
ATOM     10  C   UNL     1       7.390  -4.037  24.910  0.00  0.00    +0.136 A 
ATOM     11  C   UNL     1       6.222  -3.251  24.486  0.00  0.00    +0.251 A 
ATOM     12  N   UNL     1       6.715  -2.067  23.843  0.00  0.00    -0.119 N 
ATOM     13  H   UNL     1       6.114  -1.354  23.429  0.00  0.00    +0.487 HD
ENDROOT
BRANCH  11  14
ATOM     14  C   UNL     1       4.755  -3.553  24.587  0.00  0.00    +0.049 A 
ATOM     15  C   UNL     1       4.205  -4.523  23.735  0.00  0.00    +0.016 A 
ATOM     16  C   UNL     1       2.865  -4.897  23.870  0.00  0.00    +0.021 A 
ATOM     17  C   UNL     1       2.076  -4.312  24.858  0.00  0.00    +0.041 A 
ATOM     18 CL   UNL     1       0.443  -4.807  25.052  0.00  0.00    -0.084 Cl
ATOM     19  C   UNL     1       2.615  -3.344  25.701  0.00  0.00    +0.021 A 
ATOM     20  C   UNL     1       3.955  -2.963  25.568  0.00  0.00    +0.016 A 
ENDBRANCH  11  14
BRANCH   1  22
ATOM     21  C   UNL     1       9.574  -1.537  21.869  0.00  0.00    +0.040 C 
ATOM     22  C   UNL     1       8.866  -1.002  23.129  0.00  0.00    +0.094 C 
ATOM     23  C   UNL     1       7.951   0.156  22.706  0.00  0.00    +0.040 C 
ATOM     24  C   UNL     1       9.946  -0.495  24.097  0.00  0.00    +0.040 C 
ENDBRANCH   1  22
TORSDOF 2
ENDMDL
MODEL 8
REMARK VINA RESULT:      -5.9      3.340      6.237
REMARK  Name = 
REMARK  5 active torsions:
REMARK  status: ('A' for Active; 'I' for Inactive)
REMARK    1  A    between atoms: C_1  and  C_2
REMARK    2  A    between atoms: C_2  and  C_3
REMARK    3  A    between atoms: C_2  and  C_4
REMARK    4  A    between atoms: C_2  and  N_5
REMARK    5  A    between atoms: C_8  and  C_16
REMARK                            x       y       z     vdW  Elec       q    Type
REMARK                         _______ _______ _______ _____ _____    ______ ____
ROOT
ATOM      1  N   UNL     1       6.618  -1.241  23.736  0.00  0.00    -0.128 N 
ATOM      2  C   UNL     1       7.801  -1.050  22.996  0.00  0.00    +0.207 A 
ATOM      3  N   UNL     1       8.671  -2.009  22.559  0.00  0.00    -0.213 NA
ATOM      4  C   UNL     1       9.703  -1.517  21.856  0.00  0.00    +0.225 A 
ATOM      5  N   UNL     1       9.943  -0.223  21.531  0.00  0.00    -0.220 NA
ATOM      6  C   UNL     1       9.106   0.764  21.924  0.00  0.00    +0.135 A 
ATOM      7  N   UNL     1       9.395   2.042  21.485  0.00  0.00    -0.342 N 
ATOM      8  H   UNL     1       8.612   2.601  21.170  0.00  0.00    +0.144 HD
ATOM      9  H   UNL     1      10.166   2.021  20.818  0.00  0.00    +0.144 HD
ATOM     10  C   UNL     1       8.012   0.367  22.707  0.00  0.00    +0.136 A 
ATOM     11  C   UNL     1       6.876   1.009  23.384  0.00  0.00    +0.251 A 
ATOM     12  N   UNL     1       6.068  -0.035  23.944  0.00  0.00    -0.119 N 
ATOM     13  H   UNL     1       5.224   0.132  24.493  0.00  0.00    +0.487 HD
ENDROOT
BRANCH  11  14
ATOM     14  C   UNL     1       6.552   2.461  23.578  0.00  0.00    +0.049 A 
ATOM     15  C   UNL     1       7.273   3.192  24.535  0.00  0.00    +0.016 A 
ATOM     16  C   UNL     1       7.064   4.567  24.672  0.00  0.00    +0.021 A 
ATOM     17  C   UNL     1       6.143   5.215  23.852  0.00  0.00    +0.041 A 
ATOM     18 CL   UNL     1       5.922   6.913  23.990  0.00  0.00    -0.084 Cl
ATOM     19  C   UNL     1       5.419   4.494  22.906  0.00  0.00    +0.021 A 
ATOM     20  C   UNL     1       5.623   3.116  22.766  0.00  0.00    +0.016 A 
ENDBRANCH  11  14
BRANCH   1  22
ATOM     21  C   UNL     1       4.902  -2.258  25.235  0.00  0.00    +0.040 C 
ATOM     22  C   UNL     1       6.040  -2.523  24.230  0.00  0.00    +0.094 C 
ATOM     23  C   UNL     1       5.458  -3.316  23.050  0.00  0.00    +0.040 C 
ATOM     24  C   UNL     1       7.115  -3.355  24.945  0.00  0.00    +0.040 C 
ENDBRANCH   1  22
TORSDOF 2
ENDMDL
MODEL 9
REMARK VINA RESULT:      -5.7      3.068      4.456
REMARK  Name = 
REMARK  5 active torsions:
REMARK  status: ('A' for Active; 'I' for Inactive)
REMARK    1  A    between atoms: C_1  and  C_2
REMARK    2  A    between atoms: C_2  and  C_3
REMARK    3  A    between atoms: C_2  and  C_4
REMARK    4  A    between atoms: C_2  and  N_5
REMARK    5  A    between atoms: C_8  and  C_16
REMARK                            x       y       z     vdW  Elec       q    Type
REMARK                         _______ _______ _______ _____ _____    ______ ____
ROOT
ATOM      1  N   UNL     1       7.500  -3.252  24.561  0.00  0.00    -0.128 N 
ATOM      2  C   UNL     1       6.924  -4.034  23.540  0.00  0.00    +0.207 A 
ATOM      3  N   UNL     1       7.127  -3.925  22.194  0.00  0.00    -0.213 NA
ATOM      4  C   UNL     1       6.449  -4.831  21.473  0.00  0.00    +0.225 A 
ATOM      5  N   UNL     1       5.639  -5.816  21.931  0.00  0.00    -0.220 NA
ATOM      6  C   UNL     1       5.415  -5.980  23.254  0.00  0.00    +0.135 A 
ATOM      7  N   UNL     1       4.630  -7.054  23.629  0.00  0.00    -0.342 N 
ATOM      8  H   UNL     1       4.940  -7.583  24.435  0.00  0.00    +0.144 HD
ATOM      9  H   UNL     1       4.424  -7.640  22.821  0.00  0.00    +0.144 HD
ATOM     10  C   UNL     1       6.040  -5.055  24.102  0.00  0.00    +0.136 A 
ATOM     11  C   UNL     1       6.103  -4.779  25.545  0.00  0.00    +0.251 A 
ATOM     12  N   UNL     1       7.033  -3.704  25.734  0.00  0.00    -0.119 N 
ATOM     13  H   UNL     1       7.250  -3.293  26.643  0.00  0.00    +0.487 HD
ENDROOT
BRANCH  11  14
ATOM     14  C   UNL     1       5.341  -5.386  26.687  0.00  0.00    +0.049 A 
ATOM     15  C   UNL     1       3.939  -5.321  26.674  0.00  0.00    +0.016 A 
ATOM     16  C   UNL     1       3.197  -5.961  27.671  0.00  0.00    +0.021 A 
ATOM     17  C   UNL     1       3.851  -6.671  28.675  0.00  0.00    +0.041 A 
ATOM     18 CL   UNL     1       2.937  -7.496  29.873  0.00  0.00    -0.084 Cl
ATOM     19  C   UNL     1       5.242  -6.732  28.698  0.00  0.00    +0.021 A 
ATOM     20  C   UNL     1       5.990  -6.090  27.703  0.00  0.00    +0.016 A 
ENDBRANCH  11  14
BRANCH   1  22
ATOM     21  C   UNL     1       8.709  -1.443  25.781  0.00  0.00    +0.040 C 
ATOM     22  C   UNL     1       8.455  -2.116  24.418  0.00  0.00    +0.094 C 
ATOM     23  C   UNL     1       9.798  -2.634  23.884  0.00  0.00    +0.040 C 
ATOM     24  C   UNL     1       7.883  -1.053  23.468  0.00  0.00    +0.040 C 
ENDBRANCH   1  22
TORSDOF 2
ENDMDL
