MODEL 1
REMARK VINA RESULT:      -6.3      0.000      0.000
REMARK  Name = 
REMARK  4 active torsions:
REMARK  status: ('A' for Active; 'I' for Inactive)
REMARK    1  A    between atoms: O_1  and  C_2
REMARK    2  A    between atoms: C_4  and  O_5
REMARK    3  A    between atoms: C_6  and  C_7
REMARK    4  A    between atoms: C_14  and  O_15
REMARK                            x       y       z     vdW  Elec       q    Type
REMARK                         _______ _______ _______ _____ _____    ______ ____
ROOT
ATOM      1  C   UNL     1       8.487   1.237  21.861  0.00  0.00    +0.124 A 
ATOM      2  C   UNL     1       7.343   0.847  22.545  0.00  0.00    +0.091 A 
ATOM      3  C   UNL     1       7.230  -0.468  22.992  0.00  0.00    +0.136 A 
ATOM      4  C   UNL     1       8.225  -1.418  22.707  0.00  0.00    +0.123 A 
ATOM      5  C   UNL     1       9.381  -0.993  22.039  0.00  0.00    +0.136 A 
ATOM      6  C   UNL     1       9.515   0.331  21.610  0.00  0.00    +0.091 A 
ENDROOT
BRANCH   4   7
ATOM      7  C   UNL     1       8.101  -2.791  23.247  0.00  0.00    +0.270 C 
ATOM      8  N   UNL     1       7.481  -3.898  22.622  0.00  0.00    -0.290 N 
ATOM      9  C   UNL     1       6.551  -3.904  21.594  0.00  0.00    +0.094 A 
ATOM     10  C   UNL     1       6.172  -5.204  21.332  0.00  0.00    +0.020 A 
ATOM     11  C   UNL     1       6.894  -6.039  22.209  0.00  0.00    +0.020 A 
ATOM     12  C   UNL     1       7.673  -5.222  22.994  0.00  0.00    +0.094 A 
ATOM     13  O   UNL     1       8.565  -2.979  24.378  0.00  0.00    -0.266 OA
ENDBRANCH   4   7
BRANCH   1  14
ATOM     14  O   UNL     1       8.583   2.544  21.480  0.00  0.00    -0.507 OA
ATOM     15  H   UNL     1       9.010   2.600  20.610  0.00  0.00    +0.292 HD
ENDBRANCH   1  14
BRANCH   3  16
ATOM     16  O   UNL     1       6.125  -0.756  23.751  0.00  0.00    -0.506 OA
ATOM     17  H   UNL     1       5.431  -0.097  23.530  0.00  0.00    +0.292 HD
ENDBRANCH   3  16
BRANCH   5  18
ATOM     18  O   UNL     1      10.423  -1.861  21.865  0.00  0.00    -0.506 OA
ATOM     19  H   UNL     1      10.810  -2.098  22.724  0.00  0.00    +0.292 HD
ENDBRANCH   5  18
TORSDOF 4
ENDMDL
MODEL 2
REMARK VINA RESULT:      -6.3      3.970      7.009
REMARK  Name = 
REMARK  4 active torsions:
REMARK  status: ('A' for Active; 'I' for Inactive)
REMARK    1  A    between atoms: O_1  and  C_2
REMARK    2  A    between atoms: C_4  and  O_5
REMARK    3  A    between atoms: C_6  and  C_7
REMARK    4  A    between atoms: C_14  and  O_15
REMARK                            x       y       z     vdW  Elec       q    Type
REMARK                         _______ _______ _______ _____ _____    ______ ____
ROOT
ATOM      1  C   UNL     1       9.946  -0.728  22.178  0.00  0.00    +0.124 A 
ATOM      2  C   UNL     1       9.394   0.359  21.511  0.00  0.00    +0.091 A 
ATOM      3  C   UNL     1       9.177   1.548  22.205  0.00  0.00    +0.136 A 
ATOM      4  C   UNL     1       9.450   1.643  23.580  0.00  0.00    +0.123 A 
ATOM      5  C   UNL     1      10.032   0.543  24.223  0.00  0.00    +0.136 A 
ATOM      6  C   UNL     1      10.277  -0.646  23.528  0.00  0.00    +0.091 A 
ENDROOT
BRANCH   4   7
ATOM      7  C   UNL     1       9.264   2.938  24.274  0.00  0.00    +0.270 C 
ATOM      8  N   UNL     1       9.997   4.129  24.065  0.00  0.00    -0.290 N 
ATOM      9  C   UNL     1      11.248   4.286  23.487  0.00  0.00    +0.094 A 
ATOM     10  C   UNL     1      11.608   5.617  23.538  0.00  0.00    +0.020 A 
ATOM     11  C   UNL     1      10.549   6.317  24.152  0.00  0.00    +0.020 A 
ATOM     12  C   UNL     1       9.588   5.390  24.477  0.00  0.00    +0.094 A 
ATOM     13  O   UNL     1       8.391   2.969  25.149  0.00  0.00    -0.266 OA
ENDBRANCH   4   7
BRANCH   1  14
ATOM     14  O   UNL     1      10.187  -1.859  21.454  0.00  0.00    -0.507 OA
ATOM     15  H   UNL     1      11.093  -2.165  21.620  0.00  0.00    +0.292 HD
ENDBRANCH   1  14
BRANCH   3  16
ATOM     16  O   UNL     1       8.730   2.609  21.461  0.00  0.00    -0.506 OA
ATOM     17  H   UNL     1       8.999   3.433  21.924  0.00  0.00    +0.292 HD
ENDBRANCH   3  16
BRANCH   5  18
ATOM     18  O   UNL     1      10.430   0.650  25.526  0.00  0.00    -0.506 OA
ATOM     19  H   UNL     1      10.705   1.561  25.720  0.00  0.00    +0.292 HD
ENDBRANCH   5  18
TORSDOF 4
ENDMDL
MODEL 3
REMARK VINA RESULT:      -6.2      1.908      2.601
REMARK  Name = 
REMARK  4 active torsions:
REMARK  status: ('A' for Active; 'I' for Inactive)
REMARK    1  A    between atoms: O_1  and  C_2
REMARK    2  A    between atoms: C_4  and  O_5
REMARK    3  A    between atoms: C_6  and  C_7
REMARK    4  A    between atoms: C_14  and  O_15
REMARK                            x       y       z     vdW  Elec       q    Type
REMARK                         _______ _______ _______ _____ _____    ______ ____
ROOT
ATOM      1  C   UNL     1      10.220   2.025  23.110  0.00  0.00    +0.124 A 
ATOM      2  C   UNL     1      10.058   1.268  21.957  0.00  0.00    +0.091 A 
ATOM      3  C   UNL     1       9.728  -0.082  22.068  0.00  0.00    +0.136 A 
ATOM      4  C   UNL     1       9.617  -0.699  23.325  0.00  0.00    +0.123 A 
ATOM      5  C   UNL     1       9.759   0.093  24.472  0.00  0.00    +0.136 A 
ATOM      6  C   UNL     1      10.065   1.454  24.370  0.00  0.00    +0.091 A 
ENDROOT
BRANCH   4   7
ATOM      7  C   UNL     1       9.208  -2.120  23.408  0.00  0.00    +0.270 C 
ATOM      8  N   UNL     1       7.931  -2.656  23.117  0.00  0.00    -0.290 N 
ATOM      9  C   UNL     1       6.710  -2.002  23.063  0.00  0.00    +0.094 A 
ATOM     10  C   UNL     1       5.715  -2.921  22.800  0.00  0.00    +0.020 A 
ATOM     11  C   UNL     1       6.330  -4.184  22.671  0.00  0.00    +0.020 A 
ATOM     12  C   UNL     1       7.676  -4.000  22.883  0.00  0.00    +0.094 A 
ATOM     13  O   UNL     1      10.068  -2.915  23.802  0.00  0.00    -0.266 OA
ENDBRANCH   4   7
BRANCH   1  14
ATOM     14  O   UNL     1      10.497   3.353  22.961  0.00  0.00    -0.507 OA
ATOM     15  H   UNL     1      10.335   3.816  23.799  0.00  0.00    +0.292 HD
ENDBRANCH   1  14
BRANCH   3  16
ATOM     16  O   UNL     1       9.479  -0.742  20.892  0.00  0.00    -0.506 OA
ATOM     17  H   UNL     1       9.018  -0.118  20.290  0.00  0.00    +0.292 HD
ENDBRANCH   3  16
BRANCH   5  18
ATOM     18  O   UNL     1       9.527  -0.450  25.705  0.00  0.00    -0.506 OA
ATOM     19  H   UNL     1      10.366  -0.597  26.171  0.00  0.00    +0.292 HD
ENDBRANCH   5  18
TORSDOF 4
ENDMDL
MODEL 4
REMARK VINA RESULT:      -6.2      4.000      7.071
REMARK  Name = 
REMARK  4 active torsions:
REMARK  status: ('A' for Active; 'I' for Inactive)
REMARK    1  A    between atoms: O_1  and  C_2
REMARK    2  A    between atoms: C_4  and  O_5
REMARK    3  A    between atoms: C_6  and  C_7
REMARK    4  A    between atoms: C_14  and  O_15
REMARK                            x       y       z     vdW  Elec       q    Type
REMARK                         _______ _______ _______ _____ _____    ______ ____
ROOT
ATOM      1  C   UNL     1       9.977  -0.668  22.154  0.00  0.00    +0.124 A 
ATOM      2  C   UNL     1      10.295  -0.581  23.503  0.00  0.00    +0.091 A 
ATOM      3  C   UNL     1      10.045   0.607  24.189  0.00  0.00    +0.136 A 
ATOM      4  C   UNL     1       9.535   1.733  23.522  0.00  0.00    +0.123 A 
ATOM      5  C   UNL     1       9.198   1.612  22.168  0.00  0.00    +0.136 A 
ATOM      6  C   UNL     1       9.421   0.415  21.478  0.00  0.00    +0.091 A 
ENDROOT
BRANCH   4   7
ATOM      7  C   UNL     1       9.226   2.960  24.292  0.00  0.00    +0.270 C 
ATOM      8  N   UNL     1       9.835   4.229  24.151  0.00  0.00    -0.290 N 
ATOM      9  C   UNL     1      11.058   4.544  23.579  0.00  0.00    +0.094 A 
ATOM     10  C   UNL     1      11.284   5.899  23.708  0.00  0.00    +0.020 A 
ATOM     11  C   UNL     1      10.166   6.453  24.365  0.00  0.00    +0.020 A 
ATOM     12  C   UNL     1       9.305   5.416  24.638  0.00  0.00    +0.094 A 
ATOM     13  O   UNL     1       8.363   2.852  25.170  0.00  0.00    -0.266 OA
ENDBRANCH   4   7
BRANCH   1  14
ATOM     14  O   UNL     1      10.193  -1.861  21.529  0.00  0.00    -0.507 OA
ATOM     15  H   UNL     1      11.070  -2.202  21.768  0.00  0.00    +0.292 HD
ENDBRANCH   1  14
BRANCH   3  16
ATOM     16  O   UNL     1      10.283   0.587  25.539  0.00  0.00    -0.506 OA
ATOM     17  H   UNL     1      10.099  -0.322  25.862  0.00  0.00    +0.292 HD
ENDBRANCH   3  16
BRANCH   5  18
ATOM     18  O   UNL     1       8.578   2.647  21.526  0.00  0.00    -0.506 OA
ATOM     19  H   UNL     1       7.706   2.813  21.921  0.00  0.00    +0.292 HD
ENDBRANCH   5  18
TORSDOF 4
ENDMDL
MODEL 5
REMARK VINA RESULT:      -6.2      0.196      2.097
REMARK  Name = 
REMARK  4 active torsions:
REMARK  status: ('A' for Active; 'I' for Inactive)
REMARK    1  A    between atoms: O_1  and  C_2
REMARK    2  A    between atoms: C_4  and  O_5
REMARK    3  A    between atoms: C_6  and  C_7
REMARK    4  A    between atoms: C_14  and  O_15
REMARK                            x       y       z     vdW  Elec       q    Type
REMARK                         _______ _______ _______ _____ _____    ______ ____
ROOT
ATOM      1  C   UNL     1       8.644   1.195  21.923  0.00  0.00    +0.124 A 
ATOM      2  C   UNL     1       9.680   0.282  21.774  0.00  0.00    +0.091 A 
ATOM      3  C   UNL     1       9.526  -1.013  22.266  0.00  0.00    +0.136 A 
ATOM      4  C   UNL     1       8.365  -1.389  22.963  0.00  0.00    +0.123 A 
ATOM      5  C   UNL     1       7.323  -0.459  23.075  0.00  0.00    +0.136 A 
ATOM      6  C   UNL     1       7.459   0.835  22.562  0.00  0.00    +0.091 A 
ENDROOT
BRANCH   4   7
ATOM      7  C   UNL     1       8.208  -2.788  23.421  0.00  0.00    +0.270 C 
ATOM      8  N   UNL     1       7.537  -3.835  22.746  0.00  0.00    -0.290 N 
ATOM      9  C   UNL     1       6.583  -3.747  21.744  0.00  0.00    +0.094 A 
ATOM     10  C   UNL     1       6.154  -5.016  21.414  0.00  0.00    +0.020 A 
ATOM     11  C   UNL     1       6.870  -5.927  22.218  0.00  0.00    +0.020 A 
ATOM     12  C   UNL     1       7.694  -5.184  23.031  0.00  0.00    +0.094 A 
ATOM     13  O   UNL     1       8.693  -3.060  24.525  0.00  0.00    -0.266 OA
ENDBRANCH   4   7
BRANCH   1  14
ATOM     14  O   UNL     1       8.814   2.438  21.387  0.00  0.00    -0.507 OA
ATOM     15  H   UNL     1       8.497   3.109  22.013  0.00  0.00    +0.292 HD
ENDBRANCH   1  14
BRANCH   3  16
ATOM     16  O   UNL     1      10.544  -1.890  21.992  0.00  0.00    -0.506 OA
ATOM     17  H   UNL     1      11.282  -1.377  21.596  0.00  0.00    +0.292 HD
ENDBRANCH   3  16
BRANCH   5  18
ATOM     18  O   UNL     1       6.133  -0.836  23.630  0.00  0.00    -0.506 OA
ATOM     19  H   UNL     1       5.485  -1.033  22.933  0.00  0.00    +0.292 HD
ENDBRANCH   5  18
TORSDOF 4
ENDMDL
MODEL 6
REMARK VINA RESULT:      -6.1      2.300      2.581
REMARK  Name = 
REMARK  4 active torsions:
REMARK  status: ('A' for Active; 'I' for Inactive)
REMARK    1  A    between atoms: O_1  and  C_2
REMARK    2  A    between atoms: C_4  and  O_5
REMARK    3  A    between atoms: C_6  and  C_7
REMARK    4  A    between atoms: C_14  and  O_15
REMARK                            x       y       z     vdW  Elec       q    Type
REMARK                         _______ _______ _______ _____ _____    ______ ____
ROOT
ATOM      1  C   UNL     1      10.116   2.093  23.018  0.00  0.00    +0.124 A 
ATOM      2  C   UNL     1       9.999   1.626  24.321  0.00  0.00    +0.091 A 
ATOM      3  C   UNL     1       9.764   0.270  24.542  0.00  0.00    +0.136 A 
ATOM      4  C   UNL     1       9.582  -0.617  23.467  0.00  0.00    +0.123 A 
ATOM      5  C   UNL     1       9.732  -0.127  22.163  0.00  0.00    +0.136 A 
ATOM      6  C   UNL     1       9.994   1.228  21.933  0.00  0.00    +0.091 A 
ENDROOT
BRANCH   4   7
ATOM      7  C   UNL     1       9.393  -2.061  23.736  0.00  0.00    +0.270 C 
ATOM      8  N   UNL     1       8.190  -2.707  24.107  0.00  0.00    -0.290 N 
ATOM      9  C   UNL     1       7.046  -2.154  24.661  0.00  0.00    +0.094 A 
ATOM     10  C   UNL     1       6.135  -3.158  24.917  0.00  0.00    +0.020 A 
ATOM     11  C   UNL     1       6.717  -4.373  24.499  0.00  0.00    +0.020 A 
ATOM     12  C   UNL     1       7.973  -4.075  24.024  0.00  0.00    +0.094 A 
ATOM     13  O   UNL     1      10.402  -2.770  23.654  0.00  0.00    -0.266 OA
ENDBRANCH   4   7
BRANCH   1  14
ATOM     14  O   UNL     1      10.392   3.418  22.843  0.00  0.00    -0.507 OA
ATOM     15  H   UNL     1      10.645   3.813  23.693  0.00  0.00    +0.292 HD
ENDBRANCH   1  14
BRANCH   3  16
ATOM     16  O   UNL     1       9.765  -0.139  25.850  0.00  0.00    -0.506 OA
ATOM     17  H   UNL     1       9.127  -0.881  25.933  0.00  0.00    +0.292 HD
ENDBRANCH   3  16
BRANCH   5  18
ATOM     18  O   UNL     1       9.693  -0.989  21.104  0.00  0.00    -0.506 OA
ATOM     19  H   UNL     1       9.067  -1.710  21.281  0.00  0.00    +0.292 HD
ENDBRANCH   5  18
TORSDOF 4
ENDMDL
MODEL 7
REMARK VINA RESULT:      -6.1      1.555      3.083
REMARK  Name = 
REMARK  4 active torsions:
REMARK  status: ('A' for Active; 'I' for Inactive)
REMARK    1  A    between atoms: O_1  and  C_2
REMARK    2  A    between atoms: C_4  and  O_5
REMARK    3  A    between atoms: C_6  and  C_7
REMARK    4  A    between atoms: C_14  and  O_15
REMARK                            x       y       z     vdW  Elec       q    Type
REMARK                         _______ _______ _______ _____ _____    ______ ____
ROOT
ATOM      1  C   UNL     1       8.570   1.375  21.983  0.00  0.00    +0.124 A 
ATOM      2  C   UNL     1       9.534   0.429  21.661  0.00  0.00    +0.091 A 
ATOM      3  C   UNL     1       9.322  -0.906  22.003  0.00  0.00    +0.136 A 
ATOM      4  C   UNL     1       8.179  -1.296  22.721  0.00  0.00    +0.123 A 
ATOM      5  C   UNL     1       7.208  -0.327  23.009  0.00  0.00    +0.136 A 
ATOM      6  C   UNL     1       7.401   1.010  22.647  0.00  0.00    +0.091 A 
ENDROOT
BRANCH   4   7
ATOM      7  C   UNL     1       7.956  -2.730  23.017  0.00  0.00    +0.270 C 
ATOM      8  N   UNL     1       8.065  -3.366  24.275  0.00  0.00    -0.290 N 
ATOM      9  C   UNL     1       8.740  -2.936  25.407  0.00  0.00    +0.094 A 
ATOM     10  C   UNL     1       8.631  -3.896  26.392  0.00  0.00    +0.020 A 
ATOM     11  C   UNL     1       7.854  -4.950  25.871  0.00  0.00    +0.020 A 
ATOM     12  C   UNL     1       7.533  -4.612  24.577  0.00  0.00    +0.094 A 
ATOM     13  O   UNL     1       7.672  -3.449  22.052  0.00  0.00    -0.266 OA
ENDBRANCH   4   7
BRANCH   1  14
ATOM     14  O   UNL     1       8.791   2.663  21.590  0.00  0.00    -0.507 OA
ATOM     15  H   UNL     1       9.502   2.685  20.929  0.00  0.00    +0.292 HD
ENDBRANCH   1  14
BRANCH   3  16
ATOM     16  O   UNL     1      10.263  -1.800  21.562  0.00  0.00    -0.506 OA
ATOM     17  H   UNL     1      10.735  -2.150  22.349  0.00  0.00    +0.292 HD
ENDBRANCH   3  16
BRANCH   5  18
ATOM     18  O   UNL     1       6.028  -0.699  23.588  0.00  0.00    -0.506 OA
ATOM     19  H   UNL     1       5.334  -0.782  22.913  0.00  0.00    +0.292 HD
ENDBRANCH   5  18
TORSDOF 4
ENDMDL
MODEL 8
REMARK VINA RESULT:      -6.0      1.590      2.310
REMARK  Name = 
REMARK  4 active torsions:
REMARK  status: ('A' for Active; 'I' for Inactive)
REMARK    1  A    between atoms: O_1  and  C_2
REMARK    2  A    between atoms: C_4  and  O_5
REMARK    3  A    between atoms: C_6  and  C_7
REMARK    4  A    between atoms: C_14  and  O_15
REMARK                            x       y       z     vdW  Elec       q    Type
REMARK                         _______ _______ _______ _____ _____    ______ ____
ROOT
ATOM      1  C   UNL     1       8.575   1.448  21.926  0.00  0.00    +0.124 A 
ATOM      2  C   UNL     1       7.400   1.081  22.569  0.00  0.00    +0.091 A 
ATOM      3  C   UNL     1       7.189  -0.258  22.894  0.00  0.00    +0.136 A 
ATOM      4  C   UNL     1       8.117  -1.247  22.526  0.00  0.00    +0.123 A 
ATOM      5  C   UNL     1       9.306  -0.847  21.903  0.00  0.00    +0.136 A 
ATOM      6  C   UNL     1       9.538   0.498  21.596  0.00  0.00    +0.091 A 
ENDROOT
BRANCH   4   7
ATOM      7  C   UNL     1       7.890  -2.651  22.938  0.00  0.00    +0.270 C 
ATOM      8  N   UNL     1       8.005  -3.184  24.244  0.00  0.00    -0.290 N 
ATOM      9  C   UNL     1       8.690  -2.667  25.333  0.00  0.00    +0.094 A 
ATOM     10  C   UNL     1       8.583  -3.543  26.393  0.00  0.00    +0.020 A 
ATOM     11  C   UNL     1       7.798  -4.633  25.963  0.00  0.00    +0.020 A 
ATOM     12  C   UNL     1       7.471  -4.399  24.648  0.00  0.00    +0.094 A 
ATOM     13  O   UNL     1       7.597  -3.445  22.037  0.00  0.00    -0.266 OA
ENDBRANCH   4   7
BRANCH   1  14
ATOM     14  O   UNL     1       8.766   2.774  21.666  0.00  0.00    -0.507 OA
ATOM     15  H   UNL     1       9.671   3.027  21.912  0.00  0.00    +0.292 HD
ENDBRANCH   1  14
BRANCH   3  16
ATOM     16  O   UNL     1       6.059  -0.533  23.620  0.00  0.00    -0.506 OA
ATOM     17  H   UNL     1       5.322  -0.674  22.986  0.00  0.00    +0.292 HD
ENDBRANCH   3  16
BRANCH   5  18
ATOM     18  O   UNL     1      10.285  -1.768  21.653  0.00  0.00    -0.506 OA
ATOM     19  H   UNL     1       9.905  -2.662  21.623  0.00  0.00    +0.292 HD
ENDBRANCH   5  18
TORSDOF 4
ENDMDL
MODEL 9
REMARK VINA RESULT:      -5.9      2.469      5.336
REMARK  Name = 
REMARK  4 active torsions:
REMARK  status: ('A' for Active; 'I' for Inactive)
REMARK    1  A    between atoms: O_1  and  C_2
REMARK    2  A    between atoms: C_4  and  O_5
REMARK    3  A    between atoms: C_6  and  C_7
REMARK    4  A    between atoms: C_14  and  O_15
REMARK                            x       y       z     vdW  Elec       q    Type
REMARK                         _______ _______ _______ _____ _____    ______ ____
ROOT
ATOM      1  C   UNL     1       6.376  -4.962  21.636  0.00  0.00    +0.124 A 
ATOM      2  C   UNL     1       7.373  -5.481  22.451  0.00  0.00    +0.091 A 
ATOM      3  C   UNL     1       7.971  -4.661  23.407  0.00  0.00    +0.136 A 
ATOM      4  C   UNL     1       7.623  -3.304  23.515  0.00  0.00    +0.123 A 
ATOM      5  C   UNL     1       6.595  -2.811  22.701  0.00  0.00    +0.136 A 
ATOM      6  C   UNL     1       5.972  -3.634  21.756  0.00  0.00    +0.091 A 
ENDROOT
BRANCH   4   7
ATOM      7  C   UNL     1       8.234  -2.476  24.580  0.00  0.00    +0.270 C 
ATOM      8  N   UNL     1       9.109  -1.378  24.407  0.00  0.00    -0.290 N 
ATOM      9  C   UNL     1       9.882  -1.052  23.303  0.00  0.00    +0.094 A 
ATOM     10  C   UNL     1      10.629   0.072  23.589  0.00  0.00    +0.020 A 
ATOM     11  C   UNL     1      10.305   0.473  24.901  0.00  0.00    +0.020 A 
ATOM     12  C   UNL     1       9.390  -0.433  25.384  0.00  0.00    +0.094 A 
ATOM     13  O   UNL     1       7.972  -2.801  25.744  0.00  0.00    -0.266 OA
ENDBRANCH   4   7
BRANCH   1  14
ATOM     14  O   UNL     1       5.782  -5.807  20.745  0.00  0.00    -0.507 OA
ATOM     15  H   UNL     1       5.713  -5.373  19.879  0.00  0.00    +0.292 HD
ENDBRANCH   1  14
BRANCH   3  16
ATOM     16  O   UNL     1       8.870  -5.266  24.246  0.00  0.00    -0.506 OA
ATOM     17  H   UNL     1       8.377  -5.912  24.798  0.00  0.00    +0.292 HD
ENDBRANCH   3  16
BRANCH   5  18
ATOM     18  O   UNL     1       6.144  -1.533  22.874  0.00  0.00    -0.506 OA
ATOM     19  H   UNL     1       5.229  -1.454  22.557  0.00  0.00    +0.292 HD
ENDBRANCH   5  18
TORSDOF 4
ENDMDL
