MODEL 1
REMARK VINA RESULT:      -4.9      0.000      0.000
REMARK  Name = 
REMARK  3 active torsions:
REMARK  status: ('A' for Active; 'I' for Inactive)
REMARK    1  A    between atoms: O_1  and  C_2
REMARK    2  A    between atoms: C_10  and  O_12
REMARK    3  A    between atoms: C_13  and  O_15
REMARK                            x       y       z     vdW  Elec       q    Type
REMARK                         _______ _______ _______ _____ _____    ______ ____
ROOT
ATOM      1  C   UNL     1       9.815   1.541  23.916  0.00  0.00    +0.166 C 
ATOM      2  C   UNL     1       9.539   1.216  22.436  0.00  0.00    +0.180 C 
ATOM      3  C   UNL     1      10.088  -0.168  22.059  0.00  0.00    +0.211 C 
ATOM      4  C   UNL     1       9.797  -1.203  23.089  0.00  0.00    +0.141 A 
ATOM      5  N   UNL     1       9.447  -0.876  24.369  0.00  0.00    -0.330 N 
ATOM      6  C   UNL     1       9.284  -2.029  25.077  0.00  0.00    +0.107 A 
ATOM      7  C   UNL     1       9.540  -3.032  24.170  0.00  0.00    +0.130 A 
ATOM      8  N   UNL     1       9.850  -2.512  22.938  0.00  0.00    -0.238 NA
ATOM      9  C   UNL     1       9.214   0.473  24.834  0.00  0.00    +0.157 C 
ENDROOT
BRANCH   1  10
ATOM     10  O   UNL     1       9.213   2.796  24.265  0.00  0.00    -0.387 OA
ATOM     11  H   UNL     1       9.236   3.365  23.477  0.00  0.00    +0.210 HD
ENDBRANCH   1  10
BRANCH   2  12
ATOM     12  O   UNL     1      10.170   2.203  21.598  0.00  0.00    -0.386 OA
ATOM     13  H   UNL     1      11.075   1.868  21.436  0.00  0.00    +0.210 HD
ENDBRANCH   2  12
BRANCH   3  14
ATOM     14  O   UNL     1       9.479  -0.589  20.833  0.00  0.00    -0.381 OA
ATOM     15  H   UNL     1       8.570  -0.864  21.076  0.00  0.00    +0.210 HD
ENDBRANCH   3  14
TORSDOF 3
ENDMDL
MODEL 2
REMARK VINA RESULT:      -4.8      4.232      5.702
REMARK  Name = 
REMARK  3 active torsions:
REMARK  status: ('A' for Active; 'I' for Inactive)
REMARK    1  A    between atoms: O_1  and  C_2
REMARK    2  A    between atoms: C_10  and  O_12
REMARK    3  A    between atoms: C_13  and  O_15
REMARK                            x       y       z     vdW  Elec       q    Type
REMARK                         _______ _______ _______ _____ _____    ______ ____
ROOT
ATOM      1  C   UNL     1       7.765  -5.248  26.234  0.00  0.00    +0.166 C 
ATOM      2  C   UNL     1       9.096  -4.780  25.616  0.00  0.00    +0.180 C 
ATOM      3  C   UNL     1       8.858  -3.966  24.334  0.00  0.00    +0.211 C 
ATOM      4  C   UNL     1       7.745  -2.986  24.474  0.00  0.00    +0.141 A 
ATOM      5  N   UNL     1       6.810  -3.085  25.466  0.00  0.00    -0.330 N 
ATOM      6  C   UNL     1       5.910  -2.074  25.308  0.00  0.00    +0.107 A 
ATOM      7  C   UNL     1       6.354  -1.383  24.203  0.00  0.00    +0.130 A 
ATOM      8  N   UNL     1       7.497  -1.950  23.697  0.00  0.00    -0.238 NA
ATOM      9  C   UNL     1       6.851  -4.057  26.535  0.00  0.00    +0.157 C 
ENDROOT
BRANCH   1  10
ATOM     10  O   UNL     1       8.011  -5.925  27.475  0.00  0.00    -0.387 OA
ATOM     11  H   UNL     1       8.954  -5.816  27.690  0.00  0.00    +0.210 HD
ENDBRANCH   1  10
BRANCH   2  12
ATOM     12  O   UNL     1       9.906  -5.925  25.286  0.00  0.00    -0.386 OA
ATOM     13  H   UNL     1      10.654  -5.906  25.915  0.00  0.00    +0.210 HD
ENDBRANCH   2  12
BRANCH   3  14
ATOM     14  O   UNL     1      10.048  -3.233  24.024  0.00  0.00    -0.381 OA
ATOM     15  H   UNL     1      10.789  -3.842  24.227  0.00  0.00    +0.210 HD
ENDBRANCH   3  14
TORSDOF 3
ENDMDL
MODEL 3
REMARK VINA RESULT:      -4.8      4.146      5.469
REMARK  Name = 
REMARK  3 active torsions:
REMARK  status: ('A' for Active; 'I' for Inactive)
REMARK    1  A    between atoms: O_1  and  C_2
REMARK    2  A    between atoms: C_10  and  O_12
REMARK    3  A    between atoms: C_13  and  O_15
REMARK                            x       y       z     vdW  Elec       q    Type
REMARK                         _______ _______ _______ _____ _____    ______ ____
ROOT
ATOM      1  C   UNL     1       7.110  -3.849  26.319  0.00  0.00    +0.166 C 
ATOM      2  C   UNL     1       8.338  -4.777  26.382  0.00  0.00    +0.180 C 
ATOM      3  C   UNL     1       9.147  -4.720  25.076  0.00  0.00    +0.211 C 
ATOM      4  C   UNL     1       9.320  -3.330  24.568  0.00  0.00    +0.141 A 
ATOM      5  N   UNL     1       8.527  -2.299  24.987  0.00  0.00    -0.330 N 
ATOM      6  C   UNL     1       8.902  -1.172  24.319  0.00  0.00    +0.107 A 
ATOM      7  C   UNL     1       9.939  -1.577  23.510  0.00  0.00    +0.130 A 
ATOM      8  N   UNL     1      10.197  -2.915  23.676  0.00  0.00    -0.238 NA
ATOM      9  C   UNL     1       7.528  -2.405  26.027  0.00  0.00    +0.157 C 
ENDROOT
BRANCH   1  10
ATOM     10  O   UNL     1       6.427  -3.852  27.580  0.00  0.00    -0.387 OA
ATOM     11  H   UNL     1       6.936  -3.295  28.194  0.00  0.00    +0.210 HD
ENDBRANCH   1  10
BRANCH   2  12
ATOM     12  O   UNL     1       7.908  -6.135  26.594  0.00  0.00    -0.386 OA
ATOM     13  H   UNL     1       8.198  -6.628  25.800  0.00  0.00    +0.210 HD
ENDBRANCH   2  12
BRANCH   3  14
ATOM     14  O   UNL     1      10.450  -5.262  25.315  0.00  0.00    -0.381 OA
ATOM     15  H   UNL     1      10.301  -6.201  25.554  0.00  0.00    +0.210 HD
ENDBRANCH   3  14
TORSDOF 3
ENDMDL
MODEL 4
REMARK VINA RESULT:      -4.7      1.370      2.654
REMARK  Name = 
REMARK  3 active torsions:
REMARK  status: ('A' for Active; 'I' for Inactive)
REMARK    1  A    between atoms: O_1  and  C_2
REMARK    2  A    between atoms: C_10  and  O_12
REMARK    3  A    between atoms: C_13  and  O_15
REMARK                            x       y       z     vdW  Elec       q    Type
REMARK                         _______ _______ _______ _____ _____    ______ ____
ROOT
ATOM      1  C   UNL     1       9.413   1.476  22.289  0.00  0.00    +0.166 C 
ATOM      2  C   UNL     1       9.983   1.473  23.720  0.00  0.00    +0.180 C 
ATOM      3  C   UNL     1       9.210   0.500  24.625  0.00  0.00    +0.211 C 
ATOM      4  C   UNL     1       8.926  -0.802  23.960  0.00  0.00    +0.141 A 
ATOM      5  N   UNL     1       8.990  -0.954  22.603  0.00  0.00    -0.330 N 
ATOM      6  C   UNL     1       8.644  -2.237  22.300  0.00  0.00    +0.107 A 
ATOM      7  C   UNL     1       8.387  -2.824  23.517  0.00  0.00    +0.130 A 
ATOM      8  N   UNL     1       8.572  -1.930  24.542  0.00  0.00    -0.238 NA
ATOM      9  C   UNL     1       9.438   0.069  21.685  0.00  0.00    +0.157 C 
ENDROOT
BRANCH   1  10
ATOM     10  O   UNL     1      10.208   2.320  21.445  0.00  0.00    -0.387 OA
ATOM     11  H   UNL     1      10.745   2.893  22.019  0.00  0.00    +0.210 HD
ENDBRANCH   1  10
BRANCH   2  12
ATOM     12  O   UNL     1       9.887   2.795  24.283  0.00  0.00    -0.386 OA
ATOM     13  H   UNL     1       9.379   3.319  23.633  0.00  0.00    +0.210 HD
ENDBRANCH   2  12
BRANCH   3  14
ATOM     14  O   UNL     1       9.994   0.232  25.792  0.00  0.00    -0.381 OA
ATOM     15  H   UNL     1       9.516  -0.478  26.269  0.00  0.00    +0.210 HD
ENDBRANCH   3  14
TORSDOF 3
ENDMDL
MODEL 5
REMARK VINA RESULT:      -4.7      1.959      2.466
REMARK  Name = 
REMARK  3 active torsions:
REMARK  status: ('A' for Active; 'I' for Inactive)
REMARK    1  A    between atoms: O_1  and  C_2
REMARK    2  A    between atoms: C_10  and  O_12
REMARK    3  A    between atoms: C_13  and  O_15
REMARK                            x       y       z     vdW  Elec       q    Type
REMARK                         _______ _______ _______ _____ _____    ______ ____
ROOT
ATOM      1  C   UNL     1       9.352   0.975  21.755  0.00  0.00    +0.166 C 
ATOM      2  C   UNL     1       8.021   1.296  22.459  0.00  0.00    +0.180 C 
ATOM      3  C   UNL     1       7.207   0.018  22.720  0.00  0.00    +0.211 C 
ATOM      4  C   UNL     1       8.043  -1.101  23.236  0.00  0.00    +0.141 A 
ATOM      5  N   UNL     1       9.404  -1.110  23.109  0.00  0.00    -0.330 N 
ATOM      6  C   UNL     1       9.875  -2.273  23.640  0.00  0.00    +0.107 A 
ATOM      7  C   UNL     1       8.752  -2.932  24.085  0.00  0.00    +0.130 A 
ATOM      8  N   UNL     1       7.621  -2.195  23.838  0.00  0.00    -0.238 NA
ATOM      9  C   UNL     1      10.183  -0.015  22.576  0.00  0.00    +0.157 C 
ENDROOT
BRANCH   1  10
ATOM     10  O   UNL     1      10.131   2.170  21.607  0.00  0.00    -0.387 OA
ATOM     11  H   UNL     1      10.728   2.044  20.849  0.00  0.00    +0.210 HD
ENDBRANCH   1  10
BRANCH   2  12
ATOM     12  O   UNL     1       7.236   2.177  21.634  0.00  0.00    -0.386 OA
ATOM     13  H   UNL     1       7.874   2.809  21.246  0.00  0.00    +0.210 HD
ENDBRANCH   2  12
BRANCH   3  14
ATOM     14  O   UNL     1       6.203   0.301  23.700  0.00  0.00    -0.381 OA
ATOM     15  H   UNL     1       5.887   1.206  23.495  0.00  0.00    +0.210 HD
ENDBRANCH   3  14
TORSDOF 3
ENDMDL
MODEL 6
REMARK VINA RESULT:      -4.6      4.387      5.684
REMARK  Name = 
REMARK  3 active torsions:
REMARK  status: ('A' for Active; 'I' for Inactive)
REMARK    1  A    between atoms: O_1  and  C_2
REMARK    2  A    between atoms: C_10  and  O_12
REMARK    3  A    between atoms: C_13  and  O_15
REMARK                            x       y       z     vdW  Elec       q    Type
REMARK                         _______ _______ _______ _____ _____    ______ ____
ROOT
ATOM      1  C   UNL     1       7.707  -3.130  24.202  0.00  0.00    +0.166 C 
ATOM      2  C   UNL     1       8.939  -4.036  24.385  0.00  0.00    +0.180 C 
ATOM      3  C   UNL     1       9.070  -4.508  25.841  0.00  0.00    +0.211 C 
ATOM      4  C   UNL     1       7.769  -4.935  26.428  0.00  0.00    +0.141 A 
ATOM      5  N   UNL     1       6.571  -4.573  25.878  0.00  0.00    -0.330 N 
ATOM      6  C   UNL     1       5.573  -5.080  26.655  0.00  0.00    +0.107 A 
ATOM      7  C   UNL     1       6.226  -5.751  27.664  0.00  0.00    +0.130 A 
ATOM      8  N   UNL     1       7.587  -5.663  27.511  0.00  0.00    -0.238 NA
ATOM      9  C   UNL     1       6.427  -3.849  24.635  0.00  0.00    +0.157 C 
ENDROOT
BRANCH   1  10
ATOM     10  O   UNL     1       7.556  -2.779  22.818  0.00  0.00    -0.387 OA
ATOM     11  H   UNL     1       8.399  -2.967  22.371  0.00  0.00    +0.210 HD
ENDBRANCH   1  10
BRANCH   2  12
ATOM     12  O   UNL     1      10.131  -3.311  24.030  0.00  0.00    -0.386 OA
ATOM     13  H   UNL     1       9.891  -2.365  24.095  0.00  0.00    +0.210 HD
ENDBRANCH   2  12
BRANCH   3  14
ATOM     14  O   UNL     1       9.957  -5.631  25.886  0.00  0.00    -0.381 OA
ATOM     15  H   UNL     1       9.597  -6.273  25.238  0.00  0.00    +0.210 HD
ENDBRANCH   3  14
TORSDOF 3
ENDMDL
MODEL 7
REMARK VINA RESULT:      -4.6      1.751      1.820
REMARK  Name = 
REMARK  3 active torsions:
REMARK  status: ('A' for Active; 'I' for Inactive)
REMARK    1  A    between atoms: O_1  and  C_2
REMARK    2  A    between atoms: C_10  and  O_12
REMARK    3  A    between atoms: C_13  and  O_15
REMARK                            x       y       z     vdW  Elec       q    Type
REMARK                         _______ _______ _______ _____ _____    ______ ____
ROOT
ATOM      1  C   UNL     1       7.837   0.540  22.977  0.00  0.00    +0.166 C 
ATOM      2  C   UNL     1       8.876   0.075  21.939  0.00  0.00    +0.180 C 
ATOM      3  C   UNL     1       9.926  -0.848  22.578  0.00  0.00    +0.211 C 
ATOM      4  C   UNL     1       9.324  -1.856  23.496  0.00  0.00    +0.141 A 
ATOM      5  N   UNL     1       8.064  -1.713  24.005  0.00  0.00    -0.330 N 
ATOM      6  C   UNL     1       7.815  -2.767  24.833  0.00  0.00    +0.107 A 
ATOM      7  C   UNL     1       8.962  -3.526  24.782  0.00  0.00    +0.130 A 
ATOM      8  N   UNL     1       9.889  -2.959  23.944  0.00  0.00    -0.238 NA
ATOM      9  C   UNL     1       7.148  -0.657  23.637  0.00  0.00    +0.157 C 
ENDROOT
BRANCH   1  10
ATOM     10  O   UNL     1       6.819   1.323  22.337  0.00  0.00    -0.387 OA
ATOM     11  H   UNL     1       6.457   1.936  23.000  0.00  0.00    +0.210 HD
ENDBRANCH   1  10
BRANCH   2  12
ATOM     12  O   UNL     1       9.551   1.219  21.384  0.00  0.00    -0.386 OA
ATOM     13  H   UNL     1      10.297   0.856  20.866  0.00  0.00    +0.210 HD
ENDBRANCH   2  12
BRANCH   3  14
ATOM     14  O   UNL     1      10.611  -1.558  21.540  0.00  0.00    -0.381 OA
ATOM     15  H   UNL     1      10.434  -1.053  20.719  0.00  0.00    +0.210 HD
ENDBRANCH   3  14
TORSDOF 3
ENDMDL
MODEL 8
REMARK VINA RESULT:      -4.6      2.134      2.586
REMARK  Name = 
REMARK  3 active torsions:
REMARK  status: ('A' for Active; 'I' for Inactive)
REMARK    1  A    between atoms: O_1  and  C_2
REMARK    2  A    between atoms: C_10  and  O_12
REMARK    3  A    between atoms: C_13  and  O_15
REMARK                            x       y       z     vdW  Elec       q    Type
REMARK                         _______ _______ _______ _____ _____    ______ ____
ROOT
ATOM      1  C   UNL     1       6.825   1.842  23.025  0.00  0.00    +0.166 C 
ATOM      2  C   UNL     1       7.924   2.411  22.108  0.00  0.00    +0.180 C 
ATOM      3  C   UNL     1       9.321   1.981  22.583  0.00  0.00    +0.211 C 
ATOM      4  C   UNL     1       9.380   0.545  22.972  0.00  0.00    +0.141 A 
ATOM      5  N   UNL     1       8.255  -0.179  23.251  0.00  0.00    -0.330 N 
ATOM      6  C   UNL     1       8.634  -1.438  23.608  0.00  0.00    +0.107 A 
ATOM      7  C   UNL     1      10.007  -1.426  23.521  0.00  0.00    +0.130 A 
ATOM      8  N   UNL     1      10.462  -0.195  23.118  0.00  0.00    -0.238 NA
ATOM      9  C   UNL     1       6.905   0.315  23.096  0.00  0.00    +0.157 C 
ENDROOT
BRANCH   1  10
ATOM     10  O   UNL     1       5.530   2.180  22.508  0.00  0.00    -0.387 OA
ATOM     11  H   UNL     1       5.655   2.837  21.801  0.00  0.00    +0.210 HD
ENDBRANCH   1  10
BRANCH   2  12
ATOM     12  O   UNL     1       7.862   3.850  22.113  0.00  0.00    -0.386 OA
ATOM     13  H   UNL     1       8.733   4.150  21.787  0.00  0.00    +0.210 HD
ENDBRANCH   2  12
BRANCH   3  14
ATOM     14  O   UNL     1      10.255   2.183  21.516  0.00  0.00    -0.381 OA
ATOM     15  H   UNL     1       9.719   2.495  20.757  0.00  0.00    +0.210 HD
ENDBRANCH   3  14
TORSDOF 3
ENDMDL
MODEL 9
REMARK VINA RESULT:      -4.5      2.327      3.669
REMARK  Name = 
REMARK  3 active torsions:
REMARK  status: ('A' for Active; 'I' for Inactive)
REMARK    1  A    between atoms: O_1  and  C_2
REMARK    2  A    between atoms: C_10  and  O_12
REMARK    3  A    between atoms: C_13  and  O_15
REMARK                            x       y       z     vdW  Elec       q    Type
REMARK                         _______ _______ _______ _____ _____    ______ ____
ROOT
ATOM      1  C   UNL     1       8.631  -1.439  24.913  0.00  0.00    +0.166 C 
ATOM      2  C   UNL     1       9.282  -2.097  23.682  0.00  0.00    +0.180 C 
ATOM      3  C   UNL     1       9.273  -1.148  22.473  0.00  0.00    +0.211 C 
ATOM      4  C   UNL     1       9.659   0.245  22.833  0.00  0.00    +0.141 A 
ATOM      5  N   UNL     1       9.629   0.697  24.123  0.00  0.00    -0.330 N 
ATOM      6  C   UNL     1       9.996   2.009  24.125  0.00  0.00    +0.107 A 
ATOM      7  C   UNL     1      10.247   2.302  22.803  0.00  0.00    +0.130 A 
ATOM      8  N   UNL     1      10.043   1.200  22.010  0.00  0.00    -0.238 NA
ATOM      9  C   UNL     1       9.337  -0.129  25.272  0.00  0.00    +0.157 C 
ENDROOT
BRANCH   1  10
ATOM     10  O   UNL     1       8.735  -2.309  26.049  0.00  0.00    -0.387 OA
ATOM     11  H   UNL     1       8.292  -1.874  26.797  0.00  0.00    +0.210 HD
ENDBRANCH   1  10
BRANCH   2  12
ATOM     12  O   UNL     1       8.557  -3.291  23.331  0.00  0.00    -0.386 OA
ATOM     13  H   UNL     1       9.123  -3.761  22.686  0.00  0.00    +0.210 HD
ENDBRANCH   2  12
BRANCH   3  14
ATOM     14  O   UNL     1      10.213  -1.624  21.504  0.00  0.00    -0.381 OA
ATOM     15  H   UNL     1       9.752  -1.562  20.642  0.00  0.00    +0.210 HD
ENDBRANCH   3  14
TORSDOF 3
ENDMDL
