MODEL 1
REMARK VINA RESULT:      -3.3      0.000      0.000
REMARK  Name = 
REMARK  4 active torsions:
REMARK  status: ('A' for Active; 'I' for Inactive)
REMARK    1  A    between atoms: N_1  and  C_2
REMARK    2  A    between atoms: C_2  and  C_3
REMARK    3  A    between atoms: C_3  and  C_4
REMARK    4  A    between atoms: C_4  and  O_5
REMARK                            x       y       z     vdW  Elec       q    Type
REMARK                         _______ _______ _______ _____ _____    ______ ____
ROOT
ATOM      1  C   UNL     1      12.348   5.919  23.966  0.00  0.00    +0.135 C 
ENDROOT
BRANCH   1   2
ATOM      2  C   UNL     1      13.230   5.418  22.845  0.00  0.00    +0.306 C 
ATOM      3  O   UNL     1      12.901   5.459  21.668  0.00  0.00    -0.251 OA
BRANCH   2   4
ATOM      4  O   UNL     1      14.454   5.003  23.240  0.00  0.00    -0.481 OA
ATOM      5  H   UNL     1      14.619   5.224  24.193  0.00  0.00    +0.295 HD
ENDBRANCH   2   4
ENDBRANCH   1   2
BRANCH   1   6
ATOM      6  C   UNL     1      10.858   5.758  23.689  0.00  0.00    +0.089 C 
BRANCH   6   7
ATOM      7  N   UNL     1      10.550   4.373  23.299  0.00  0.00    -0.329 NA
ATOM      8  H   UNL     1      10.306   3.838  24.141  0.00  0.00    +0.118 HD
ATOM      9  H   UNL     1       9.683   4.381  22.752  0.00  0.00    +0.118 HD
ENDBRANCH   6   7
ENDBRANCH   1   6
TORSDOF 4
ENDMDL
MODEL 2
REMARK VINA RESULT:      -3.3     11.226     11.390
REMARK  Name = 
REMARK  4 active torsions:
REMARK  status: ('A' for Active; 'I' for Inactive)
REMARK    1  A    between atoms: N_1  and  C_2
REMARK    2  A    between atoms: C_2  and  C_3
REMARK    3  A    between atoms: C_3  and  C_4
REMARK    4  A    between atoms: C_4  and  O_5
REMARK                            x       y       z     vdW  Elec       q    Type
REMARK                         _______ _______ _______ _____ _____    ______ ____
ROOT
ATOM      1  C   UNL     1       8.713  -4.215  26.499  0.00  0.00    +0.135 C 
ENDROOT
BRANCH   1   2
ATOM      2  C   UNL     1       9.565  -4.811  25.403  0.00  0.00    +0.306 C 
ATOM      3  O   UNL     1      10.031  -4.150  24.485  0.00  0.00    -0.251 OA
BRANCH   2   4
ATOM      4  O   UNL     1       9.850  -6.122  25.566  0.00  0.00    -0.481 OA
ATOM      5  H   UNL     1       9.296  -6.524  26.284  0.00  0.00    +0.295 HD
ENDBRANCH   2   4
ENDBRANCH   1   2
BRANCH   1   6
ATOM      6  C   UNL     1       7.402  -4.958  26.725  0.00  0.00    +0.089 C 
BRANCH   6   7
ATOM      7  N   UNL     1       7.581  -6.039  27.708  0.00  0.00    -0.329 NA
ATOM      8  H   UNL     1       7.155  -5.752  28.598  0.00  0.00    +0.118 HD
ATOM      9  H   UNL     1       7.013  -6.839  27.410  0.00  0.00    +0.118 HD
ENDBRANCH   6   7
ENDBRANCH   1   6
TORSDOF 4
ENDMDL
MODEL 3
REMARK VINA RESULT:      -3.2     11.786     12.001
REMARK  Name = 
REMARK  4 active torsions:
REMARK  status: ('A' for Active; 'I' for Inactive)
REMARK    1  A    between atoms: N_1  and  C_2
REMARK    2  A    between atoms: C_2  and  C_3
REMARK    3  A    between atoms: C_3  and  C_4
REMARK    4  A    between atoms: C_4  and  O_5
REMARK                            x       y       z     vdW  Elec       q    Type
REMARK                         _______ _______ _______ _____ _____    ______ ____
ROOT
ATOM      1  C   UNL     1       8.474  -4.144  26.279  0.00  0.00    +0.135 C 
ENDROOT
BRANCH   1   2
ATOM      2  C   UNL     1       7.520  -5.285  26.551  0.00  0.00    +0.306 C 
ATOM      3  O   UNL     1       6.634  -5.613  25.775  0.00  0.00    -0.251 OA
BRANCH   2   4
ATOM      4  O   UNL     1       7.783  -5.976  27.683  0.00  0.00    -0.481 OA
ATOM      5  H   UNL     1       8.629  -6.488  27.603  0.00  0.00    +0.295 HD
ENDBRANCH   2   4
ENDBRANCH   1   2
BRANCH   1   6
ATOM      6  C   UNL     1       9.518  -4.461  25.215  0.00  0.00    +0.089 C 
BRANCH   6   7
ATOM      7  N   UNL     1       9.847  -5.896  25.223  0.00  0.00    -0.329 NA
ATOM      8  H   UNL     1      10.845  -6.008  25.012  0.00  0.00    +0.118 HD
ATOM      9  H   UNL     1       9.758  -6.238  26.186  0.00  0.00    +0.118 HD
ENDBRANCH   6   7
ENDBRANCH   1   6
TORSDOF 4
ENDMDL
MODEL 4
REMARK VINA RESULT:      -3.1      5.671      5.988
REMARK  Name = 
REMARK  4 active torsions:
REMARK  status: ('A' for Active; 'I' for Inactive)
REMARK    1  A    between atoms: N_1  and  C_2
REMARK    2  A    between atoms: C_2  and  C_3
REMARK    3  A    between atoms: C_3  and  C_4
REMARK    4  A    between atoms: C_4  and  O_5
REMARK                            x       y       z     vdW  Elec       q    Type
REMARK                         _______ _______ _______ _____ _____    ______ ____
ROOT
ATOM      1  C   UNL     1      10.311   0.438  23.046  0.00  0.00    +0.135 C 
ENDROOT
BRANCH   1   2
ATOM      2  C   UNL     1       9.701   1.260  21.934  0.00  0.00    +0.306 C 
ATOM      3  O   UNL     1       8.625   0.991  21.418  0.00  0.00    -0.251 OA
BRANCH   2   4
ATOM      4  O   UNL     1      10.398   2.373  21.614  0.00  0.00    -0.481 OA
ATOM      5  H   UNL     1      10.999   2.212  20.841  0.00  0.00    +0.295 HD
ENDBRANCH   2   4
ENDBRANCH   1   2
BRANCH   1   6
ATOM      6  C   UNL     1      10.082  -1.061  22.893  0.00  0.00    +0.089 C 
BRANCH   6   7
ATOM      7  N   UNL     1      10.124  -1.450  21.474  0.00  0.00    -0.329 NA
ATOM      8  H   UNL     1      10.151  -0.600  20.898  0.00  0.00    +0.118 HD
ATOM      9  H   UNL     1      11.027  -1.900  21.293  0.00  0.00    +0.118 HD
ENDBRANCH   6   7
ENDBRANCH   1   6
TORSDOF 4
ENDMDL
MODEL 5
REMARK VINA RESULT:      -3.0      5.953      6.287
REMARK  Name = 
REMARK  4 active torsions:
REMARK  status: ('A' for Active; 'I' for Inactive)
REMARK    1  A    between atoms: N_1  and  C_2
REMARK    2  A    between atoms: C_2  and  C_3
REMARK    3  A    between atoms: C_3  and  C_4
REMARK    4  A    between atoms: C_4  and  O_5
REMARK                            x       y       z     vdW  Elec       q    Type
REMARK                         _______ _______ _______ _____ _____    ______ ____
ROOT
ATOM      1  C   UNL     1       8.529   0.129  22.252  0.00  0.00    +0.135 C 
ENDROOT
BRANCH   1   2
ATOM      2  C   UNL     1       9.888  -0.520  22.389  0.00  0.00    +0.306 C 
ATOM      3  O   UNL     1      10.616  -0.347  23.357  0.00  0.00    -0.251 OA
BRANCH   2   4
ATOM      4  O   UNL     1      10.199  -1.382  21.395  0.00  0.00    -0.481 OA
ATOM      5  H   UNL     1      11.083  -1.806  21.551  0.00  0.00    +0.295 HD
ENDBRANCH   2   4
ENDBRANCH   1   2
BRANCH   1   6
ATOM      6  C   UNL     1       8.588   1.572  21.765  0.00  0.00    +0.089 C 
BRANCH   6   7
ATOM      7  N   UNL     1       9.983   1.992  21.556  0.00  0.00    -0.329 NA
ATOM      8  H   UNL     1      10.196   1.947  20.553  0.00  0.00    +0.118 HD
ATOM      9  H   UNL     1      10.052   2.991  21.779  0.00  0.00    +0.118 HD
ENDBRANCH   6   7
ENDBRANCH   1   6
TORSDOF 4
ENDMDL
MODEL 6
REMARK VINA RESULT:      -2.9     10.357     10.607
REMARK  Name = 
REMARK  4 active torsions:
REMARK  status: ('A' for Active; 'I' for Inactive)
REMARK    1  A    between atoms: N_1  and  C_2
REMARK    2  A    between atoms: C_2  and  C_3
REMARK    3  A    between atoms: C_3  and  C_4
REMARK    4  A    between atoms: C_4  and  O_5
REMARK                            x       y       z     vdW  Elec       q    Type
REMARK                         _______ _______ _______ _____ _____    ______ ____
ROOT
ATOM      1  C   UNL     1       8.212  -4.561  24.521  0.00  0.00    +0.135 C 
ENDROOT
BRANCH   1   2
ATOM      2  C   UNL     1       9.207  -4.861  25.618  0.00  0.00    +0.306 C 
ATOM      3  O   UNL     1       9.121  -4.392  26.745  0.00  0.00    -0.251 OA
BRANCH   2   4
ATOM      4  O   UNL     1      10.155  -5.764  25.282  0.00  0.00    -0.481 OA
ATOM      5  H   UNL     1      10.978  -5.316  24.954  0.00  0.00    +0.295 HD
ENDBRANCH   2   4
ENDBRANCH   1   2
BRANCH   1   6
ATOM      6  C   UNL     1       8.587  -3.354  23.669  0.00  0.00    +0.089 C 
BRANCH   6   7
ATOM      7  N   UNL     1       9.982  -2.957  23.919  0.00  0.00    -0.329 NA
ATOM      8  H   UNL     1      10.606  -3.617  23.440  0.00  0.00    +0.118 HD
ATOM      9  H   UNL     1      10.151  -2.065  23.441  0.00  0.00    +0.118 HD
ENDBRANCH   6   7
ENDBRANCH   1   6
TORSDOF 4
ENDMDL
MODEL 7
REMARK VINA RESULT:      -2.9      6.530      6.744
REMARK  Name = 
REMARK  4 active torsions:
REMARK  status: ('A' for Active; 'I' for Inactive)
REMARK    1  A    between atoms: N_1  and  C_2
REMARK    2  A    between atoms: C_2  and  C_3
REMARK    3  A    between atoms: C_3  and  C_4
REMARK    4  A    between atoms: C_4  and  O_5
REMARK                            x       y       z     vdW  Elec       q    Type
REMARK                         _______ _______ _______ _____ _____    ______ ____
ROOT
ATOM      1  C   UNL     1      10.258   0.231  23.064  0.00  0.00    +0.135 C 
ENDROOT
BRANCH   1   2
ATOM      2  C   UNL     1      10.227  -1.254  22.780  0.00  0.00    +0.306 C 
ATOM      3  O   UNL     1      10.132  -2.100  23.659  0.00  0.00    -0.251 OA
BRANCH   2   4
ATOM      4  O   UNL     1      10.220  -1.573  21.466  0.00  0.00    -0.481 OA
ATOM      5  H   UNL     1      10.706  -0.894  20.930  0.00  0.00    +0.295 HD
ENDBRANCH   2   4
ENDBRANCH   1   2
BRANCH   1   6
ATOM      6  C   UNL     1      10.958   0.588  24.369  0.00  0.00    +0.089 C 
BRANCH   6   7
ATOM      7  N   UNL     1      10.078   0.323  25.519  0.00  0.00    -0.329 NA
ATOM      8  H   UNL     1       9.939  -0.691  25.602  0.00  0.00    +0.118 HD
ATOM      9  H   UNL     1      10.586   0.573  26.374  0.00  0.00    +0.118 HD
ENDBRANCH   6   7
ENDBRANCH   1   6
TORSDOF 4
ENDMDL
MODEL 8
REMARK VINA RESULT:      -2.9      4.848      5.274
REMARK  Name = 
REMARK  4 active torsions:
REMARK  status: ('A' for Active; 'I' for Inactive)
REMARK    1  A    between atoms: N_1  and  C_2
REMARK    2  A    between atoms: C_2  and  C_3
REMARK    3  A    between atoms: C_3  and  C_4
REMARK    4  A    between atoms: C_4  and  O_5
REMARK                            x       y       z     vdW  Elec       q    Type
REMARK                         _______ _______ _______ _____ _____    ______ ____
ROOT
ATOM      1  C   UNL     1       8.862   1.349  23.294  0.00  0.00    +0.135 C 
ENDROOT
BRANCH   1   2
ATOM      2  C   UNL     1       9.718   1.141  22.066  0.00  0.00    +0.306 C 
ATOM      3  O   UNL     1       9.837   0.058  21.510  0.00  0.00    -0.251 OA
BRANCH   2   4
ATOM      4  O   UNL     1      10.272   2.271  21.572  0.00  0.00    -0.481 OA
ATOM      5  H   UNL     1       9.694   3.059  21.744  0.00  0.00    +0.295 HD
ENDBRANCH   2   4
ENDBRANCH   1   2
BRANCH   1   6
ATOM      6  C   UNL     1       9.645   1.295  24.600  0.00  0.00    +0.089 C 
BRANCH   6   7
ATOM      7  N   UNL     1      11.032   0.866  24.356  0.00  0.00    -0.329 NA
ATOM      8  H   UNL     1      11.475   0.650  25.256  0.00  0.00    +0.118 HD
ATOM      9  H   UNL     1      11.005  -0.038  23.871  0.00  0.00    +0.118 HD
ENDBRANCH   6   7
ENDBRANCH   1   6
TORSDOF 4
ENDMDL
MODEL 9
REMARK VINA RESULT:      -2.8      8.114      8.368
REMARK  Name = 
REMARK  4 active torsions:
REMARK  status: ('A' for Active; 'I' for Inactive)
REMARK    1  A    between atoms: N_1  and  C_2
REMARK    2  A    between atoms: C_2  and  C_3
REMARK    3  A    between atoms: C_3  and  C_4
REMARK    4  A    between atoms: C_4  and  O_5
REMARK                            x       y       z     vdW  Elec       q    Type
REMARK                         _______ _______ _______ _____ _____    ______ ____
ROOT
ATOM      1  C   UNL     1       9.706  -1.239  24.123  0.00  0.00    +0.135 C 
ENDROOT
BRANCH   1   2
ATOM      2  C   UNL     1       9.322  -2.692  23.957  0.00  0.00    +0.306 C 
ATOM      3  O   UNL     1      10.079  -3.617  24.216  0.00  0.00    -0.251 OA
BRANCH   2   4
ATOM      4  O   UNL     1       8.038  -2.892  23.585  0.00  0.00    -0.481 OA
ATOM      5  H   UNL     1       7.958  -3.669  22.973  0.00  0.00    +0.295 HD
ENDBRANCH   2   4
ENDBRANCH   1   2
BRANCH   1   6
ATOM      6  C   UNL     1      10.237  -0.598  22.846  0.00  0.00    +0.089 C 
BRANCH   6   7
ATOM      7  N   UNL     1      10.189  -1.554  21.728  0.00  0.00    -0.329 NA
ATOM      8  H   UNL     1       9.638  -2.372  22.015  0.00  0.00    +0.118 HD
ATOM      9  H   UNL     1       9.635  -1.136  20.973  0.00  0.00    +0.118 HD
ENDBRANCH   6   7
ENDBRANCH   1   6
TORSDOF 4
ENDMDL
