MODEL 1
REMARK VINA RESULT:      -4.5      0.000      0.000
REMARK  Name = 
REMARK  5 active torsions:
REMARK  status: ('A' for Active; 'I' for Inactive)
REMARK    1  A    between atoms: C_1  and  C_2
REMARK    2  A    between atoms: C_5  and  N_10
REMARK    3  A    between atoms: N_6  and  C_7
REMARK    4  A    between atoms: C_7  and  C_8
REMARK    5  A    between atoms: C_8  and  O_9
REMARK                            x       y       z     vdW  Elec       q    Type
REMARK                         _______ _______ _______ _____ _____    ______ ____
ROOT
ATOM      1  C   UNL     1       7.007  -5.448  22.253  0.00  0.00    +0.086 C 
ATOM      2  C   UNL     1       7.464  -5.327  23.664  0.00  0.00    +0.112 A 
ATOM      3  N   UNL     1       6.622  -5.256  24.767  0.00  0.00    -0.268 N 
ATOM      4  C   UNL     1       7.439  -5.169  25.869  0.00  0.00    +0.368 A 
ATOM      5  C   UNL     1       8.727  -5.196  25.398  0.00  0.00    +0.217 A 
ATOM      6  N   UNL     1       8.730  -5.281  24.034  0.00  0.00    -0.234 NA
ENDROOT
BRANCH   4   7
ATOM      7  N   UNL     1       7.025  -5.067  27.225  0.00  0.00    +0.100 N 
ATOM      8  O   UNL     1       6.419  -4.046  27.569  0.00  0.00    +0.043 OA
ATOM      9  O   UNL     1       7.324  -6.010  27.967  0.00  0.00    -0.575 OA
ENDBRANCH   4   7
BRANCH   3  10
ATOM     10  C   UNL     1       5.169  -5.330  24.708  0.00  0.00    +0.157 C 
BRANCH  10  11
ATOM     11  C   UNL     1       4.617  -6.703  25.084  0.00  0.00    +0.177 C 
BRANCH  11  12
ATOM     12  O   UNL     1       4.510  -7.543  23.938  0.00  0.00    -0.393 OA
ATOM     13  H   UNL     1       3.946  -8.302  24.174  0.00  0.00    +0.209 HD
ENDBRANCH  11  12
ENDBRANCH  10  11
ENDBRANCH   3  10
TORSDOF 4
ENDMDL
MODEL 2
REMARK VINA RESULT:      -4.4      4.444      5.463
REMARK  Name = 
REMARK  5 active torsions:
REMARK  status: ('A' for Active; 'I' for Inactive)
REMARK    1  A    between atoms: C_1  and  C_2
REMARK    2  A    between atoms: C_5  and  N_10
REMARK    3  A    between atoms: N_6  and  C_7
REMARK    4  A    between atoms: C_7  and  C_8
REMARK    5  A    between atoms: C_8  and  O_9
REMARK                            x       y       z     vdW  Elec       q    Type
REMARK                         _______ _______ _______ _____ _____    ______ ____
ROOT
ATOM      1  C   UNL     1       9.613   0.633  24.854  0.00  0.00    +0.086 C 
ATOM      2  C   UNL     1       9.232  -0.769  25.179  0.00  0.00    +0.112 A 
ATOM      3  N   UNL     1       9.456  -1.863  24.352  0.00  0.00    -0.268 N 
ATOM      4  C   UNL     1       8.973  -2.960  25.027  0.00  0.00    +0.368 A 
ATOM      5  C   UNL     1       8.488  -2.494  26.222  0.00  0.00    +0.217 A 
ATOM      6  N   UNL     1       8.641  -1.139  26.299  0.00  0.00    -0.234 NA
ENDROOT
BRANCH   4   7
ATOM      7  N   UNL     1       8.977  -4.306  24.569  0.00  0.00    +0.100 N 
ATOM      8  O   UNL     1       7.996  -4.700  23.928  0.00  0.00    +0.043 OA
ATOM      9  O   UNL     1       9.963  -4.989  24.868  0.00  0.00    -0.575 OA
ENDBRANCH   4   7
BRANCH   3  10
ATOM     10  C   UNL     1      10.133  -1.806  23.064  0.00  0.00    +0.157 C 
BRANCH  10  11
ATOM     11  C   UNL     1       9.177  -1.676  21.881  0.00  0.00    +0.177 C 
BRANCH  11  12
ATOM     12  O   UNL     1       9.560  -0.600  21.030  0.00  0.00    -0.393 OA
ATOM     13  H   UNL     1       8.779  -0.338  20.508  0.00  0.00    +0.209 HD
ENDBRANCH  11  12
ENDBRANCH  10  11
ENDBRANCH   3  10
TORSDOF 4
ENDMDL
MODEL 3
REMARK VINA RESULT:      -4.4      2.637      4.257
REMARK  Name = 
REMARK  5 active torsions:
REMARK  status: ('A' for Active; 'I' for Inactive)
REMARK    1  A    between atoms: C_1  and  C_2
REMARK    2  A    between atoms: C_5  and  N_10
REMARK    3  A    between atoms: N_6  and  C_7
REMARK    4  A    between atoms: C_7  and  C_8
REMARK    5  A    between atoms: C_8  and  O_9
REMARK                            x       y       z     vdW  Elec       q    Type
REMARK                         _______ _______ _______ _____ _____    ______ ____
ROOT
ATOM      1  C   UNL     1       9.866  -1.348  24.186  0.00  0.00    +0.086 C 
ATOM      2  C   UNL     1       8.854  -2.254  23.577  0.00  0.00    +0.112 A 
ATOM      3  N   UNL     1       8.680  -3.591  23.915  0.00  0.00    -0.268 N 
ATOM      4  C   UNL     1       7.644  -4.052  23.140  0.00  0.00    +0.368 A 
ATOM      5  C   UNL     1       7.231  -2.989  22.376  0.00  0.00    +0.217 A 
ATOM      6  N   UNL     1       7.994  -1.889  22.646  0.00  0.00    -0.234 NA
ENDROOT
BRANCH   4   7
ATOM      7  N   UNL     1       7.111  -5.370  23.132  0.00  0.00    +0.100 N 
ATOM      8  O   UNL     1       6.293  -5.667  24.009  0.00  0.00    +0.043 OA
ATOM      9  O   UNL     1       7.530  -6.130  22.251  0.00  0.00    -0.575 OA
ENDBRANCH   4   7
BRANCH   3  10
ATOM     10  C   UNL     1       9.436  -4.292  24.945  0.00  0.00    +0.157 C 
BRANCH  10  11
ATOM     11  C   UNL     1       8.675  -4.441  26.259  0.00  0.00    +0.177 C 
BRANCH  11  12
ATOM     12  O   UNL     1       8.261  -5.789  26.461  0.00  0.00    -0.393 OA
ATOM     13  H   UNL     1       8.944  -6.373  26.081  0.00  0.00    +0.209 HD
ENDBRANCH  11  12
ENDBRANCH  10  11
ENDBRANCH   3  10
TORSDOF 4
ENDMDL
MODEL 4
REMARK VINA RESULT:      -4.4      3.082      4.226
REMARK  Name = 
REMARK  5 active torsions:
REMARK  status: ('A' for Active; 'I' for Inactive)
REMARK    1  A    between atoms: C_1  and  C_2
REMARK    2  A    between atoms: C_5  and  N_10
REMARK    3  A    between atoms: N_6  and  C_7
REMARK    4  A    between atoms: C_7  and  C_8
REMARK    5  A    between atoms: C_8  and  O_9
REMARK                            x       y       z     vdW  Elec       q    Type
REMARK                         _______ _______ _______ _____ _____    ______ ____
ROOT
ATOM      1  C   UNL     1       6.074  -5.600  23.508  0.00  0.00    +0.086 C 
ATOM      2  C   UNL     1       6.885  -4.384  23.229  0.00  0.00    +0.112 A 
ATOM      3  N   UNL     1       8.102  -4.086  23.831  0.00  0.00    -0.268 N 
ATOM      4  C   UNL     1       8.518  -2.895  23.287  0.00  0.00    +0.368 A 
ATOM      5  C   UNL     1       7.554  -2.524  22.384  0.00  0.00    +0.217 A 
ATOM      6  N   UNL     1       6.544  -3.444  22.367  0.00  0.00    -0.234 NA
ENDROOT
BRANCH   4   7
ATOM      7  N   UNL     1       9.712  -2.190  23.603  0.00  0.00    +0.100 N 
ATOM      8  O   UNL     1       9.711  -1.478  24.614  0.00  0.00    +0.043 OA
ATOM      9  O   UNL     1      10.660  -2.330  22.823  0.00  0.00    -0.575 OA
ENDBRANCH   4   7
BRANCH   3  10
ATOM     10  C   UNL     1       8.783  -4.942  24.793  0.00  0.00    +0.157 C 
BRANCH  10  11
ATOM     11  C   UNL     1       8.411  -4.640  26.242  0.00  0.00    +0.177 C 
BRANCH  11  12
ATOM     12  O   UNL     1       8.146  -5.840  26.963  0.00  0.00    -0.393 OA
ATOM     13  H   UNL     1       8.636  -6.564  26.531  0.00  0.00    +0.209 HD
ENDBRANCH  11  12
ENDBRANCH  10  11
ENDBRANCH   3  10
TORSDOF 4
ENDMDL
MODEL 5
REMARK VINA RESULT:      -4.3      2.340      3.442
REMARK  Name = 
REMARK  5 active torsions:
REMARK  status: ('A' for Active; 'I' for Inactive)
REMARK    1  A    between atoms: C_1  and  C_2
REMARK    2  A    between atoms: C_5  and  N_10
REMARK    3  A    between atoms: N_6  and  C_7
REMARK    4  A    between atoms: C_7  and  C_8
REMARK    5  A    between atoms: C_8  and  O_9
REMARK                            x       y       z     vdW  Elec       q    Type
REMARK                         _______ _______ _______ _____ _____    ______ ____
ROOT
ATOM      1  C   UNL     1       7.848  -5.312  26.617  0.00  0.00    +0.086 C 
ATOM      2  C   UNL     1       7.614  -5.046  25.171  0.00  0.00    +0.112 A 
ATOM      3  N   UNL     1       6.372  -5.081  24.549  0.00  0.00    -0.268 N 
ATOM      4  C   UNL     1       6.593  -4.765  23.230  0.00  0.00    +0.368 A 
ATOM      5  C   UNL     1       7.942  -4.547  23.106  0.00  0.00    +0.217 A 
ATOM      6  N   UNL     1       8.563  -4.737  24.308  0.00  0.00    -0.234 NA
ENDROOT
BRANCH   4   7
ATOM      7  N   UNL     1       5.615  -4.684  22.202  0.00  0.00    +0.100 N 
ATOM      8  O   UNL     1       5.222  -3.562  21.866  0.00  0.00    +0.043 OA
ATOM      9  O   UNL     1       5.215  -5.756  21.733  0.00  0.00    -0.575 OA
ENDBRANCH   4   7
BRANCH   3  10
ATOM     10  C   UNL     1       5.110  -5.343  25.228  0.00  0.00    +0.157 C 
BRANCH  10  11
ATOM     11  C   UNL     1       4.772  -6.828  25.328  0.00  0.00    +0.177 C 
BRANCH  11  12
ATOM     12  O   UNL     1       4.482  -7.375  24.045  0.00  0.00    -0.393 OA
ATOM     13  H   UNL     1       5.157  -7.051  23.421  0.00  0.00    +0.209 HD
ENDBRANCH  11  12
ENDBRANCH  10  11
ENDBRANCH   3  10
TORSDOF 4
ENDMDL
MODEL 6
REMARK VINA RESULT:      -4.3      5.598      6.719
REMARK  Name = 
REMARK  5 active torsions:
REMARK  status: ('A' for Active; 'I' for Inactive)
REMARK    1  A    between atoms: C_1  and  C_2
REMARK    2  A    between atoms: C_5  and  N_10
REMARK    3  A    between atoms: N_6  and  C_7
REMARK    4  A    between atoms: C_7  and  C_8
REMARK    5  A    between atoms: C_8  and  O_9
REMARK                            x       y       z     vdW  Elec       q    Type
REMARK                         _______ _______ _______ _____ _____    ______ ____
ROOT
ATOM      1  C   UNL     1      10.968   0.751  24.557  0.00  0.00    +0.086 C 
ATOM      2  C   UNL     1       9.855  -0.234  24.490  0.00  0.00    +0.112 A 
ATOM      3  N   UNL     1       9.268  -0.689  23.315  0.00  0.00    -0.268 N 
ATOM      4  C   UNL     1       8.302  -1.592  23.693  0.00  0.00    +0.368 A 
ATOM      5  C   UNL     1       8.345  -1.653  25.062  0.00  0.00    +0.217 A 
ATOM      6  N   UNL     1       9.298  -0.801  25.544  0.00  0.00    -0.234 NA
ENDROOT
BRANCH   4   7
ATOM      7  N   UNL     1       7.432  -2.313  22.830  0.00  0.00    +0.100 N 
ATOM      8  O   UNL     1       6.298  -1.860  22.643  0.00  0.00    +0.043 OA
ATOM      9  O   UNL     1       7.878  -3.359  22.344  0.00  0.00    -0.575 OA
ENDBRANCH   4   7
BRANCH   3  10
ATOM     10  C   UNL     1       9.682  -0.299  21.975  0.00  0.00    +0.157 C 
BRANCH  10  11
ATOM     11  C   UNL     1       8.974   0.952  21.461  0.00  0.00    +0.177 C 
BRANCH  11  12
ATOM     12  O   UNL     1       9.858   2.069  21.441  0.00  0.00    -0.393 OA
ATOM     13  H   UNL     1      10.117   2.263  22.361  0.00  0.00    +0.209 HD
ENDBRANCH  11  12
ENDBRANCH  10  11
ENDBRANCH   3  10
TORSDOF 4
ENDMDL
MODEL 7
REMARK VINA RESULT:      -4.3      2.072      3.144
REMARK  Name = 
REMARK  5 active torsions:
REMARK  status: ('A' for Active; 'I' for Inactive)
REMARK    1  A    between atoms: C_1  and  C_2
REMARK    2  A    between atoms: C_5  and  N_10
REMARK    3  A    between atoms: N_6  and  C_7
REMARK    4  A    between atoms: C_7  and  C_8
REMARK    5  A    between atoms: C_8  and  O_9
REMARK                            x       y       z     vdW  Elec       q    Type
REMARK                         _______ _______ _______ _____ _____    ______ ____
ROOT
ATOM      1  C   UNL     1       4.715  -6.299  25.197  0.00  0.00    +0.086 C 
ATOM      2  C   UNL     1       6.060  -5.787  25.577  0.00  0.00    +0.112 A 
ATOM      3  N   UNL     1       6.920  -5.107  24.724  0.00  0.00    -0.268 N 
ATOM      4  C   UNL     1       8.035  -4.800  25.466  0.00  0.00    +0.368 A 
ATOM      5  C   UNL     1       7.808  -5.294  26.725  0.00  0.00    +0.217 A 
ATOM      6  N   UNL     1       6.591  -5.912  26.778  0.00  0.00    -0.234 NA
ENDROOT
BRANCH   4   7
ATOM      7  N   UNL     1       9.192  -4.110  25.012  0.00  0.00    +0.100 N 
ATOM      8  O   UNL     1      10.191  -4.781  24.732  0.00  0.00    +0.043 OA
ATOM      9  O   UNL     1       9.113  -2.877  24.951  0.00  0.00    -0.575 OA
ENDBRANCH   4   7
BRANCH   3  10
ATOM     10  C   UNL     1       6.615  -4.759  23.342  0.00  0.00    +0.157 C 
BRANCH  10  11
ATOM     11  C   UNL     1       7.192  -5.742  22.328  0.00  0.00    +0.177 C 
BRANCH  11  12
ATOM     12  O   UNL     1       6.249  -6.761  22.008  0.00  0.00    -0.393 OA
ATOM     13  H   UNL     1       6.735  -7.505  21.608  0.00  0.00    +0.209 HD
ENDBRANCH  11  12
ENDBRANCH  10  11
ENDBRANCH   3  10
TORSDOF 4
ENDMDL
MODEL 8
REMARK VINA RESULT:      -4.3      7.492      8.405
REMARK  Name = 
REMARK  5 active torsions:
REMARK  status: ('A' for Active; 'I' for Inactive)
REMARK    1  A    between atoms: C_1  and  C_2
REMARK    2  A    between atoms: C_5  and  N_10
REMARK    3  A    between atoms: N_6  and  C_7
REMARK    4  A    between atoms: C_7  and  C_8
REMARK    5  A    between atoms: C_8  and  O_9
REMARK                            x       y       z     vdW  Elec       q    Type
REMARK                         _______ _______ _______ _____ _____    ______ ____
ROOT
ATOM      1  C   UNL     1       9.390  -1.464  22.063  0.00  0.00    +0.086 C 
ATOM      2  C   UNL     1       9.894  -0.344  22.904  0.00  0.00    +0.112 A 
ATOM      3  N   UNL     1       9.769   1.004  22.589  0.00  0.00    -0.268 N 
ATOM      4  C   UNL     1      10.346   1.696  23.626  0.00  0.00    +0.368 A 
ATOM      5  C   UNL     1      10.788   0.754  24.521  0.00  0.00    +0.217 A 
ATOM      6  N   UNL     1      10.515  -0.502  24.058  0.00  0.00    -0.234 NA
ENDROOT
BRANCH   4   7
ATOM      7  N   UNL     1      10.463   3.108  23.742  0.00  0.00    +0.100 N 
ATOM      8  O   UNL     1      11.514   3.634  23.359  0.00  0.00    +0.043 OA
ATOM      9  O   UNL     1       9.500   3.704  24.240  0.00  0.00    -0.575 OA
ENDBRANCH   4   7
BRANCH   3  10
ATOM     10  C   UNL     1       9.089   1.520  21.409  0.00  0.00    +0.157 C 
BRANCH  10  11
ATOM     11  C   UNL     1       7.697   2.072  21.703  0.00  0.00    +0.177 C 
BRANCH  11  12
ATOM     12  O   UNL     1       7.730   3.488  21.861  0.00  0.00    -0.393 OA
ATOM     13  H   UNL     1       8.461   3.705  22.467  0.00  0.00    +0.209 HD
ENDBRANCH  11  12
ENDBRANCH  10  11
ENDBRANCH   3  10
TORSDOF 4
ENDMDL
MODEL 9
REMARK VINA RESULT:      -4.3      2.215      3.561
REMARK  Name = 
REMARK  5 active torsions:
REMARK  status: ('A' for Active; 'I' for Inactive)
REMARK    1  A    between atoms: C_1  and  C_2
REMARK    2  A    between atoms: C_5  and  N_10
REMARK    3  A    between atoms: N_6  and  C_7
REMARK    4  A    between atoms: C_7  and  C_8
REMARK    5  A    between atoms: C_8  and  O_9
REMARK                            x       y       z     vdW  Elec       q    Type
REMARK                         _______ _______ _______ _____ _____    ______ ____
ROOT
ATOM      1  C   UNL     1       4.438  -4.351  24.838  0.00  0.00    +0.086 C 
ATOM      2  C   UNL     1       5.823  -4.411  24.298  0.00  0.00    +0.112 A 
ATOM      3  N   UNL     1       6.975  -4.183  25.041  0.00  0.00    -0.268 N 
ATOM      4  C   UNL     1       8.030  -4.352  24.177  0.00  0.00    +0.368 A 
ATOM      5  C   UNL     1       7.485  -4.677  22.961  0.00  0.00    +0.217 A 
ATOM      6  N   UNL     1       6.121  -4.697  23.045  0.00  0.00    -0.234 NA
ENDROOT
BRANCH   4   7
ATOM      7  N   UNL     1       9.411  -4.212  24.487  0.00  0.00    +0.100 N 
ATOM      8  O   UNL     1       9.948  -5.111  25.143  0.00  0.00    +0.043 OA
ATOM      9  O   UNL     1       9.966  -3.182  24.088  0.00  0.00    -0.575 OA
ENDBRANCH   4   7
BRANCH   3  10
ATOM     10  C   UNL     1       6.998  -3.892  26.468  0.00  0.00    +0.157 C 
BRANCH  10  11
ATOM     11  C   UNL     1       6.897  -5.138  27.343  0.00  0.00    +0.177 C 
BRANCH  11  12
ATOM     12  O   UNL     1       8.139  -5.836  27.385  0.00  0.00    -0.393 OA
ATOM     13  H   UNL     1       8.591  -5.595  28.214  0.00  0.00    +0.209 HD
ENDBRANCH  11  12
ENDBRANCH  10  11
ENDBRANCH   3  10
TORSDOF 4
ENDMDL
