MODEL 1
REMARK VINA RESULT:      -4.3      0.000      0.000
REMARK  Name = 
REMARK  33 active torsions:
REMARK  status: ('A' for Active; 'I' for Inactive)
REMARK    1  A    between atoms: C_1  and  O_2
REMARK    2  A    between atoms: O_2  and  C_3
REMARK    3  A    between atoms: C_3  and  C_5
REMARK    4  A    between atoms: C_3  and  C_59
REMARK    5  A    between atoms: C_5  and  C_6
REMARK    6  A    between atoms: C_12  and  O_54
REMARK    7  A    between atoms: C_15  and  C_17
REMARK    8  A    between atoms: C_19  and  O_21
REMARK    9  A    between atoms: C_22  and  C_24
REMARK   10  A    between atoms: C_25  and  O_27
REMARK   11  A    between atoms: O_27  and  C_28
REMARK   12  A    between atoms: C_46  and  O_48
REMARK   13  A    between atoms: O_48  and  C_49
REMARK   14  A    between atoms: C_50  and  C_52
REMARK   15  A    between atoms: O_54  and  C_55
REMARK   16  A    between atoms: C_55  and  N_57
REMARK   17  A    between atoms: C_55  and  O_58
REMARK   18  A    between atoms: C_59  and  C_61
REMARK   19  A    between atoms: C_59  and  C_62
REMARK   20  A    between atoms: C_62  and  C_63
REMARK   21  A    between atoms: C_63  and  C_64
REMARK   22  A    between atoms: C_64  and  C_66
REMARK   23  A    between atoms: C_66  and  C_68
REMARK   24  A    between atoms: C_66  and  C_69
REMARK   25  A    between atoms: C_69  and  O_71
REMARK   26  A    between atoms: C_69  and  C_73
REMARK   27  A    between atoms: O_71  and  C_72
REMARK   28  A    between atoms: C_73  and  C_75
REMARK   29  A    between atoms: C_73  and  C_76
REMARK   30  A    between atoms: C_77  and  N_78
REMARK   31  A    between atoms: N_78  and  C_79
REMARK   32  A    between atoms: N_78  and  C_80
REMARK   33  A    between atoms: C_80  and  O_81
REMARK                            x       y       z     vdW  Elec       q    Type
REMARK                         _______ _______ _______ _____ _____    ______ ____
ROOT
ATOM      1  C   UNL     1       6.220  -3.172  23.504  0.00  0.00    +0.184 C 
ATOM      2  C   UNL     1       6.207  -1.329  24.300  0.00  0.00    +0.056 C 
ATOM      3  C   UNL     1       5.102  -1.616  25.299  0.00  0.00    +0.014 C 
ATOM      4  C   UNL     1       6.394   0.664  24.158  0.00  0.00    +0.128 C 
ATOM      5  C   UNL     1       7.246   2.107  25.124  0.00  0.00    +0.059 C 
ATOM      6  C   UNL     1       7.083   3.822  25.652  0.00  0.00    -0.019 C 
ATOM      7  C   UNL     1       6.898   5.145  26.093  0.00  0.00    +0.063 C 
ATOM      8  C   UNL     1       5.882   5.615  27.057  0.00  0.00    +0.220 A 
ATOM      9  N   UNL     1       5.028   4.772  27.556  0.00  0.00    -0.205 NA
ATOM     10  C   UNL     1       4.245   5.416  28.467  0.00  0.00    +0.164 A 
ATOM     11  C   UNL     1       4.561   6.741  28.510  0.00  0.00    +0.230 A 
ATOM     12  C   UNL     1       3.317   4.521  29.171  0.00  0.00    +0.250 A 
ATOM     13  N   UNL     1       3.381   3.257  28.805  0.00  0.00    -0.203 NA
ATOM     14  C   UNL     1       2.554   2.614  29.639  0.00  0.00    +0.164 A 
ATOM     15  C   UNL     1       1.950   3.506  30.482  0.00  0.00    +0.230 A 
ATOM     16  C   UNL     1       2.382   1.162  29.595  0.00  0.00    +0.249 A 
ATOM     17  N   UNL     1       2.980   0.384  28.706  0.00  0.00    -0.210 NA
ATOM     18  C   UNL     1       2.519  -0.856  29.017  0.00  0.00    +0.109 A 
ATOM     19  C   UNL     1       1.694  -0.787  30.111  0.00  0.00    +0.223 A 
ATOM     20  C   UNL     1       2.944  -2.085  28.312  0.00  0.00    +0.175 C 
ATOM     21  C   UNL     1       1.805  -2.561  27.390  0.00  0.00    +0.049 C 
ATOM     22  C   UNL     1       0.481  -2.860  28.094  0.00  0.00    +0.013 C 
ATOM     23  C   UNL     1       2.252  -3.774  26.598  0.00  0.00    +0.120 C 
ATOM     24  C   UNL     1       1.173  -4.201  25.588  0.00  0.00    +0.035 C 
ATOM     25  C   UNL     1       1.848  -5.097  24.583  0.00  0.00    -0.009 C 
ATOM     26  C   UNL     1       2.700  -4.111  23.837  0.00  0.00    +0.007 C 
ATOM     27  C   UNL     1       0.955  -5.814  23.610  0.00  0.00    +0.035 C 
ATOM     28  C   UNL     1       1.728  -6.858  22.735  0.00  0.00    +0.134 C 
ATOM     29  C   UNL     1       3.101  -6.296  21.944  0.00  0.00    +0.152 C 
ATOM     30  C   UNL     1       4.418  -5.645  22.786  0.00  0.00    +0.310 C 
ATOM     31  O   UNL     1       4.696  -6.392  23.730  0.00  0.00    -0.251 OA
ATOM     32  O   UNL     1       1.585   0.499  30.482  0.00  0.00    -0.442 OA
ATOM     33  O   UNL     1       2.436   4.758  30.195  0.00  0.00    -0.442 OA
ATOM     34  O   UNL     1       5.624   6.911  27.611  0.00  0.00    -0.443 OA
ATOM     35  O   UNL     1       4.988  -4.166  22.627  0.00  0.00    -0.461 OA
ENDROOT
BRANCH  20  36
ATOM     36  O   UNL     1       3.309  -3.093  29.258  0.00  0.00    -0.373 OA
ATOM     37  C   UNL     1       4.716  -3.093  29.469  0.00  0.00    +0.194 C 
ENDBRANCH  20  36
BRANCH   4  38
ATOM     38  O   UNL     1       5.504   1.403  23.211  0.00  0.00    -0.379 OA
ATOM     39  C   UNL     1       5.857   2.725  22.691  0.00  0.00    +0.194 C 
ENDBRANCH   4  38
BRANCH  23  40
ATOM     40  O   UNL     1       2.614  -4.906  27.375  0.00  0.00    -0.391 OA
ATOM     41  H   UNL     1       1.945  -5.595  27.254  0.00  0.00    +0.210 HD
ENDBRANCH  23  40
BRANCH  28  42
ATOM     42  O   UNL     1       0.644  -7.300  21.853  0.00  0.00    -0.335 OA
BRANCH  42  43
ATOM     43  C   UNL     1       0.543  -8.646  21.441  0.00  0.00    +0.323 C 
BRANCH  43  44
ATOM     44  N   UNL     1       1.554  -8.977  20.488  0.00  0.00    -0.283 NA
ATOM     45  H   UNL     1       2.145  -9.668  20.938  0.00  0.00    +0.123 HD
ATOM     46  H   UNL     1       1.115  -9.422  19.688  0.00  0.00    +0.123 HD
ENDBRANCH  43  44
BRANCH  43  47
ATOM     47  O   UNL     1       0.600  -9.578  22.487  0.00  0.00    -0.355 OA
ATOM     48  H   UNL     1      -0.320  -9.821  22.675  0.00  0.00    +0.214 HD
ENDBRANCH  43  47
ENDBRANCH  42  43
ENDBRANCH  28  42
BRANCH   1  49
ATOM     49  C   UNL     1       6.530  -4.395  24.650  0.00  0.00    +0.076 C 
BRANCH  49  50
ATOM     50  C   UNL     1       6.670  -4.343  26.312  0.00  0.00    +0.124 C 
BRANCH  50  52
ATOM     51  C   UNL     1       6.055  -5.644  28.165  0.00  0.00    +0.194 C 
ATOM     52  O   UNL     1       6.767  -5.620  26.961  0.00  0.00    -0.379 OA
ENDBRANCH  50  52
BRANCH  50  53
ATOM     53  C   UNL     1       7.930  -3.377  26.750  0.00  0.00    +0.015 C 
ATOM     54  C   UNL     1       7.573  -1.981  27.323  0.00  0.00    +0.010 C 
BRANCH  53  55
ATOM     55  C   UNL     1       9.120  -3.249  25.739  0.00  0.00    +0.013 C 
BRANCH  55  56
ATOM     56  C   UNL     1       9.535  -1.818  25.339  0.00  0.00    +0.075 C 
BRANCH  56  57
ATOM     57  C   UNL     1      10.165  -1.658  23.946  0.00  0.00    +0.139 C 
ATOM     58  O   UNL     1      10.154  -2.551  23.099  0.00  0.00    -0.297 OA
BRANCH  57  59
ATOM     59  C   UNL     1      10.743  -0.267  23.644  0.00  0.00    +0.081 C 
ATOM     60  C   UNL     1      10.592   0.620  24.881  0.00  0.00    +0.018 C 
BRANCH  59  61
ATOM     61  C   UNL     1      10.147   0.469  22.416  0.00  0.00    +0.134 C 
BRANCH  61  62
ATOM     62  O   UNL     1       8.994  -0.296  21.930  0.00  0.00    -0.379 OA
ATOM     63  C   UNL     1       8.867  -0.445  20.515  0.00  0.00    +0.194 C 
ENDBRANCH  61  62
BRANCH  61  64
ATOM     64  C   UNL     1       9.751   1.975  22.580  0.00  0.00    +0.039 C 
ATOM     65  C   UNL     1       8.620   2.341  21.583  0.00  0.00    +0.014 C 
BRANCH  64  66
ATOM     66  C   UNL     1      10.778   3.081  22.362  0.00  0.00    -0.006 C 
ATOM     67  C   UNL     1      11.444   3.636  23.391  0.00  0.00    +0.068 C 
BRANCH  67  68
ATOM     68  N   UNL     1      12.019   4.904  23.525  0.00  0.00    -0.317 N 
ATOM     69  C   UNL     1      13.162   5.331  22.699  0.00  0.00    +0.131 C 
BRANCH  68  70
ATOM     70  C   UNL     1      11.155   6.024  23.923  0.00  0.00    +0.263 C 
BRANCH  70  71
ATOM     71  O   UNL     1      10.032   6.083  23.071  0.00  0.00    -0.377 OA
ATOM     72  H   UNL     1       9.328   5.676  23.602  0.00  0.00    +0.211 HD
ENDBRANCH  70  71
ENDBRANCH  68  70
ENDBRANCH  67  68
ENDBRANCH  64  66
ENDBRANCH  61  64
ENDBRANCH  59  61
ENDBRANCH  57  59
ENDBRANCH  56  57
ENDBRANCH  55  56
ENDBRANCH  53  55
ENDBRANCH  50  53
ENDBRANCH  49  50
ENDBRANCH   1  49
TORSDOF 22
ENDMDL
MODEL 2
REMARK VINA RESULT:      -3.2      2.534      3.900
REMARK  Name = 
REMARK  33 active torsions:
REMARK  status: ('A' for Active; 'I' for Inactive)
REMARK    1  A    between atoms: C_1  and  O_2
REMARK    2  A    between atoms: O_2  and  C_3
REMARK    3  A    between atoms: C_3  and  C_5
REMARK    4  A    between atoms: C_3  and  C_59
REMARK    5  A    between atoms: C_5  and  C_6
REMARK    6  A    between atoms: C_12  and  O_54
REMARK    7  A    between atoms: C_15  and  C_17
REMARK    8  A    between atoms: C_19  and  O_21
REMARK    9  A    between atoms: C_22  and  C_24
REMARK   10  A    between atoms: C_25  and  O_27
REMARK   11  A    between atoms: O_27  and  C_28
REMARK   12  A    between atoms: C_46  and  O_48
REMARK   13  A    between atoms: O_48  and  C_49
REMARK   14  A    between atoms: C_50  and  C_52
REMARK   15  A    between atoms: O_54  and  C_55
REMARK   16  A    between atoms: C_55  and  N_57
REMARK   17  A    between atoms: C_55  and  O_58
REMARK   18  A    between atoms: C_59  and  C_61
REMARK   19  A    between atoms: C_59  and  C_62
REMARK   20  A    between atoms: C_62  and  C_63
REMARK   21  A    between atoms: C_63  and  C_64
REMARK   22  A    between atoms: C_64  and  C_66
REMARK   23  A    between atoms: C_66  and  C_68
REMARK   24  A    between atoms: C_66  and  C_69
REMARK   25  A    between atoms: C_69  and  O_71
REMARK   26  A    between atoms: C_69  and  C_73
REMARK   27  A    between atoms: O_71  and  C_72
REMARK   28  A    between atoms: C_73  and  C_75
REMARK   29  A    between atoms: C_73  and  C_76
REMARK   30  A    between atoms: C_77  and  N_78
REMARK   31  A    between atoms: N_78  and  C_79
REMARK   32  A    between atoms: N_78  and  C_80
REMARK   33  A    between atoms: C_80  and  O_81
REMARK                            x       y       z     vdW  Elec       q    Type
REMARK                         _______ _______ _______ _____ _____    ______ ____
ROOT
ATOM      1  C   UNL     1       6.273  -4.893  24.308  0.00  0.00    +0.184 C 
ATOM      2  C   UNL     1       6.379  -2.932  23.888  0.00  0.00    +0.056 C 
ATOM      3  C   UNL     1       5.260  -2.527  24.829  0.00  0.00    +0.014 C 
ATOM      4  C   UNL     1       6.692  -1.404  22.624  0.00  0.00    +0.128 C 
ATOM      5  C   UNL     1       7.636   0.283  22.605  0.00  0.00    +0.059 C 
ATOM      6  C   UNL     1       7.584   1.992  22.036  0.00  0.00    -0.019 C 
ATOM      7  C   UNL     1       7.485   3.334  21.622  0.00  0.00    +0.063 C 
ATOM      8  C   UNL     1       6.503   4.328  22.099  0.00  0.00    +0.220 A 
ATOM      9  N   UNL     1       5.597   3.978  22.963  0.00  0.00    -0.205 NA
ATOM     10  C   UNL     1       4.859   5.072  23.304  0.00  0.00    +0.164 A 
ATOM     11  C   UNL     1       5.259   6.157  22.584  0.00  0.00    +0.230 A 
ATOM     12  C   UNL     1       3.878   4.802  24.364  0.00  0.00    +0.250 A 
ATOM     13  N   UNL     1       3.860   3.560  24.801  0.00  0.00    -0.203 NA
ATOM     14  C   UNL     1       2.996   3.564  25.823  0.00  0.00    +0.164 A 
ATOM     15  C   UNL     1       2.451   4.811  25.972  0.00  0.00    +0.230 A 
ATOM     16  C   UNL     1       2.732   2.368  26.622  0.00  0.00    +0.249 A 
ATOM     17  N   UNL     1       3.277   1.188  26.370  0.00  0.00    -0.210 NA
ATOM     18  C   UNL     1       2.739   0.385  27.326  0.00  0.00    +0.109 A 
ATOM     19  C   UNL     1       1.922   1.120  28.147  0.00  0.00    +0.223 A 
ATOM     20  C   UNL     1       3.083  -1.045  27.478  0.00  0.00    +0.175 C 
ATOM     21  C   UNL     1       1.915  -1.907  26.963  0.00  0.00    +0.049 C 
ATOM     22  C   UNL     1       0.575  -1.670  27.663  0.00  0.00    +0.013 C 
ATOM     23  C   UNL     1       2.281  -3.376  27.036  0.00  0.00    +0.120 C 
ATOM     24  C   UNL     1       1.176  -4.251  26.423  0.00  0.00    +0.035 C 
ATOM     25  C   UNL     1       1.790  -5.599  26.148  0.00  0.00    -0.009 C 
ATOM     26  C   UNL     1       2.701  -5.275  24.999  0.00  0.00    +0.007 C 
ATOM     27  C   UNL     1       0.852  -6.699  25.740  0.00  0.00    +0.035 C 
ATOM     28  C   UNL     1       1.555  -8.096  25.659  0.00  0.00    +0.134 C 
ATOM     29  C   UNL     1       2.959  -8.171  24.738  0.00  0.00    +0.152 C 
ATOM     30  C   UNL     1       4.316  -7.223  25.093  0.00  0.00    +0.310 C 
ATOM     31  O   UNL     1       4.548  -7.297  26.303  0.00  0.00    -0.251 OA
ATOM     32  O   UNL     1       1.895   2.387  27.701  0.00  0.00    -0.442 OA
ATOM     33  O   UNL     1       3.015   5.636  25.029  0.00  0.00    -0.442 OA
ATOM     34  O   UNL     1       6.329   5.716  21.790  0.00  0.00    -0.443 OA
ATOM     35  O   UNL     1       4.979  -6.144  24.126  0.00  0.00    -0.461 OA
ENDROOT
BRANCH  20  36
ATOM     36  O   UNL     1       3.386  -1.334  28.846  0.00  0.00    -0.373 OA
ATOM     37  C   UNL     1       4.489  -0.553  29.289  0.00  0.00    +0.194 C 
ENDBRANCH  20  36
BRANCH   4  38
ATOM     38  O   UNL     1       5.849  -1.307  21.394  0.00  0.00    -0.379 OA
ATOM     39  C   UNL     1       5.767  -2.401  20.426  0.00  0.00    +0.194 C 
ENDBRANCH   4  38
BRANCH  23  40
ATOM     40  O   UNL     1       2.573  -3.863  28.338  0.00  0.00    -0.391 OA
ATOM     41  H   UNL     1       3.503  -4.130  28.370  0.00  0.00    +0.210 HD
ENDBRANCH  23  40
BRANCH  28  42
ATOM     42  O   UNL     1       0.443  -8.910  25.159  0.00  0.00    -0.335 OA
BRANCH  42  43
ATOM     43  C   UNL     1       0.579 -10.304  24.989  0.00  0.00    +0.323 C 
BRANCH  43  44
ATOM     44  N   UNL     1       0.443 -10.677  23.617  0.00  0.00    -0.283 NA
ATOM     45  H   UNL     1       0.202  -9.826  23.120  0.00  0.00    +0.123 HD
ATOM     46  H   UNL     1       1.346 -10.989  23.273  0.00  0.00    +0.123 HD
ENDBRANCH  43  44
BRANCH  43  47
ATOM     47  O   UNL     1       1.783 -10.832  25.474  0.00  0.00    -0.355 OA
ATOM     48  H   UNL     1       1.593 -11.753  25.710  0.00  0.00    +0.214 HD
ENDBRANCH  43  47
ENDBRANCH  42  43
ENDBRANCH  28  42
BRANCH   1  49
ATOM     49  C   UNL     1       6.508  -5.238  25.960  0.00  0.00    +0.076 C 
BRANCH  49  50
ATOM     50  C   UNL     1       7.684  -4.743  27.037  0.00  0.00    +0.124 C 
BRANCH  50  52
ATOM     51  C   UNL     1       9.195  -5.173  25.294  0.00  0.00    +0.194 C 
ATOM     52  O   UNL     1       9.029  -5.097  26.681  0.00  0.00    -0.379 OA
ENDBRANCH  50  52
BRANCH  50  53
ATOM     53  C   UNL     1       7.567  -3.122  27.307  0.00  0.00    +0.015 C 
ATOM     54  C   UNL     1       6.136  -2.535  27.417  0.00  0.00    +0.010 C 
BRANCH  53  55
ATOM     55  C   UNL     1       8.461  -2.183  26.427  0.00  0.00    +0.013 C 
BRANCH  55  56
ATOM     56  C   UNL     1       8.840  -0.820  27.039  0.00  0.00    +0.075 C 
BRANCH  56  57
ATOM     57  C   UNL     1       8.345   0.424  26.282  0.00  0.00    +0.139 C 
ATOM     58  O   UNL     1       9.035   1.028  25.461  0.00  0.00    -0.297 OA
BRANCH  57  59
ATOM     59  C   UNL     1       6.886   0.822  26.557  0.00  0.00    +0.081 C 
ATOM     60  C   UNL     1       6.284   1.433  25.290  0.00  0.00    +0.018 C 
BRANCH  59  61
ATOM     61  C   UNL     1       6.654   1.790  27.746  0.00  0.00    +0.134 C 
BRANCH  61  62
ATOM     62  O   UNL     1       7.370   1.271  28.916  0.00  0.00    -0.379 OA
ATOM     63  C   UNL     1       7.598   2.183  29.991  0.00  0.00    +0.194 C 
ENDBRANCH  61  62
BRANCH  61  64
ATOM     64  C   UNL     1       7.001   3.304  27.543  0.00  0.00    +0.039 C 
ATOM     65  C   UNL     1       5.845   4.192  28.072  0.00  0.00    +0.014 C 
BRANCH  64  66
ATOM     66  C   UNL     1       7.263   3.866  26.149  0.00  0.00    -0.006 C 
ATOM     67  C   UNL     1       8.313   4.668  25.900  0.00  0.00    +0.068 C 
BRANCH  67  68
ATOM     68  N   UNL     1       8.496   5.650  24.920  0.00  0.00    -0.317 N 
ATOM     69  C   UNL     1       7.700   6.889  24.902  0.00  0.00    +0.131 C 
BRANCH  68  70
ATOM     70  C   UNL     1       9.840   5.828  24.353  0.00  0.00    +0.263 C 
BRANCH  70  71
ATOM     71  O   UNL     1       9.805   5.587  22.963  0.00  0.00    -0.377 OA
ATOM     72  H   UNL     1      10.628   5.098  22.801  0.00  0.00    +0.211 HD
ENDBRANCH  70  71
ENDBRANCH  68  70
ENDBRANCH  67  68
ENDBRANCH  64  66
ENDBRANCH  61  64
ENDBRANCH  59  61
ENDBRANCH  57  59
ENDBRANCH  56  57
ENDBRANCH  55  56
ENDBRANCH  53  55
ENDBRANCH  50  53
ENDBRANCH  49  50
ENDBRANCH   1  49
TORSDOF 22
ENDMDL
MODEL 3
REMARK VINA RESULT:      -2.6      2.714      9.514
REMARK  Name = 
REMARK  33 active torsions:
REMARK  status: ('A' for Active; 'I' for Inactive)
REMARK    1  A    between atoms: C_1  and  O_2
REMARK    2  A    between atoms: O_2  and  C_3
REMARK    3  A    between atoms: C_3  and  C_5
REMARK    4  A    between atoms: C_3  and  C_59
REMARK    5  A    between atoms: C_5  and  C_6
REMARK    6  A    between atoms: C_12  and  O_54
REMARK    7  A    between atoms: C_15  and  C_17
REMARK    8  A    between atoms: C_19  and  O_21
REMARK    9  A    between atoms: C_22  and  C_24
REMARK   10  A    between atoms: C_25  and  O_27
REMARK   11  A    between atoms: O_27  and  C_28
REMARK   12  A    between atoms: C_46  and  O_48
REMARK   13  A    between atoms: O_48  and  C_49
REMARK   14  A    between atoms: C_50  and  C_52
REMARK   15  A    between atoms: O_54  and  C_55
REMARK   16  A    between atoms: C_55  and  N_57
REMARK   17  A    between atoms: C_55  and  O_58
REMARK   18  A    between atoms: C_59  and  C_61
REMARK   19  A    between atoms: C_59  and  C_62
REMARK   20  A    between atoms: C_62  and  C_63
REMARK   21  A    between atoms: C_63  and  C_64
REMARK   22  A    between atoms: C_64  and  C_66
REMARK   23  A    between atoms: C_66  and  C_68
REMARK   24  A    between atoms: C_66  and  C_69
REMARK   25  A    between atoms: C_69  and  O_71
REMARK   26  A    between atoms: C_69  and  C_73
REMARK   27  A    between atoms: O_71  and  C_72
REMARK   28  A    between atoms: C_73  and  C_75
REMARK   29  A    between atoms: C_73  and  C_76
REMARK   30  A    between atoms: C_77  and  N_78
REMARK   31  A    between atoms: N_78  and  C_79
REMARK   32  A    between atoms: N_78  and  C_80
REMARK   33  A    between atoms: C_80  and  O_81
REMARK                            x       y       z     vdW  Elec       q    Type
REMARK                         _______ _______ _______ _____ _____    ______ ____
ROOT
ATOM      1  C   UNL     1       6.567   2.260  24.160  0.00  0.00    +0.184 C 
ATOM      2  C   UNL     1       5.945   0.351  24.113  0.00  0.00    +0.056 C 
ATOM      3  C   UNL     1       5.050   0.466  25.331  0.00  0.00    +0.014 C 
ATOM      4  C   UNL     1       6.244  -1.602  23.761  0.00  0.00    +0.128 C 
ATOM      5  C   UNL     1       5.325  -3.071  22.903  0.00  0.00    +0.059 C 
ATOM      6  C   UNL     1       4.974  -4.836  22.987  0.00  0.00    -0.019 C 
ATOM      7  C   UNL     1       4.675  -6.206  23.114  0.00  0.00    +0.063 C 
ATOM      8  C   UNL     1       3.873  -6.834  24.184  0.00  0.00    +0.220 A 
ATOM      9  N   UNL     1       3.396  -6.101  25.146  0.00  0.00    -0.205 NA
ATOM     10  C   UNL     1       2.636  -6.882  25.966  0.00  0.00    +0.164 A 
ATOM     11  C   UNL     1       2.677  -8.180  25.556  0.00  0.00    +0.230 A 
ATOM     12  C   UNL     1       1.959  -6.123  27.026  0.00  0.00    +0.250 A 
ATOM     13  N   UNL     1       2.200  -4.828  27.022  0.00  0.00    -0.203 NA
ATOM     14  C   UNL     1       1.407  -4.325  27.976  0.00  0.00    +0.164 A 
ATOM     15  C   UNL     1       0.717  -5.333  28.592  0.00  0.00    +0.230 A 
ATOM     16  C   UNL     1       1.339  -2.890  28.253  0.00  0.00    +0.249 A 
ATOM     17  N   UNL     1       2.085  -1.992  27.628  0.00  0.00    -0.210 NA
ATOM     18  C   UNL     1       1.715  -0.821  28.212  0.00  0.00    +0.109 A 
ATOM     19  C   UNL     1       0.728  -1.051  29.136  0.00  0.00    +0.223 A 
ATOM     20  C   UNL     1       2.257   0.496  27.813  0.00  0.00    +0.175 C 
ATOM     21  C   UNL     1       3.250   0.983  28.885  0.00  0.00    +0.049 C 
ATOM     22  C   UNL     1       2.670   1.123  30.293  0.00  0.00    +0.013 C 
ATOM     23  C   UNL     1       3.878   2.294  28.455  0.00  0.00    +0.120 C 
ATOM     24  C   UNL     1       4.956   2.744  29.455  0.00  0.00    +0.035 C 
ATOM     25  C   UNL     1       5.798   3.777  28.752  0.00  0.00    -0.009 C 
ATOM     26  C   UNL     1       6.533   2.926  27.756  0.00  0.00    +0.007 C 
ATOM     27  C   UNL     1       6.793   4.524  29.594  0.00  0.00    +0.035 C 
ATOM     28  C   UNL     1       7.483   5.697  28.818  0.00  0.00    +0.134 C 
ATOM     29  C   UNL     1       8.168   5.307  27.333  0.00  0.00    +0.152 C 
ATOM     30  C   UNL     1       7.251   4.666  26.063  0.00  0.00    +0.310 C 
ATOM     31  O   UNL     1       6.219   5.334  25.939  0.00  0.00    -0.251 OA
ATOM     32  O   UNL     1       0.487  -2.371  29.184  0.00  0.00    -0.442 OA
ATOM     33  O   UNL     1       1.061  -6.516  27.985  0.00  0.00    -0.442 OA
ATOM     34  O   UNL     1       3.468  -8.191  24.397  0.00  0.00    -0.443 OA
ATOM     35  O   UNL     1       7.479   3.251  25.369  0.00  0.00    -0.461 OA
ENDROOT
BRANCH  20  36
ATOM     36  O   UNL     1       1.191   1.430  27.623  0.00  0.00    -0.373 OA
ATOM     37  C   UNL     1       0.778   1.445  26.262  0.00  0.00    +0.194 C 
ENDBRANCH  20  36
BRANCH   4  38
ATOM     38  O   UNL     1       7.344  -2.302  24.491  0.00  0.00    -0.379 OA
ATOM     39  C   UNL     1       7.889  -3.579  24.027  0.00  0.00    +0.194 C 
ENDBRANCH   4  38
BRANCH  23  40
ATOM     40  O   UNL     1       2.968   3.366  28.260  0.00  0.00    -0.391 OA
ATOM     41  H   UNL     1       2.075   3.061  28.475  0.00  0.00    +0.210 HD
ENDBRANCH  23  40
BRANCH  28  42
ATOM     42  O   UNL     1       8.433   6.150  29.838  0.00  0.00    -0.335 OA
BRANCH  42  43
ATOM     43  C   UNL     1       9.424   7.108  29.536  0.00  0.00    +0.323 C 
BRANCH  43  44
ATOM     44  N   UNL     1      10.538   7.003  30.425  0.00  0.00    -0.283 NA
ATOM     45  H   UNL     1      11.140   6.287  30.032  0.00  0.00    +0.123 HD
ATOM     46  H   UNL     1      11.051   7.878  30.409  0.00  0.00    +0.123 HD
ENDBRANCH  43  44
BRANCH  43  47
ATOM     47  O   UNL     1       9.902   7.053  28.220  0.00  0.00    -0.355 OA
ATOM     48  H   UNL     1      10.305   7.919  28.048  0.00  0.00    +0.214 HD
ENDBRANCH  43  47
ENDBRANCH  42  43
ENDBRANCH  28  42
BRANCH   1  49
ATOM     49  C   UNL     1       5.289   3.384  24.061  0.00  0.00    +0.076 C 
BRANCH  49  50
ATOM     50  C   UNL     1       5.059   4.712  23.077  0.00  0.00    +0.124 C 
BRANCH  50  52
ATOM     51  C   UNL     1       3.129   5.976  22.648  0.00  0.00    +0.194 C 
ATOM     52  O   UNL     1       4.138   5.694  23.576  0.00  0.00    -0.379 OA
ENDBRANCH  50  52
BRANCH  50  53
ATOM     53  C   UNL     1       6.505   5.413  22.714  0.00  0.00    +0.015 C 
ATOM     54  C   UNL     1       6.456   6.733  21.901  0.00  0.00    +0.010 C 
BRANCH  53  55
ATOM     55  C   UNL     1       7.630   4.481  22.147  0.00  0.00    +0.013 C 
BRANCH  55  56
ATOM     56  C   UNL     1       8.822   4.191  23.081  0.00  0.00    +0.075 C 
BRANCH  56  57
ATOM     57  C   UNL     1       9.913   3.264  22.521  0.00  0.00    +0.139 C 
ATOM     58  O   UNL     1      11.111   3.549  22.543  0.00  0.00    -0.297 OA
BRANCH  57  59
ATOM     59  C   UNL     1       9.418   1.906  22.001  0.00  0.00    +0.081 C 
ATOM     60  C   UNL     1       7.978   2.053  21.503  0.00  0.00    +0.018 C 
BRANCH  59  61
ATOM     61  C   UNL     1       9.489   0.724  23.003  0.00  0.00    +0.134 C 
BRANCH  61  62
ATOM     62  O   UNL     1      10.159  -0.403  22.346  0.00  0.00    -0.379 OA
ATOM     63  C   UNL     1       9.354  -1.237  21.512  0.00  0.00    +0.194 C 
ENDBRANCH  61  62
BRANCH  61  64
ATOM     64  C   UNL     1      10.141   0.982  24.403  0.00  0.00    +0.039 C 
ATOM     65  C   UNL     1      11.687   0.954  24.285  0.00  0.00    +0.014 C 
BRANCH  64  66
ATOM     66  C   UNL     1       9.864   0.049  25.578  0.00  0.00    -0.006 C 
ATOM     67  C   UNL     1       8.617  -0.148  26.041  0.00  0.00    +0.068 C 
BRANCH  67  68
ATOM     68  N   UNL     1       8.166  -0.520  27.312  0.00  0.00    -0.317 N 
ATOM     69  C   UNL     1       7.545   0.448  28.232  0.00  0.00    +0.131 C 
BRANCH  68  70
ATOM     70  C   UNL     1       7.664  -1.888  27.501  0.00  0.00    +0.263 C 
BRANCH  70  71
ATOM     71  O   UNL     1       6.337  -1.975  27.029  0.00  0.00    -0.377 OA
ATOM     72  H   UNL     1       5.817  -2.077  27.843  0.00  0.00    +0.211 HD
ENDBRANCH  70  71
ENDBRANCH  68  70
ENDBRANCH  67  68
ENDBRANCH  64  66
ENDBRANCH  61  64
ENDBRANCH  59  61
ENDBRANCH  57  59
ENDBRANCH  56  57
ENDBRANCH  55  56
ENDBRANCH  53  55
ENDBRANCH  50  53
ENDBRANCH  49  50
ENDBRANCH   1  49
TORSDOF 22
ENDMDL
MODEL 4
REMARK VINA RESULT:      -1.5      1.630      2.460
REMARK  Name = 
REMARK  33 active torsions:
REMARK  status: ('A' for Active; 'I' for Inactive)
REMARK    1  A    between atoms: C_1  and  O_2
REMARK    2  A    between atoms: O_2  and  C_3
REMARK    3  A    between atoms: C_3  and  C_5
REMARK    4  A    between atoms: C_3  and  C_59
REMARK    5  A    between atoms: C_5  and  C_6
REMARK    6  A    between atoms: C_12  and  O_54
REMARK    7  A    between atoms: C_15  and  C_17
REMARK    8  A    between atoms: C_19  and  O_21
REMARK    9  A    between atoms: C_22  and  C_24
REMARK   10  A    between atoms: C_25  and  O_27
REMARK   11  A    between atoms: O_27  and  C_28
REMARK   12  A    between atoms: C_46  and  O_48
REMARK   13  A    between atoms: O_48  and  C_49
REMARK   14  A    between atoms: C_50  and  C_52
REMARK   15  A    between atoms: O_54  and  C_55
REMARK   16  A    between atoms: C_55  and  N_57
REMARK   17  A    between atoms: C_55  and  O_58
REMARK   18  A    between atoms: C_59  and  C_61
REMARK   19  A    between atoms: C_59  and  C_62
REMARK   20  A    between atoms: C_62  and  C_63
REMARK   21  A    between atoms: C_63  and  C_64
REMARK   22  A    between atoms: C_64  and  C_66
REMARK   23  A    between atoms: C_66  and  C_68
REMARK   24  A    between atoms: C_66  and  C_69
REMARK   25  A    between atoms: C_69  and  O_71
REMARK   26  A    between atoms: C_69  and  C_73
REMARK   27  A    between atoms: O_71  and  C_72
REMARK   28  A    between atoms: C_73  and  C_75
REMARK   29  A    between atoms: C_73  and  C_76
REMARK   30  A    between atoms: C_77  and  N_78
REMARK   31  A    between atoms: N_78  and  C_79
REMARK   32  A    between atoms: N_78  and  C_80
REMARK   33  A    between atoms: C_80  and  O_81
REMARK                            x       y       z     vdW  Elec       q    Type
REMARK                         _______ _______ _______ _____ _____    ______ ____
ROOT
ATOM      1  C   UNL     1       6.425  -2.625  23.058  0.00  0.00    +0.184 C 
ATOM      2  C   UNL     1       6.042  -0.821  23.853  0.00  0.00    +0.056 C 
ATOM      3  C   UNL     1       5.148  -1.345  24.961  0.00  0.00    +0.014 C 
ATOM      4  C   UNL     1       5.719   1.153  23.695  0.00  0.00    +0.128 C 
ATOM      5  C   UNL     1       6.285   2.783  24.568  0.00  0.00    +0.059 C 
ATOM      6  C   UNL     1       5.762   4.419  25.111  0.00  0.00    -0.019 C 
ATOM      7  C   UNL     1       5.304   5.668  25.571  0.00  0.00    +0.063 C 
ATOM      8  C   UNL     1       4.306   5.899  26.636  0.00  0.00    +0.220 A 
ATOM      9  N   UNL     1       3.740   4.886  27.220  0.00  0.00    -0.205 NA
ATOM     10  C   UNL     1       2.919   5.342  28.208  0.00  0.00    +0.164 A 
ATOM     11  C   UNL     1       2.903   6.704  28.220  0.00  0.00    +0.230 A 
ATOM     12  C   UNL     1       2.315   4.265  29.004  0.00  0.00    +0.250 A 
ATOM     13  N   UNL     1       2.649   3.046  28.633  0.00  0.00    -0.203 NA
ATOM     14  C   UNL     1       2.094   2.241  29.547  0.00  0.00    +0.164 A 
ATOM     15  C   UNL     1       1.378   2.980  30.450  0.00  0.00    +0.230 A 
ATOM     16  C   UNL     1       2.279   0.790  29.520  0.00  0.00    +0.249 A 
ATOM     17  N   UNL     1       2.957   0.160  28.572  0.00  0.00    -0.210 NA
ATOM     18  C   UNL     1       2.848  -1.147  28.929  0.00  0.00    +0.109 A 
ATOM     19  C   UNL     1       2.146  -1.254  30.103  0.00  0.00    +0.223 A 
ATOM     20  C   UNL     1       3.487  -2.252  28.182  0.00  0.00    +0.175 C 
ATOM     21  C   UNL     1       2.412  -3.014  27.383  0.00  0.00    +0.049 C 
ATOM     22  C   UNL     1       1.280  -3.609  28.221  0.00  0.00    +0.013 C 
ATOM     23  C   UNL     1       3.060  -4.100  26.547  0.00  0.00    +0.120 C 
ATOM     24  C   UNL     1       2.022  -4.801  25.655  0.00  0.00    +0.035 C 
ATOM     25  C   UNL     1       2.791  -5.531  24.584  0.00  0.00    -0.009 C 
ATOM     26  C   UNL     1       3.295  -4.385  23.755  0.00  0.00    +0.007 C 
ATOM     27  C   UNL     1       2.008  -6.467  23.709  0.00  0.00    +0.035 C 
ATOM     28  C   UNL     1       2.920  -7.313  22.757  0.00  0.00    +0.134 C 
ATOM     29  C   UNL     1       4.026  -6.452  21.828  0.00  0.00    +0.152 C 
ATOM     30  C   UNL     1       5.221  -5.480  22.529  0.00  0.00    +0.310 C 
ATOM     31  O   UNL     1       5.768  -6.112  23.438  0.00  0.00    -0.251 OA
ATOM     32  O   UNL     1       1.762  -0.025  30.485  0.00  0.00    -0.442 OA
ATOM     33  O   UNL     1       1.511   4.305  30.114  0.00  0.00    -0.442 OA
ATOM     34  O   UNL     1       3.796   7.106  27.215  0.00  0.00    -0.443 OA
ATOM     35  O   UNL     1       5.392  -3.911  22.313  0.00  0.00    -0.461 OA
ENDROOT
BRANCH  20  36
ATOM     36  O   UNL     1       4.182  -3.117  29.084  0.00  0.00    -0.373 OA
ATOM     37  C   UNL     1       3.340  -3.487  30.170  0.00  0.00    +0.194 C 
ENDBRANCH  20  36
BRANCH   4  38
ATOM     38  O   UNL     1       4.584   1.629  22.846  0.00  0.00    -0.379 OA
ATOM     39  C   UNL     1       3.755   2.770  23.236  0.00  0.00    +0.194 C 
ENDBRANCH   4  38
BRANCH  23  40
ATOM     40  O   UNL     1       3.765  -5.090  27.282  0.00  0.00    -0.391 OA
ATOM     41  H   UNL     1       4.503  -4.668  27.745  0.00  0.00    +0.210 HD
ENDBRANCH  23  40
BRANCH  28  42
ATOM     42  O   UNL     1       1.894  -8.027  21.992  0.00  0.00    -0.335 OA
BRANCH  42  43
ATOM     43  C   UNL     1       1.585  -7.659  20.666  0.00  0.00    +0.323 C 
BRANCH  43  44
ATOM     44  N   UNL     1       1.170  -8.788  19.895  0.00  0.00    -0.283 NA
ATOM     45  H   UNL     1       1.920  -8.966  19.235  0.00  0.00    +0.123 HD
ATOM     46  H   UNL     1       1.102  -9.594  20.508  0.00  0.00    +0.123 HD
ENDBRANCH  43  44
BRANCH  43  47
ATOM     47  O   UNL     1       0.606  -6.663  20.554  0.00  0.00    -0.355 OA
ATOM     48  H   UNL     1       0.385  -6.613  19.610  0.00  0.00    +0.214 HD
ENDBRANCH  43  47
ENDBRANCH  42  43
ENDBRANCH  28  42
BRANCH   1  49
ATOM     49  C   UNL     1       7.141  -3.707  24.164  0.00  0.00    +0.076 C 
BRANCH  49  50
ATOM     50  C   UNL     1       7.524  -3.543  25.780  0.00  0.00    +0.124 C 
BRANCH  50  52
ATOM     51  C   UNL     1       9.042  -5.330  25.840  0.00  0.00    +0.194 C 
ATOM     52  O   UNL     1       7.919  -4.753  26.444  0.00  0.00    -0.379 OA
ENDBRANCH  50  52
BRANCH  50  53
ATOM     53  C   UNL     1       8.669  -2.376  25.981  0.00  0.00    +0.015 C 
ATOM     54  C   UNL     1       8.584  -1.531  27.279  0.00  0.00    +0.010 C 
BRANCH  53  55
ATOM     55  C   UNL     1       8.963  -1.443  24.757  0.00  0.00    +0.013 C 
BRANCH  55  56
ATOM     56  C   UNL     1       8.785   0.072  24.986  0.00  0.00    +0.075 C 
BRANCH  56  57
ATOM     57  C   UNL     1       9.931   0.972  24.496  0.00  0.00    +0.139 C 
ATOM     58  O   UNL     1      11.119   0.683  24.639  0.00  0.00    -0.297 OA
BRANCH  57  59
ATOM     59  C   UNL     1       9.495   2.231  23.731  0.00  0.00    +0.081 C 
ATOM     60  C   UNL     1       9.456   1.922  22.233  0.00  0.00    +0.018 C 
BRANCH  59  61
ATOM     61  C   UNL     1      10.350   3.503  23.964  0.00  0.00    +0.134 C 
BRANCH  61  62
ATOM     62  O   UNL     1      11.428   3.529  22.970  0.00  0.00    -0.379 OA
ATOM     63  C   UNL     1      12.582   4.307  23.288  0.00  0.00    +0.194 C 
ENDBRANCH  61  62
BRANCH  61  64
ATOM     64  C   UNL     1       9.621   4.889  23.987  0.00  0.00    +0.039 C 
ATOM     65  C   UNL     1      10.636   6.031  23.721  0.00  0.00    +0.014 C 
BRANCH  64  66
ATOM     66  C   UNL     1       8.883   5.363  25.235  0.00  0.00    -0.006 C 
ATOM     67  C   UNL     1       9.156   6.550  25.806  0.00  0.00    +0.068 C 
BRANCH  67  68
ATOM     68  N   UNL     1       9.006   6.979  27.129  0.00  0.00    -0.317 N 
ATOM     69  C   UNL     1       7.800   6.670  27.916  0.00  0.00    +0.131 C 
BRANCH  68  70
ATOM     70  C   UNL     1      10.210   7.108  27.962  0.00  0.00    +0.263 C 
BRANCH  70  71
ATOM     71  O   UNL     1      11.357   6.857  27.179  0.00  0.00    -0.377 OA
ATOM     72  H   UNL     1      11.957   6.412  27.800  0.00  0.00    +0.211 HD
ENDBRANCH  70  71
ENDBRANCH  68  70
ENDBRANCH  67  68
ENDBRANCH  64  66
ENDBRANCH  61  64
ENDBRANCH  59  61
ENDBRANCH  57  59
ENDBRANCH  56  57
ENDBRANCH  55  56
ENDBRANCH  53  55
ENDBRANCH  50  53
ENDBRANCH  49  50
ENDBRANCH   1  49
TORSDOF 22
ENDMDL
